data_mof_unit_15390.cif
_audit_creation_date              2012-12-10T18:31:03-0500
_audit_creation_method            fapswitch 2.2
_symmetry_space_group_name_H-M    P1
_symmetry_Int_Tables_number       1
_space_group_crystal_system       triclinic
_cell_length_a                    13.70168
_cell_length_b                    14.970191
_cell_length_c                    15.056003
_cell_angle_alpha                 97.250797
_cell_angle_beta                  91.817438
_cell_angle_gamma                 98.856184
_cell_volume                      3022.8949266

loop_
_atom_site_label
_atom_site_type_symbol
_atom_type_description
_atom_site_fract_x
_atom_site_fract_y
_atom_site_fract_z
_atom_type_partial_charge
C1    C     C_R   0.515081 0.556959 0.664430 0.951907
C2    C     C_R   0.332160 0.412656 0.921500 0.351504
C3    C     C_R   0.433675 0.685221 0.022254 -0.179514
C4    C     C_R   0.325173 0.345196 0.978227 -0.177823
C5    C     C_R   0.331779 0.155599 0.609526 -0.166496
C6    C     C_R   0.668565 0.837428 0.382276 -0.163466
C7    C     C_R   0.351015 0.239140 0.574437 0.090155
C8    C     C_R   0.629853 0.746661 0.391785 0.064370
C9    C     C_R   0.513557 0.215702 0.540981 0.015823
C10   C     C_R   0.516231 0.795261 0.496199 0.043781
C11   C     C_R   0.490433 0.123361 0.556658 -0.007209
C12   C     C_R   0.485683 0.443045 0.335710 0.919869
C13   C     C_R   0.553076 0.888463 0.490953 0.018107
C14   C     C_R   0.403896 0.098270 0.602266 0.058762
C15   C     C_R   0.629397 0.908787 0.431701 0.064991
C16   C     C_R   0.318533 0.513846 0.497797 0.893601
C17   C     C_R   0.681409 0.485994 0.501302 0.910346
C18   C     C_R   0.544464 0.053477 0.522392 0.088905
C19   C     C_R   0.513678 0.961706 0.539637 0.097590
C20   C     C_R   0.441941 0.946081 0.603048 -0.141202
C21   C     C_R   0.621357 0.070551 0.464367 -0.154626
C22   C     C_R   0.387490 0.013112 0.633266 -0.092613
C23   C     C_R   0.431100 0.563733 0.899314 0.094852
C24   C     C_R   0.663165 0.999993 0.420701 -0.097943
C25   C     C_1   0.779951 0.475129 0.488410 -0.055604
C26   C     C_1   0.218489 0.523283 0.500110 -0.048133
C27   C     C_2   0.965596 0.471665 0.458397 -0.107229
C28   C     C_2   0.032243 0.540711 0.501866 -0.116213
C29   C     C_1   0.134031 0.532478 0.501454 0.074525
C30   C     C_1   0.863869 0.470364 0.474259 0.046370
C31   C     C_R   0.510839 0.592561 0.760638 -0.216375
C32   C     C_R   0.458344 0.410614 0.239776 -0.230022
C33   C     C_R   0.516224 0.717437 0.883450 -0.138703
C34   C     C_R   0.398171 0.457253 0.101311 0.127996
C35   C     C_R   0.384537 0.294282 0.117356 -0.128394
C36   C     C_R   0.546768 0.684018 0.797854 0.370894
C37   C     C_R   0.434920 0.317280 0.203143 0.322640
C38   C     C_R   0.460640 0.533347 0.814467 -0.173521
C39   C     C_R   0.444877 0.477719 0.186200 -0.154072
C40   C     C_2   0.005775 0.623176 0.556627 0.977040
C41   C     C_2   0.992313 0.394294 0.396303 0.950953
C42   C     C_2   0.230523 0.120801 0.636227 0.924941
C43   C     C_2   0.751188 0.856587 0.322046 0.929707
C44   C     C_2   0.544749 0.815284 0.919569 1.012156
C45   C     C_R   0.460392 0.656506 0.934986 -0.050748
C46   C     C_2   0.349461 0.197150 0.082077 1.010116
C47   C     C_2   0.677176 0.673250 0.345140 0.996274
C48   C     C_2   0.265153 0.275885 0.541147 0.981041
C49   C     C_R   0.368720 0.364545 0.065650 -0.052637
C50   C     C_R   0.382354 0.501479 0.953630 -0.113040
C51   C     C_R   0.390731 0.527150 0.046950 -0.064877
C52   C     C_R   0.399693 0.621557 0.079182 0.419443
H1    H     H_    0.423166 0.881484 0.627821 0.170391
H2    H     H_    0.583543 0.242483 0.516514 0.159515
H3    H     H_    0.909566 0.712013 0.579264 0.366917
H4    H     H_    0.086416 0.348773 0.307135 0.365229
H5    H     H_    0.111058 0.021963 0.615915 0.370979
H6    H     H_    0.891424 0.916580 0.309656 0.374015
H7    H     H_    0.631994 0.296839 0.270905 0.351732
H8    H     H_    0.733005 0.723817 0.634028 0.389940
H9    H     H_    0.614992 0.908830 0.018362 0.376453
H10   H     H_    0.266818 0.078166 0.101130 0.371795
H11   H     H_    0.274131 0.603931 0.288343 0.389876
H12   H     H_    0.648322 0.137735 0.448127 0.178418
H13   H     H_    0.211060 0.514213 0.816377 0.367201
H14   H     H_    0.797522 0.610782 0.337055 0.351207
H15   H     H_    0.183823 0.294615 0.433198 0.351274
H16   H     H_    0.441606 0.756870 0.048047 0.210640
H17   H     H_    0.288855 0.277251 0.951889 0.210862
H18   H     H_    0.473633 0.547565 0.210642 0.249954
H19   H     H_    0.447352 0.461688 0.790276 0.226593
H20   H     H_    0.328578 0.995804 0.677361 0.181070
H21   H     H_    0.719657 0.018136 0.374719 0.190077
H22   H     H_    0.457978 0.774307 0.539002 0.140967
N1    N     N_R   0.445040 0.272490 0.551770 -0.129430
N2    N     N_R   0.554960 0.727510 0.448230 -0.141189
O1    O     O_R   0.527700 0.614770 0.606110 -0.567132
O2    O     O_R   0.917443 0.654833 0.538070 -0.756593
O3    O     O_2   0.936753 0.321103 0.384581 -0.586886
O4    O     O_R   0.078153 0.405834 0.348349 -0.796237
O5    O     O_2   0.192493 0.164082 0.696183 -0.483281
O6    O     O_R   0.178904 0.038511 0.592015 -0.772260
O7    O     O_2   0.740904 0.825776 0.242537 -0.541226
O8    O     O_R   0.840919 0.908574 0.356961 -0.761567
O9    O     O_2   0.404373 0.197895 0.322400 -0.189352
O10   O     O_2   0.495981 0.151224 0.192538 -0.254945
O11   O     O_3   0.587390 0.272946 0.315928 -0.557072
O12   O     O_R   0.472300 0.385230 0.393890 -0.522172
O13   O     O_2   0.593327 0.811368 0.689590 -0.319702
O14   O     O_2   0.711804 0.811754 0.814488 -0.223072
O15   O     O_3   0.706662 0.685987 0.679971 -0.542964
O16   O     O_2   0.521045 0.873848 0.877266 -0.548936
O17   O     O_R   0.599940 0.840269 0.001061 -0.739687
O18   O     O_2   0.378550 0.163846 0.011333 -0.583833
O19   O     O_R   0.284736 0.143430 0.131254 -0.714147
O20   O     O_2   0.434736 0.707675 0.246759 -0.306122
O21   O     O_2   0.288326 0.734092 0.163437 -0.234176
O22   O     O_3   0.280608 0.579141 0.224998 -0.538073
O23   O     O_R   0.492440 0.468680 0.639380 -0.608278
O24   O     O_2   0.319759 0.327641 0.756063 -0.277914
O25   O     O_2   0.164416 0.331422 0.830202 -0.203561
O26   O     O_3   0.247314 0.479338 0.771868 -0.517770
O27   O     O_2   0.639920 0.630734 0.274566 -0.601858
O28   O     O_R   0.770616 0.660606 0.376256 -0.760173
O29   O     O_2   0.209849 0.309227 0.593273 -0.512877
O30   O     O_R   0.245620 0.269112 0.448655 -0.744812
O31   O     O_R   0.507560 0.531320 0.360620 -0.605551
O32   O     O_R   0.379820 0.583550 0.480950 -0.625403
O33   O     O_R   0.620180 0.416450 0.519050 -0.622446
O34   O     O_R   0.344560 0.437460 0.514220 -0.595843
O35   O     O_R   0.655440 0.562540 0.485780 -0.592888
O36   O     O_2   0.063614 0.665452 0.616502 -0.582918
S1    S     S_3+6 0.479344 0.231012 0.258347 0.075432
S2    S     S_3+6 0.641077 0.751961 0.745279 0.067018
S3    S     S_3+6 0.350894 0.663506 0.181227 0.040158
S4    S     S_3+6 0.263749 0.385520 0.817643 0.068982
Zn1   Zn    Zn3+2 0.523550 0.597550 0.477790 1.027238
Zn2   Zn    Zn3+2 0.476450 0.402450 0.522210 1.060212

loop_
_geom_bond_atom_site_label_1
_geom_bond_atom_site_label_2
_ccdc_geom_bond_type
C5    C42   S    
C11   C18   A    
C23   C45   A    
C18   C21   A    
C33   C45   A    
C19   C20   A    
O24   S4    D    
C1    C31   S    
C36   S2    S    
C1    O23   A    
C41   O4    S    
C16   O34   A    
C40   O36   D    
C42   O5    D    
C34   C51   A    
O10   S1    D    
C28   C29   S    
C35   C37   A    
H11   O22   S    
O1    Zn1   S    
C11   C14   A    
H9    O17   S    
C24   H21   S    
H8    O15   S    
C37   S1    S    
C28   C40   S    
C43   O7    D    
C8    N2    A    
C33   C36   A    
C1    O1    A    
C18   C19   A    
C32   C39   A    
C21   H12   S    
C44   O17   S    
C2    C50   A    
C6    C15   A    
C38   H19   S    
C10   N2    A    
C48   O30   S    
C46   O19   S    
C3    H16   S    
C42   O6    S    
C35   C49   A    
O20   S3    D    
O21   S3    D    
C44   O16   D    
H10   O19   S    
C12   C32   S    
C27   C30   S    
C43   O8    S    
O34   Zn2   S    
N1    Zn2   S    
C2    S4    S    
H13   O26   S    
C17   O35   A    
C22   H20   S    
C4    H17   S    
O33   Zn2   S    
C16   C26   S    
C47   O27   D    
C12   O12   A    
C51   C52   A    
H14   O28   S    
C5    C7    A    
H3    O2    S    
C13   C19   A    
C23   C50   A    
C7    N1    A    
C3    C45   A    
C34   C39   A    
C2    C4    A    
H6    O8    S    
C27   C41   S    
C48   O29   D    
C46   O18   D    
C50   C51   A    
C32   C37   A    
C9    C11   A    
C5    C14   A    
C15   C24   A    
C20   C22   A    
C6    C43   S    
C13   C15   A    
C40   O2    S    
O12   Zn2   S    
C52   S3    S    
C25   C30   T    
O13   S2    D    
C34   C49   A    
C47   O28   S    
H5    O6    S    
C33   C44   S    
O32   Zn1   S    
C20   H1    S    
C10   C13   A    
C17   O33   A    
C41   O3    D    
C12   O31   A    
C6    C8    A    
C3    C52   A    
O15   S2    S    
H15   O30   S    
C23   C38   A    
N2    Zn1   S    
H4    O4    S    
C31   C38   A    
C4    C49   A    
O35   Zn1   S    
C17   C25   S    
C7    C48   S    
C14   C22   A    
O9    S1    D    
C8    C47   S    
O23   Zn2   S    
C10   H22   S    
O22   S3    S    
C39   H18   S    
O14   S2    D    
H7    O11   S    
O11   S1    S    
O26   S4    S    
C16   O32   A    
C26   C29   T    
C21   C24   A    
C27   C28   D    
O25   S4    D    
C31   C36   A    
C9    H2    S    
C9    N1    A    
C35   C46   S    
O31   Zn1   S    
