data_mof_unit_19260.cif
_audit_creation_date              2012-12-10T16:57:15-0500
_audit_creation_method            fapswitch 2.2
_symmetry_space_group_name_H-M    P1
_symmetry_Int_Tables_number       1
_space_group_crystal_system       triclinic
_cell_length_a                    15.887426
_cell_length_b                    10.924887
_cell_length_c                    9.758781
_cell_angle_alpha                 89.193021
_cell_angle_beta                  90.121273
_cell_angle_gamma                 90.67862
_cell_volume                      1693.5253436

loop_
_atom_site_label
_atom_site_type_symbol
_atom_type_description
_atom_site_fract_x
_atom_site_fract_y
_atom_site_fract_z
_atom_type_partial_charge
C1    C     C_R   0.502203 0.265571 0.501034 0.860487
C2    C     C_3   0.950328 0.496646 0.654554 -0.029196
C3    C     C_3   0.916911 0.496745 0.501836 0.148065
C4    C     C_3   0.952699 0.613490 0.427864 -0.442454
C5    C     C_3   0.049478 0.604379 0.411135 0.354315
C6    C     C_1   0.824477 0.499482 0.500403 -0.076709
C7    C     C_1   0.175432 0.498236 0.502711 -0.025685
C8    C     C_1   0.250893 0.498461 0.500606 -0.192749
C9    C     C_2   0.529589 0.937034 0.389837 0.204160
C10   C     C_2   0.499192 0.867414 0.494960 -0.323765
C11   C     C_2   0.518670 0.070355 0.389812 -0.163882
C12   C     C_R   0.340441 0.499444 0.500036 0.820083
C13   C     C_2   0.510931 0.133882 0.505248 -0.373164
C14   C     C_2   0.474379 0.409282 0.928928 0.327200
C15   C     C_2   0.496343 0.402489 0.078604 -0.091254
C16   C     C_R   0.501617 0.734672 0.498609 0.845546
C17   C     C_R   0.659532 0.500574 0.500034 0.822184
C18   C     C_3   0.049194 0.511541 0.655745 -0.001197
C19   C     C_3   0.049160 0.376116 0.449464 -0.538363
C20   C     C_3   0.951466 0.379786 0.424558 0.585005
C21   C     C_1   0.749008 0.500522 0.500211 -0.213320
C22   C     C_3   0.083089 0.499636 0.505758 0.131555
Cu1   Cu    Cu3+1 0.500020 0.500020 0.638630 0.934307
Cu2   Cu    Cu3+1 0.499980 0.499980 0.361370 0.927424
H1    H     H_    0.935830 0.405026 0.699961 0.142033
H2    H     H_    0.923766 0.626252 0.325037 0.141292
H3    H     H_    0.468068 0.908157 0.581530 0.120563
H4    H     H_    0.519463 0.117696 0.291106 0.163453
H5    H     H_    0.515567 0.090672 0.605639 0.147965
H6    H     H_    0.504867 0.313275 0.126189 0.154157
H7    H     H_    0.074572 0.433063 0.716607 0.126985
H8    H     H_    0.472718 0.576179 0.111593 0.210028
H9    H     H_    0.081995 0.354538 0.352028 0.204112
H10   H     H_    0.067284 0.301316 0.522009 0.158444
H11   H     H_    0.062942 0.576911 0.303412 0.094286
H12   H     H_    0.936812 0.696696 0.486062 0.195172
N1    N     N_2   0.499090 0.498660 0.846910 -0.129429
N2    N     N_2   0.499070 0.498630 0.153040 -0.301646
O1    O     O_R   0.500010 0.321960 0.617040 -0.580294
O2    O     O_R   0.499990 0.321920 0.382900 -0.582272
O3    O     O_R   0.379450 0.500030 0.617120 -0.576002
O4    O     O_R   0.379420 0.499980 0.382980 -0.569101
O5    O     O_R   0.500010 0.678080 0.617100 -0.585597
O6    O     O_R   0.499990 0.678040 0.382960 -0.570695
O7    O     O_R   0.620580 0.500020 0.617020 -0.580561
O8    O     O_R   0.620550 0.499970 0.382880 -0.569317
C23   C     C_3   0.082928 0.627133 0.729003 -0.735499
H13   H     H_    0.052875 0.711640 0.689613 0.269385
H14   H     H_    0.071108 0.619354 0.840854 0.199189
H15   H     H_    0.152071 0.637185 0.716719 0.235881
C24   C     C_3   0.903488 0.585377 0.750012 -0.844993
H16   H     H_    0.907532 0.681513 0.712747 0.239226
H17   H     H_    0.835996 0.559106 0.758881 0.241335
H18   H     H_    0.929455 0.579835 0.855440 0.227375
C25   C     C_3   0.574222 0.884285 0.267600 -0.812736
H19   H     H_    0.603472 0.957709 0.203060 0.204465
H20   H     H_    0.625463 0.822796 0.302292 0.228956
H21   H     H_    0.528858 0.833676 0.202100 0.237968
C26   C     C_3   0.421725 0.304753 0.876756 -0.818738
H22   H     H_    0.376624 0.273464 0.957118 0.190762
H23   H     H_    0.383556 0.332255 0.786906 0.264386
H24   H     H_    0.462736 0.226747 0.851377 0.218697
C27   C     C_3   0.559995 0.589731 0.894947 -0.530667
H25   H     H_    0.597391 0.626779 0.808481 0.232977
H26   H     H_    0.527205 0.669833 0.937280 0.153158
H27   H     H_    0.606781 0.550537 0.967510 0.170870
C28   C     C_3   0.913147 0.256412 0.479162 -0.905790
H28   H     H_    0.929010 0.181482 0.408235 0.247060
H29   H     H_    0.938065 0.230856 0.581796 0.197773
H30   H     H_    0.843774 0.259401 0.489720 0.214095
O9    O     O_3   0.942390 0.389417 0.278461 -0.617529
C29   C     C_3   0.858888 0.389934 0.226977 0.079051
H31   H     H_    0.833415 0.483892 0.231293 0.152848
H32   H     H_    0.815869 0.325768 0.282079 0.153058
C30   C     C_3   0.860687 0.352437 0.076712 -0.348023
H33   H     H_    0.907230 0.410507 0.020194 0.222915
H34   H     H_    0.880718 0.255558 0.070101 0.217474
C31   C     C_3   0.774527 0.366171 0.008946 -0.921091
H35   H     H_    0.726777 0.308439 0.063155 0.256867
H36   H     H_    0.778018 0.336915 0.900607 0.259158
H37   H     H_    0.754764 0.463320 0.010501 0.253303
O10   O     O_3   0.089046 0.717716 0.443438 -0.609409
C32   C     C_3   0.102212 0.791812 0.325142 0.032741
H38   H     H_    0.100528 0.888923 0.357170 0.169584
H39   H     H_    0.051511 0.780525 0.246875 0.121095
C33   C     C_3   0.188978 0.766833 0.263759 -0.335377
H40   H     H_    0.238316 0.782983 0.342650 0.229767
H41   H     H_    0.192515 0.669813 0.231871 0.209628
C34   C     C_3   0.206546 0.849472 0.139533 -0.919983
H42   H     H_    0.158893 0.832866 0.058187 0.253694
H43   H     H_    0.269835 0.829422 0.097950 0.258035
H44   H     H_    0.205128 0.947236 0.169165 0.254888

loop_
_geom_bond_atom_site_label_1
_geom_bond_atom_site_label_2
_ccdc_geom_bond_type
C10   H3    S    
C25   H19   S    
C4    H12   S    
Cu1   O7    S    
C2    C18   S    
Cu2   O4    S    
C20   C28   S    
C19   C20   S    
C3    C6    S    
C18   C23   S    
C27   H26   S    
C7    C8    T    
C23   H14   S    
C14   C26   S    
C13   H5    S    
C17   O7    A    
C31   H36   S    
Cu1   O5    S    
C12   O4    A    
C1    O2    A    
C5    C22   S    
C32   H38   S    
Cu2   N2    S    
Cu1   Cu2   S    
C20   O9    S    
C9    C25   S    
H8    N2    S    
C34   H43   S    
C9    C10   D    
C16   O6    A    
C27   H27   S    
C26   H22   S    
C29   C30   S    
N1    C27   S    
C23   H15   S    
C26   H23   S    
C24   H16   S    
C19   C22   S    
C17   O8    A    
C29   H32   S    
C19   H9    S    
C31   H35   S    
C29   H31   S    
Cu1   N1    S    
C6    C21   T    
C33   C34   S    
C17   C21   S    
C28   H28   S    
C24   H17   S    
C30   H33   S    
C15   N2    D    
C12   O3    A    
C9    C11   S    
C23   H13   S    
C8    C12   S    
C3    C20   S    
C34   H44   S    
C30   H34   S    
C16   O5    A    
C32   H39   S    
C25   H20   S    
Cu2   O6    S    
C1    C13   S    
C3    C4    S    
C33   H40   S    
C15   H6    S    
C26   H24   S    
C18   C22   S    
C4    C5    S    
C19   H10   S    
C4    H2    S    
C7    C22   S    
Cu1   O3    S    
C28   H30   S    
Cu2   O8    S    
C24   H18   S    
C2    C3    S    
O9    C29   S    
C10   C16   S    
C14   N1    D    
C5    O10   S    
C11   C13   D    
C31   H37   S    
C11   H4    S    
Cu1   O1    S    
C5    H11   S    
Cu2   O2    S    
C2    H1    S    
C33   H41   S    
C30   C31   S    
C2    C24   S    
C1    O1    A    
C27   H25   S    
C32   C33   S    
O10   C32   S    
C25   H21   S    
C14   C15   S    
C18   H7    S    
C28   H29   S    
C34   H42   S    
