data_mof_unit_55204.cif
_audit_creation_date              2012-12-10T18:35:02-0500
_audit_creation_method            fapswitch 2.2
_symmetry_space_group_name_H-M    P1
_symmetry_Int_Tables_number       1
_space_group_crystal_system       triclinic
_cell_length_a                    15.170509
_cell_length_b                    13.841475
_cell_length_c                    10.852242
_cell_angle_alpha                 89.744682
_cell_angle_beta                  91.121149
_cell_angle_gamma                 90.163004
_cell_volume                      2278.31033674

loop_
_atom_site_label
_atom_site_type_symbol
_atom_type_description
_atom_site_fract_x
_atom_site_fract_y
_atom_site_fract_z
_atom_type_partial_charge
C1    C     C_R   0.329621 0.500096 0.502647 0.924427
C2    C     C_R   0.670173 0.500312 0.499298 0.941783
C3    C     C_R   0.232541 0.501275 0.507377 -0.363169
C4    C     C_R   0.766875 0.501647 0.499451 -0.361791
C5    C     C_R   0.186183 0.421572 0.556967 0.255695
C6    C     C_R   0.813296 0.427777 0.439332 0.251850
C7    C     C_R   0.093689 0.424144 0.560903 0.343528
C8    C     C_R   0.905728 0.430342 0.438922 0.346077
C9    C     C_R   0.047794 0.502741 0.508532 -0.138232
C10   C     C_R   0.951324 0.502244 0.505946 -0.139828
C11   C     C_R   0.556673 0.107897 0.579250 -0.420367
C12   C     C_R   0.445152 0.107892 0.419210 -0.418718
C13   C     C_R   0.555068 0.210765 0.580723 0.579045
C14   C     C_R   0.446303 0.210728 0.417782 0.576963
C15   C     C_R   0.500922 0.055130 0.499308 0.057337
C16   C     C_R   0.473552 0.892344 0.394804 -0.305367
C17   C     C_R   0.527521 0.891894 0.604558 -0.298814
C18   C     C_R   0.471659 0.790975 0.398120 0.055636
C19   C     C_R   0.528334 0.790513 0.601884 0.049520
C20   C     C_R   0.500783 0.945536 0.499522 0.196999
C21   C     C_R   0.506860 0.500796 0.262325 0.805691
C22   C     C_R   0.493315 0.500310 0.737622 0.803953
C23   C     C_R   0.535747 0.682479 0.113071 -0.168168
C24   C     C_R   0.452381 0.678372 0.883346 -0.170892
C25   C     C_R   0.514002 0.768779 0.053312 -0.160654
C26   C     C_R   0.468101 0.766547 0.941363 -0.159842
C27   C     C_R   0.482940 0.590862 0.937133 0.107980
C28   C     C_R   0.511210 0.592311 0.061272 0.108986
C29   C     C_R   0.513204 0.503627 0.127815 -0.113908
C30   C     C_R   0.487557 0.502271 0.872021 -0.112707
C31   C     C_R   0.508936 0.416044 0.063904 -0.220603
C32   C     C_R   0.499641 0.415551 0.936969 -0.218597
C33   C     C_R   0.093463 0.581846 0.459119 0.339906
C34   C     C_R   0.905204 0.574713 0.567952 0.344095
C35   C     C_R   0.185572 0.583462 0.464366 0.260226
C36   C     C_R   0.813181 0.577479 0.559048 0.259862
Cu1   Cu    Cu3+1 0.500000 0.596430 0.500000 0.948224
Cu2   Cu    Cu3+1 0.500000 0.403570 0.500000 1.038584
H1    H     H_    0.512999 0.347384 0.111998 0.180789
H2    H     H_    0.501588 0.346807 0.889763 0.183703
H3    H     H_    0.453915 0.927817 0.309753 0.124356
H4    H     H_    0.547222 0.927030 0.689497 0.125625
H5    H     H_    0.446950 0.752346 0.318488 0.150538
H6    H     H_    0.551817 0.751511 0.682268 0.152158
H7    H     H_    0.573913 0.687694 0.197817 0.149866
H8    H     H_    0.414789 0.679858 0.797775 0.145668
H9    H     H_    0.530909 0.837298 0.095431 0.127470
H10   H     H_    0.446874 0.833219 0.897660 0.128911
H11   H     H_    0.601853 0.068368 0.638123 0.132554
H12   H     H_    0.399795 0.068408 0.360759 0.133727
N1    N     N_R   0.500000 0.258690 0.500000 -0.237971
N2    N     N_R   0.500000 0.741330 0.500000 -0.179054
O1    O     O_R   0.371460 0.581430 0.500010 -0.572952
O2    O     O_R   0.628540 0.581430 0.499990 -0.580505
O3    O     O_R   0.371470 0.418560 0.500010 -0.523403
O4    O     O_R   0.628530 0.418560 0.499990 -0.528774
O5    O     O_R   0.500000 0.581450 0.319650 -0.617147
O6    O     O_R   0.500000 0.581450 0.680350 -0.615220
O7    O     O_R   0.500010 0.418580 0.319650 -0.541181
O8    O     O_R   0.499990 0.418580 0.680350 -0.540639
O9    O     O_3   0.048753 0.662686 0.415737 -0.523096
C37   C     C_3   0.026663 0.650311 0.289927 0.099394
H13   H     H_    0.971685 0.597679 0.279515 0.105867
H14   H     H_    0.084262 0.625932 0.235909 0.143365
C38   C     C_3   0.994990 0.746156 0.236607 -0.788528
H15   H     H_    0.048792 0.800567 0.241952 0.246520
H16   H     H_    0.937680 0.772633 0.288810 0.239747
H17   H     H_    0.974609 0.736662 0.138580 0.191877
O10   O     O_3   0.949480 0.648967 0.628303 -0.523475
C39   C     C_3   0.971680 0.619518 0.749564 0.102012
H18   H     H_    0.028230 0.568831 0.748591 0.107627
H19   H     H_    0.914795 0.585079 0.796591 0.139412
C40   C     C_3   0.000368 0.707308 0.824051 -0.792322
H20   H     H_    0.944846 0.758919 0.830966 0.246010
H21   H     H_    0.056690 0.743806 0.779166 0.242805
H22   H     H_    0.021232 0.684372 0.918343 0.187773
O11   O     O_3   0.229077 0.663274 0.417438 -0.544133
C41   C     C_3   0.229067 0.738868 0.505196 0.165140
H23   H     H_    0.288063 0.732333 0.566937 0.143772
H24   H     H_    0.169507 0.739672 0.564002 0.149802
C42   C     C_3   0.233222 0.835546 0.438301 -0.786602
H25   H     H_    0.242409 0.894818 0.506035 0.190838
H26   H     H_    0.288922 0.836527 0.373658 0.244776
H27   H     H_    0.170969 0.847858 0.385244 0.250734
O12   O     O_3   0.768589 0.649911 0.619491 -0.546527
C43   C     C_3   0.772203 0.736669 0.549820 0.164079
H28   H     H_    0.715521 0.739256 0.483532 0.147869
H29   H     H_    0.833886 0.745434 0.496450 0.154003
C44   C     C_3   0.765933 0.822442 0.636359 -0.791732
H30   H     H_    0.825943 0.826361 0.696260 0.253059
H31   H     H_    0.760198 0.890427 0.582082 0.189757
H32   H     H_    0.707420 0.815007 0.695419 0.240380
O13   O     O_3   0.231581 0.349035 0.619439 -0.557844
C45   C     C_3   0.226075 0.262079 0.552075 0.141831
H33   H     H_    0.254079 0.271870 0.459391 0.174323
H34   H     H_    0.157277 0.235817 0.540437 0.185169
C46   C     C_3   0.277550 0.184187 0.621427 -0.798029
H35   H     H_    0.246022 0.168814 0.710946 0.238813
H36   H     H_    0.278324 0.116836 0.566232 0.193694
H37   H     H_    0.346349 0.208523 0.639462 0.255997
O14   O     O_3   0.768124 0.361983 0.365586 -0.559859
C47   C     C_3   0.770142 0.269842 0.421968 0.143398
H38   H     H_    0.745756 0.273158 0.517611 0.165905
H39   H     H_    0.837708 0.239171 0.424347 0.184644
C48   C     C_3   0.711249 0.201508 0.347866 -0.804263
H40   H     H_    0.737759 0.192269 0.253987 0.240518
H41   H     H_    0.708696 0.129910 0.394265 0.194355
H42   H     H_    0.643472 0.231160 0.339708 0.256738
O15   O     O_3   0.047969 0.345382 0.606504 -0.544025
C49   C     C_3   0.029140 0.360009 0.731704 0.088500
H43   H     H_    0.973961 0.411919 0.739954 0.112692
H44   H     H_    0.087864 0.386300 0.785332 0.147464
C50   C     C_3   0.999577 0.264582 0.787427 -0.796224
H45   H     H_    0.053649 0.210834 0.783031 0.249362
H46   H     H_    0.981809 0.275210 0.885123 0.193411
H47   H     H_    0.940905 0.236593 0.735965 0.245415
O16   O     O_3   0.951271 0.357749 0.380271 -0.541472
C51   C     C_3   0.973033 0.388345 0.260520 0.091996
H48   H     H_    0.027502 0.442008 0.264949 0.111236
H49   H     H_    0.915116 0.419666 0.209767 0.146907
C52   C     C_3   0.005588 0.301986 0.188504 -0.800954
H50   H     H_    0.952141 0.247400 0.178536 0.249361
H51   H     H_    0.026189 0.325808 0.095589 0.189810
H52   H     H_    0.063067 0.268726 0.237289 0.245567
O17   O     O_3   0.607859 0.267829 0.658469 -0.547146
C53   C     C_3   0.662777 0.216594 0.742258 -0.002381
H53   H     H_    0.709819 0.169937 0.692527 0.131904
H54   H     H_    0.622490 0.173019 0.806817 0.145977
C54   C     C_3   0.717247 0.288650 0.817252 -0.781747
H55   H     H_    0.673302 0.336935 0.869387 0.256944
H56   H     H_    0.761173 0.249504 0.883427 0.200620
H57   H     H_    0.758400 0.333185 0.755107 0.237338
O18   O     O_3   0.393097 0.267533 0.340066 -0.548544
C55   C     C_3   0.347058 0.216752 0.246288 -0.004292
H58   H     H_    0.297890 0.166525 0.286539 0.134168
H59   H     H_    0.393735 0.177143 0.186962 0.145900
C56   C     C_3   0.295902 0.288645 0.166307 -0.783813
H60   H     H_    0.341598 0.341311 0.123986 0.259351
H61   H     H_    0.259381 0.249784 0.091888 0.203010
H62   H     H_    0.247943 0.328427 0.223065 0.234839

loop_
_geom_bond_atom_site_label_1
_geom_bond_atom_site_label_2
_ccdc_geom_bond_type
C4    C36   A    
O13   C45   S    
C23   H7    S    
C40   H20   S    
C24   C27   A    
C42   H27   S    
C55   C56   S    
C42   H25   S    
C18   N2    A    
O11   C41   S    
C56   H61   S    
C53   H53   S    
C6    C8    A    
C28   C29   A    
C24   C26   A    
C21   O7    A    
O10   C39   S    
C22   O8    A    
C47   H39   S    
C41   H24   S    
C17   C20   A    
C47   C48   S    
C6    O14   S    
C1    O1    A    
C51   H48   S    
C52   H52   S    
C37   H14   S    
C46   H36   S    
C49   H43   S    
C11   C15   A    
C19   N2    A    
Cu2   O3    S    
C31   C32   A    
C38   H16   S    
C39   H18   S    
C44   H31   S    
C9    C10   S    
C25   H9    S    
C34   C36   A    
Cu1   O6    S    
C26   H10   S    
C50   H47   S    
Cu1   O1    S    
C23   C25   A    
C13   N1    A    
C27   C30   A    
C9    C33   A    
C40   H21   S    
O9    C37   S    
C39   C40   S    
C42   H26   S    
C8    O16   S    
C46   H35   S    
C51   H49   S    
C48   H42   S    
C15   C20   S    
C56   H62   S    
C47   H38   S    
O14   C47   S    
C4    C6    A    
C2    O2    A    
C5    C7    A    
Cu1   N2    S    
C43   H28   S    
C17   C19   A    
C55   H59   S    
Cu2   N1    S    
C53   C54   S    
C25   C26   A    
O12   C43   S    
C21   C29   S    
C35   O11   S    
C7    O15   S    
C1    C3    S    
C51   C52   S    
C2    C4    S    
C21   O5    A    
Cu1   Cu2   S    
C11   H11   S    
C48   H41   S    
C5    O13   S    
C14   N1    A    
C49   C50   S    
C12   C15   A    
C3    C35   A    
C16   C20   A    
C38   H17   S    
C37   H13   S    
C10   C34   A    
C16   C18   A    
C23   C28   A    
C44   H32   S    
C45   H34   S    
C34   O10   S    
C52   H50   S    
C50   H45   S    
Cu2   O8    S    
Cu1   O2    S    
C33   O9    S    
C12   C14   A    
O18   C55   S    
C40   H22   S    
C17   H4    S    
C46   H37   S    
C19   H6    S    
C54   H55   S    
C48   H40   S    
C7    C9    A    
C53   H54   S    
C22   C30   S    
C37   C38   S    
C41   H23   S    
C3    C5    A    
C43   C44   S    
C22   O6    A    
C12   H12   S    
C55   H58   S    
C14   O18   S    
C36   O12   S    
C56   H60   S    
C45   C46   S    
C24   H8    S    
C54   H57   S    
C1    O3    A    
C13   O17   S    
C29   C31   A    
C2    O4    A    
O16   C51   S    
C30   C32   A    
C11   C13   A    
C41   C42   S    
O17   C53   S    
C33   C35   A    
C31   H1    S    
C43   H29   S    
C32   H2    S    
C45   H33   S    
C49   H44   S    
C52   H51   S    
Cu2   O7    S    
Cu2   O4    S    
C8    C10   A    
C38   H15   S    
C18   H5    S    
C27   C28   A    
C39   H19   S    
C50   H46   S    
C44   H30   S    
O15   C49   S    
C16   H3    S    
Cu1   O5    S    
C54   H56   S    
