data_mof_unit_37143.cif
_audit_creation_date              2012-12-10T17:03:42-0500
_audit_creation_method            fapswitch 2.2
_symmetry_space_group_name_H-M    P1
_symmetry_Int_Tables_number       1
_space_group_crystal_system       triclinic
_cell_length_a                    10.056054
_cell_length_b                    10.713738
_cell_length_c                    13.125762
_cell_angle_alpha                 90.52409
_cell_angle_beta                  70.022026
_cell_angle_gamma                 90.963384
_cell_volume                      1328.84843371

loop_
_atom_site_label
_atom_site_type_symbol
_atom_type_description
_atom_site_fract_x
_atom_site_fract_y
_atom_site_fract_z
_atom_type_partial_charge
C1    C     C_R   0.501113 0.737438 0.500398 0.979073
C2    C     C_R   0.433994 0.487272 0.984024 0.086117
C3    C     C_R   0.456936 0.446246 0.877210 0.089685
C4    C     C_R   0.540198 0.464869 0.029491 0.073574
C5    C     C_R   0.655337 0.385947 0.975528 0.165418
C6    C     C_R   0.665545 0.332837 0.876014 -0.248801
C7    C     C_R   0.567700 0.362572 0.827256 -0.194516
C8    C     C_R   0.535295 0.519259 0.127319 -0.270434
C9    C     C_R   0.740626 0.404451 0.126679 -0.197670
C10   C     C_R   0.369736 0.491946 0.822109 -0.111925
C11   C     C_2   0.597321 0.069313 0.529375 -0.249697
C12   C     C_R   0.421119 0.495138 0.704037 0.853587
C13   C     C_2   0.486217 0.131955 0.524191 -0.434929
C14   C     C_2   0.591529 0.935074 0.537166 0.671730
C15   C     C_2   0.505954 0.869776 0.496962 -0.484520
C16   C     C_2   0.094222 0.416328 0.449750 -0.001254
C17   C     C_2   0.949825 0.426182 0.439957 -0.191598
C18   C     C_R   0.496829 0.262778 0.505091 0.971339
C19   C     C_R   0.578762 0.499272 0.295993 0.861165
C20   C     C_R   0.756841 0.358969 0.023392 -0.201238
C21   C     C_R   0.626376 0.481300 0.179644 -0.048216
C22   C     C_R   0.243676 0.552740 0.879424 -0.184301
C23   C     C_R   0.209931 0.577133 0.989292 -0.138357
C24   C     C_R   0.305618 0.548517 0.040849 -0.201308
H1    H     H_    0.811827 0.374083 0.167241 0.153060
H2    H     H_    0.383886 0.087789 0.537648 0.163799
H3    H     H_    0.439423 0.913002 0.457834 0.111426
H4    H     H_    0.091307 0.577886 0.527917 0.161538
H5    H     H_    0.923863 0.364392 0.383217 0.164499
H6    H     H_    0.873120 0.549699 0.558563 0.186762
H7    H     H_    0.750288 0.269511 0.835102 0.153538
H8    H     H_    0.844365 0.298014 0.983326 0.141907
H9    H     H_    0.455746 0.586352 0.168308 0.143880
H10   H     H_    0.174178 0.585969 0.838426 0.160371
H11   H     H_    0.274603 0.572811 0.125553 0.126420
H12   H     H_    0.112319 0.623774 0.033573 0.148995
H13   H     H_    0.578591 0.318124 0.750497 0.168630
H14   H     H_    0.695532 0.116089 0.525854 0.194355
N1    N     N_2   0.148270 0.498670 0.498870 -0.210947
N2    N     N_2   0.852610 0.498640 0.498840 -0.185588
O1    O     O_R   0.386950 0.680940 0.500020 -0.630046
O2    O     O_R   0.613110 0.680900 0.499980 -0.534425
O3    O     O_R   0.330780 0.500000 0.653640 -0.616414
O4    O     O_R   0.556930 0.499960 0.653610 -0.599257
O5    O     O_R   0.386890 0.319100 0.500020 -0.602214
O6    O     O_R   0.613050 0.319060 0.499980 -0.624214
O7    O     O_R   0.443070 0.500040 0.346390 -0.613516
O8    O     O_R   0.669220 0.500000 0.346360 -0.616304
Zn1   Zn    Zn3+2 0.349000 0.500030 0.500020 0.939179
Zn2   Zn    Zn3+2 0.651000 0.499970 0.499980 0.973150
F1    F     F_    0.678832 0.878777 0.581851 -0.654990
C25   C     C_R   0.175552 0.306328 0.397086 0.204270
C26   C     C_R   0.151968 0.191467 0.451443 -0.136657
C27   C     C_R   0.222229 0.084879 0.399048 -0.160471
C28   C     C_R   0.315745 0.092355 0.292241 -0.119697
C29   C     C_R   0.336513 0.205798 0.236797 -0.147155
C30   C     C_R   0.264688 0.311953 0.288507 -0.115654
H15   H     H_    0.079496 0.184648 0.534115 0.127841
H16   H     H_    0.204478 0.996588 0.441378 0.141085
H17   H     H_    0.370776 0.009981 0.252101 0.133162
H18   H     H_    0.406940 0.211203 0.153462 0.146393
H19   H     H_    0.277582 0.398261 0.244044 0.130365

loop_
_geom_bond_atom_site_label_1
_geom_bond_atom_site_label_2
_ccdc_geom_bond_type
C11   H14   S    
C2    C4    A    
C28   C29   A    
C6    C7    A    
C1    C15   S    
C26   H15   S    
O5    Zn1   S    
C17   H5    S    
O6    Zn2   S    
C9    C20   A    
C15   H3    S    
C14   F1    S    
C14   C15   D    
C4    C8    A    
C23   C24   A    
C28   H17   S    
O8    Zn2   S    
C6    H7    S    
C7    H13   S    
H6    N2    S    
C30   H19   S    
O7    Zn1   S    
C3    C10   A    
C26   C27   A    
C10   C22   A    
C11   C13   D    
C9    C21   A    
C16   C17   S    
C10   C12   S    
C13   C18   S    
O2    Zn2   S    
N2    Zn2   S    
C18   O6    A    
C1    O1    A    
N1    Zn1   S    
C2    C3    A    
C12   O3    A    
C3    C7    A    
C8    H9    S    
C22   C23   A    
C2    C24   A    
C5    C6    A    
C22   H10   S    
C11   C14   S    
C19   O7    A    
C13   H2    S    
C24   H11   S    
C25   C30   A    
C16   N1    D    
C9    H1    S    
C18   O5    A    
C1    O2    A    
C29   C30   A    
C27   H16   S    
C12   O4    A    
C23   H12   S    
C20   H8    S    
O1    Zn1   S    
C5    C20   A    
C29   H18   S    
O3    Zn1   S    
O4    Zn2   S    
C19   O8    A    
H4    N1    S    
C19   C21   S    
C27   C28   A    
C16   C25   S    
C25   C26   A    
C4    C5    A    
C17   N2    D    
C8    C21   A    
