data_mof_unit_5951.cif
_audit_creation_date              2012-12-10T17:08:47-0500
_audit_creation_method            fapswitch 2.2
_symmetry_space_group_name_H-M    P1
_symmetry_Int_Tables_number       1
_space_group_crystal_system       triclinic
_cell_length_a                    27.734993
_cell_length_b                    10.945637
_cell_length_c                    9.914254
_cell_angle_alpha                 110.357897
_cell_angle_beta                  99.386944
_cell_angle_gamma                 91.098293
_cell_volume                      2774.57119014

loop_
_atom_site_label
_atom_site_type_symbol
_atom_type_description
_atom_site_fract_x
_atom_site_fract_y
_atom_site_fract_z
_atom_type_partial_charge
C1    C     C_R   0.498532 0.253839 0.442092 0.766071
C2    C     C_R   0.504367 0.746384 0.558317 0.756460
C3    C     C_R   0.102943 0.509228 0.528994 -0.213274
C4    C     C_R   0.898453 0.477972 0.514173 -0.182181
C5    C     C_R   0.127728 0.395273 0.480312 -0.150869
C6    C     C_R   0.873474 0.593028 0.542697 -0.172869
C7    C     C_R   0.102071 0.271602 0.440315 0.356306
C8    C     C_R   0.899418 0.713603 0.569884 0.430476
C9    C     C_R   0.128783 0.633490 0.572921 -0.114334
C10   C     C_R   0.871981 0.356629 0.479913 -0.177665
C11   C     C_R   0.354330 0.514033 0.502542 -0.298023
C12   C     C_R   0.644894 0.486469 0.496796 -0.266031
C13   C     C_R   0.975177 0.369757 0.499857 0.014283
C14   C     C_R   0.027758 0.614891 0.578291 0.011855
C15   C     C_R   0.975830 0.606600 0.552954 -0.060401
C16   C     C_R   0.025753 0.375277 0.486660 0.013227
C17   C     C_R   0.949890 0.484641 0.522079 -0.067146
C18   C     C_R   0.052140 0.499472 0.531872 -0.066057
C19   C     C_R   0.949748 0.256412 0.501239 0.449041
C20   C     C_R   0.056209 0.734598 0.655601 0.296431
C21   C     C_R   0.897975 0.247111 0.482922 0.296249
C22   C     C_R   0.105537 0.746680 0.639900 0.306900
C23   C     C_R   0.407457 0.503056 0.500491 0.909482
C24   C     C_R   0.592294 0.497107 0.499618 0.942114
C25   C     C_R   0.050431 0.261852 0.425729 0.356982
C26   C     C_R   0.948737 0.716355 0.556001 0.362317
C27   C     C_2   0.502126 0.113226 0.414724 0.172217
C28   C     C_2   0.508514 0.888109 0.588269 0.173779
C29   C     C_2   0.527519 0.074902 0.519742 0.361338
C30   C     C_2   0.527349 0.934152 0.496353 0.315362
C31   C     C_2   0.508659 0.493956 0.074368 0.516576
C32   C     C_2   0.499521 0.476409 0.913185 0.673201
C33   C     C_R   0.177489 0.408200 0.469793 0.607610
C34   C     C_R   0.822720 0.583361 0.540211 0.659583
C35   C     C_R   0.177869 0.640328 0.553212 0.634380
C36   C     C_R   0.820252 0.350952 0.449906 0.640356
C37   C     C_R   0.287769 0.598731 0.634459 0.312781
C38   C     C_R   0.722135 0.400200 0.560222 0.318161
C39   C     C_R   0.338479 0.591211 0.632301 0.260867
C40   C     C_R   0.671394 0.407194 0.562772 0.207313
C41   C     C_R   0.319422 0.451088 0.373925 0.274302
C42   C     C_R   0.668126 0.552880 0.423640 0.238121
C43   C     C_R   0.269733 0.472367 0.372868 0.349683
C44   C     C_R   0.715978 0.525306 0.397700 0.321686
C45   C     C_R   0.253370 0.537082 0.504565 0.031512
C46   C     C_R   0.744236 0.458519 0.476703 0.084851
Cu1   Cu    Cu3+1 0.508480 0.521810 0.644910 1.072453
Cu2   Cu    Cu3+1 0.491520 0.478190 0.355090 1.021767
N1    N     N_R   0.201588 0.529047 0.508041 -0.442274
N2    N     N_R   0.796779 0.463647 0.486505 -0.420874
N3    N     N_2   0.478780 0.445430 0.137360 -0.094743
N4    N     N_2   0.521220 0.554570 0.862640 -0.040433
O1    O     O_R   0.504520 0.332330 0.577400 -0.483188
O2    O     O_R   0.495480 0.667670 0.422600 -0.555739
O3    O     O_R   0.490210 0.295500 0.332650 -0.619142
O4    O     O_R   0.509790 0.704500 0.667350 -0.607417
O5    O     O_R   0.437420 0.518430 0.622370 -0.500081
O6    O     O_R   0.562580 0.481570 0.377630 -0.562287
O7    O     O_R   0.423110 0.481600 0.377610 -0.565590
O8    O     O_R   0.576890 0.518400 0.622390 -0.562785
O9    O     O_2   0.201626 0.300738 0.418143 -0.502485
O10   O     O_2   0.799197 0.692370 0.590690 -0.520971
O11   O     O_2   0.793636 0.234739 0.383364 -0.486063
O12   O     O_2   0.201755 0.756544 0.577328 -0.475680
O13   O     O_3   0.334203 0.373656 0.246454 -0.574392
C47   C     C_3   0.321861 0.239822 0.219296 0.102188
H1    H     H_    0.320391 0.185569 0.100701 0.173271
H2    H     H_    0.284942 0.220941 0.242172 0.193102
C48   C     C_3   0.360964 0.185259 0.305993 -0.411604
H3    H     H_    0.397252 0.204187 0.280930 0.230304
H4    H     H_    0.362015 0.235044 0.425158 0.217722
C49   C     C_3   0.350697 0.038589 0.267598 -0.852941
H5    H     H_    0.314485 0.017610 0.292466 0.259117
H6    H     H_    0.379409 0.002940 0.333510 0.287776
H7    H     H_    0.351157 0.985516 0.149850 0.262078
O14   O     O_3   0.643209 0.642996 0.375587 -0.568316
C50   C     C_3   0.664266 0.771545 0.459889 0.129439
H8    H     H_    0.649697 0.836364 0.400767 0.179325
H9    H     H_    0.704824 0.781004 0.469782 0.191565
C51   C     C_3   0.650391 0.820232 0.612510 -0.395320
H10   H     H_    0.610117 0.805111 0.602198 0.225437
H11   H     H_    0.668187 0.763799 0.678113 0.206573
C52   C     C_3   0.666718 0.964982 0.693366 -0.880367
H12   H     H_    0.707237 0.981286 0.709245 0.268780
H13   H     H_    0.655575 0.997895 0.802235 0.259437
H14   H     H_    0.649372 0.024158 0.630555 0.259759
O15   O     O_3   0.492517 0.974638 0.708475 -0.741196
H15   H     H_    0.477732 0.923893 0.759198 0.351946
O16   O     O_3   0.479485 0.019405 0.283599 -0.730950
H16   H     H_    0.462602 0.063598 0.219675 0.341360
O17   O     O_3   0.470065 0.370174 0.813159 -0.685300
H17   H     H_    0.471909 0.298146 0.852196 0.344433
O18   O     O_3   0.553099 0.557496 0.152595 -0.681030
H18   H     H_    0.546698 0.619479 0.245528 0.413053
O19   O     O_3   0.545326 0.665918 0.959709 -0.630038
H19   H     H_    0.558933 0.709553 0.900382 0.361467
O20   O     O_3   0.434124 0.396405 0.058293 -0.652992
H20   H     H_    0.417891 0.360358 0.119491 0.393128
O21   O     O_3   0.236341 0.419285 0.243396 -0.547540
C53   C     C_3   0.219651 0.519714 0.192509 0.112692
H21   H     H_    0.236127 0.511254 0.095238 0.149867
H22   H     H_    0.230367 0.621205 0.272716 0.105831
C54   C     C_3   0.163551 0.504544 0.150523 -0.347479
H23   H     H_    0.146953 0.503499 0.244471 0.219965
H24   H     H_    0.150656 0.589967 0.123178 0.173228
C55   C     C_3   0.145222 0.379911 0.020282 -0.767957
H25   H     H_    0.160275 0.381020 0.923634 0.227459
H26   H     H_    0.104582 0.373501 0.993064 0.235643
H27   H     H_    0.156331 0.292881 0.047031 0.292626
O22   O     O_3   0.738252 0.578988 0.313139 -0.575576
C56   C     C_3   0.712371 0.535913 0.167015 0.100618
H28   H     H_    0.673246 0.500820 0.153181 0.192112
H29   H     H_    0.730309 0.452260 0.099729 0.119853
C57   C     C_3   0.714847 0.647979 0.108698 -0.324224
H30   H     H_    0.708268 0.740877 0.193352 0.245450
H31   H     H_    0.752054 0.659381 0.084487 0.214518
C58   C     C_3   0.676552 0.624509 0.971084 -0.866852
H32   H     H_    0.680314 0.529776 0.885834 0.264126
H33   H     H_    0.681222 0.703901 0.927565 0.245401
H34   H     H_    0.639208 0.623568 0.997288 0.311473
O23   O     O_3   0.126803 0.158796 0.406076 -0.579811
C59   C     C_3   0.134640 0.116051 0.527248 0.084767
H35   H     H_    0.136508 0.008364 0.483528 0.193387
H36   H     H_    0.103883 0.134209 0.589938 0.135569
C60   C     C_3   0.183502 0.178342 0.629660 -0.355726
H37   H     H_    0.213797 0.158671 0.566234 0.270914
H38   H     H_    0.181695 0.285633 0.678994 0.193098
C61   C     C_3   0.195725 0.124608 0.752710 -0.836770
H39   H     H_    0.164382 0.129741 0.810512 0.261634
H40   H     H_    0.227975 0.183328 0.832677 0.253992
H41   H     H_    0.205132 0.021959 0.708027 0.329881
O24   O     O_3   0.875124 0.826636 0.592843 -0.531994
C62   C     C_3   0.892342 0.915484 0.736976 0.167370
H42   H     H_    0.924158 0.978782 0.736774 0.196049
H43   H     H_    0.903765 0.865311 0.816546 0.115061
C63   C     C_3   0.851435 0.001315 0.789889 -0.341106
H44   H     H_    0.838515 0.050780 0.711688 0.231838
H45   H     H_    0.820012 0.939068 0.794156 0.253820
C64   C     C_3   0.868929 0.104152 0.941825 -0.902988
H46   H     H_    0.882364 0.056617 0.021681 0.284467
H47   H     H_    0.838017 0.161988 0.978952 0.269069
H48   H     H_    0.898867 0.171584 0.938920 0.260004
O25   O     O_3   0.646897 0.338869 0.628667 -0.693621
H49   H     H_    0.669128 0.280373 0.660249 0.353768
O26   O     O_3   0.373314 0.659142 0.754454 -0.675275
H50   H     H_    0.357245 0.707565 0.837252 0.363790
O27   O     O_3   0.750315 0.332962 0.635033 -0.585143
C65   C     C_3   0.767253 0.415789 0.781832 0.037449
H51   H     H_    0.744371 0.389942 0.851429 0.155274
H52   H     H_    0.765698 0.522446 0.800866 0.141007
C66   C     C_3   0.820417 0.391767 0.828802 -0.347512
H53   H     H_    0.823410 0.285449 0.803207 0.231951
H54   H     H_    0.844225 0.425635 0.766826 0.209851
C67   C     C_3   0.838570 0.463978 0.992180 -0.878414
H55   H     H_    0.836081 0.570860 0.020254 0.264006
H56   H     H_    0.877457 0.445878 0.021499 0.261055
H57   H     H_    0.816534 0.428438 0.057126 0.260012
O28   O     O_3   0.272382 0.680737 0.758314 -0.553258
C68   C     C_3   0.254207 0.607418 0.834259 0.078723
H58   H     H_    0.285140 0.584485 0.905940 0.156207
H59   H     H_    0.233809 0.512985 0.760402 0.087399
C69   C     C_3   0.218750 0.688100 0.926104 -0.333497
H60   H     H_    0.193079 0.730124 0.859133 0.263784
H61   H     H_    0.196227 0.623665 0.960199 0.151599
C70   C     C_3   0.245647 0.799172 0.060685 -0.776442
H62   H     H_    0.271437 0.760056 0.130732 0.228648
H63   H     H_    0.218688 0.853295 0.125601 0.244994
H64   H     H_    0.266291 0.868134 0.026813 0.283381
O29   O     O_3   0.874415 0.133443 0.479138 -0.687606
H65   H     H_    0.848634 0.158077 0.539826 0.349524
O30   O     O_3   0.131518 0.867424 0.692566 -0.720401
H66   H     H_    0.108188 0.934666 0.691466 0.322129
O31   O     O_3   0.976613 0.164410 0.539878 -0.688036
H67   H     H_    0.954668 0.093856 0.543742 0.390474
O32   O     O_3   0.035925 0.834991 0.752681 -0.713545
H68   H     H_    0.062426 0.891946 0.829864 0.337613
O33   O     O_3   0.023331 0.145161 0.340354 -0.682337
H69   H     H_    0.045126 0.078685 0.294093 0.354383
O34   O     O_3   0.967747 0.823877 0.533645 -0.677591
H70   H     H_    0.993254 0.795469 0.472461 0.331070
O35   O     O_3   0.545933 0.850814 0.379977 -0.730685
H71   H     H_    0.561030 0.903774 0.332108 0.351559
O36   O     O_3   0.553335 0.165578 0.648424 -0.690029
H72   H     H_    0.571221 0.118045 0.707201 0.335676

loop_
_geom_bond_atom_site_label_1
_geom_bond_atom_site_label_2
_ccdc_geom_bond_type
N3    O20   S    
Cu2   O3    S    
C47   H2    S    
O30   H66   S    
O18   H18   S    
C37   C45   A    
C27   C29   D    
C8    C26   A    
O29   H65   S    
C14   C18   A    
O19   H19   S    
C65   C66   S    
O15   H15   S    
C33   O9    S    
C61   H39   S    
O20   H20   S    
C56   H29   S    
O31   H67   S    
C23   O7    A    
C70   H62   S    
C3    C18   A    
C52   H12   S    
C19   C21   A    
C43   O21   S    
C51   C52   S    
C68   H58   S    
C64   H48   S    
C25   O33   S    
C9    C22   A    
C32   O17   S    
C55   H25   S    
C33   N1    A    
O25   H49   S    
C34   O10   S    
N4    O19   S    
C23   O5    A    
C66   C67   S    
C11   C23   S    
C48   H4    S    
C1    O1    A    
O22   C56   S    
C32   N4    D    
C12   C42   A    
O27   C65   S    
Cu1   O8    S    
Cu2   N3    S    
Cu1   Cu2   S    
O24   C62   S    
C5    C33   A    
C8    O24   S    
C62   C63   S    
C66   H53   S    
C68   H59   S    
C11   C41   A    
C35   O12   S    
C56   C57   S    
C36   O11   S    
C67   H56   S    
C22   O30   S    
C50   H8    S    
Cu1   O1    S    
C1    C27   S    
C47   H1    S    
C70   H63   S    
C41   C43   A    
C42   C44   A    
C47   C48   S    
C7    O23   S    
C49   H7    S    
C44   C46   A    
O26   H50   S    
C69   H61   S    
C59   H35   S    
C50   H9    S    
C10   C21   A    
C34   N2    A    
C13   C19   A    
C14   C20   A    
O14   C50   S    
C67   H57   S    
C49   H6    S    
C2    O2    A    
C58   H34   S    
C31   N3    D    
O17   H17   S    
C5    C7    A    
C49   H5    S    
C15   C26   A    
C6    C8    A    
O35   H71   S    
C53   C54   S    
C6    C34   A    
C63   C64   S    
C37   O28   S    
C12   C40   A    
C48   C49   S    
Cu2   O2    S    
O36   H72   S    
C19   O31   S    
C35   N1    A    
C29   C30   S    
C3    C9    A    
C60   H38   S    
Cu1   O5    S    
C69   C70   S    
C57   H31   S    
O21   C53   S    
C45   N1    S    
C24   O8    A    
C39   O26   S    
C28   O15   S    
C53   H22   S    
C67   H55   S    
C68   C69   S    
Cu2   O7    S    
C54   H24   S    
C26   O34   S    
C65   H51   S    
C11   C39   A    
C43   C45   A    
O23   C59   S    
C2    O4    A    
C4    C17   A    
C51   H11   S    
C52   H13   S    
C20   C22   A    
O33   H69   S    
C70   H64   S    
O28   C68   S    
C60   H37   S    
C30   O35   S    
C40   O25   S    
C4    C6    A    
C4    C10   A    
C61   H41   S    
C36   N2    A    
C63   H45   S    
C9    C35   A    
C69   H60   S    
C50   C51   S    
C16   C25   A    
C15   C17   A    
C12   C24   S    
C29   O36   S    
C56   H28   S    
C31   C32   S    
C65   H52   S    
C51   H10   S    
C3    C5    A    
C61   H40   S    
C41   O13   S    
C64   H46   S    
Cu2   O6    S    
Cu1   N4    S    
C46   N2    S    
C42   O14   S    
C7    C25   A    
C13   C17   A    
C16   C18   A    
C59   C60   S    
C58   H33   S    
C1    O3    A    
C37   C39   A    
O32   H68   S    
C31   O18   S    
C58   H32   S    
C38   C40   A    
C64   H47   S    
C62   H42   S    
C55   H26   S    
C60   C61   S    
C21   O29   S    
C28   C30   D    
C53   H21   S    
C10   C36   A    
C27   O16   S    
C54   C55   S    
C57   H30   S    
C66   H54   S    
C48   H3    S    
C38   O27   S    
C38   C46   A    
C57   C58   S    
O34   H70   S    
C20   O32   S    
C52   H14   S    
C24   O6    A    
O13   C47   S    
C13   C16   A    
C54   H23   S    
C62   H43   S    
C14   C15   A    
C63   H44   S    
C2    C28   S    
O16   H16   S    
C59   H36   S    
Cu1   O4    S    
C55   H27   S    
C44   O22   S    
