data_mof_unit_8140.cif
_audit_creation_date              2012-10-26T20:03:18-0400
_audit_creation_method            fapswitch 2.2
_symmetry_space_group_name_H-M    P1
_symmetry_Int_Tables_number       1
_space_group_crystal_system       triclinic
_cell_length_a                    10.621607
_cell_length_b                    12.311104
_cell_length_c                    13.129298
_cell_angle_alpha                 116.68805
_cell_angle_beta                  78.239677
_cell_angle_gamma                 101.2245
_cell_volume                      1491.26296714

loop_
_atom_site_label
_atom_site_type_symbol
_atom_type_description
_atom_site_fract_x
_atom_site_fract_y
_atom_site_fract_z
_atom_type_partial_charge
C1    C     C_R   0.505814 0.854966 0.286915 0.535551
C2    C     C_R   0.463867 0.567380 0.011239 0.033744
C3    C     C_R   0.440106 0.648915 0.128392 0.012486
C4    C     C_R   0.740113 0.999610 0.500409 0.605146
C5    C     C_R   0.441690 0.439119 0.979554 0.010494
C6    C     C_R   0.370462 0.394503 0.060339 0.023922
C7    C     C_R   0.324952 0.479178 0.170320 -0.142726
C8    C     C_R   0.359717 0.603759 0.203900 -0.130876
C9    C     C_R   0.496105 0.354343 0.872273 0.236044
C10   C     C_R   0.383420 0.185480 0.914679 -0.181932
C11   C     C_R   0.494592 0.773417 0.164843 -0.005588
C12   C     C_3   0.017691 0.988428 0.593687 -0.142793
C13   C     C_R   0.704910 0.344646 0.325450 0.243642
C14   C     C_R   0.325494 0.759204 0.645361 0.046885
C15   C     C_R   0.288531 0.662492 0.676922 -0.168679
C16   C     C_R   0.481705 0.145538 0.713863 0.576309
C17   C     C_R   0.354537 0.559295 0.622146 -0.139123
C18   C     C_R   0.459021 0.551314 0.534299 -0.002094
C19   C     C_R   0.493360 0.652940 0.505010 0.179866
C20   C     C_R   0.530628 0.446969 0.474662 -0.059384
C21   C     C_R   0.633314 0.445628 0.385979 0.039826
C22   C     C_R   0.664850 0.545950 0.359412 -0.162016
C23   C     C_3   0.936539 0.892919 0.498622 -0.191508
C24   C     C_R   0.597639 0.647074 0.418094 -0.120135
C25   C     C_R   0.504900 0.343074 0.498793 0.025991
C26   C     C_R   0.671591 0.244338 0.352628 0.052646
C27   C     C_R   0.259905 0.000403 0.499543 0.535667
C28   C     C_3   0.983431 0.009625 0.407082 0.264909
C29   C     C_3   0.045120 0.904057 0.403594 -0.155869
C30   C     C_3   0.123714 0.001391 0.498848 -0.036190
C31   C     C_3   0.062741 0.106535 0.500585 0.036739
C32   C     C_3   0.956768 0.092471 0.593838 0.270652
C33   C     C_3   0.712835 0.406963 0.845835 -0.094015
C34   C     C_3   0.876460 0.998378 0.500552 0.068144
C35   C     C_3   0.920895 0.337878 0.258467 -0.153691
C36   C     C_3   0.056325 0.989412 0.222227 -0.140416
C37   C     C_3   0.134934 0.227854 0.502339 -0.243341
C38   C     C_3   0.043145 0.311824 0.507490 -0.419148
C39   C     C_3   0.984634 0.236006 0.778148 -0.144480
C40   C     C_3   0.286837 0.212519 0.113750 -0.276884
C41   C     C_3   0.383271 0.231949 0.194130 -0.414669
C42   C     C_R   0.346564 0.266432 0.028671 0.007902
C43   C     C_R   0.455395 0.228904 0.836055 -0.008788
C44   C     C_R   0.544924 0.818863 0.082059 -0.137920
C45   C     C_R   0.544734 0.742213 0.965746 -0.158248
C46   C     C_R   0.505519 0.617536 0.930138 -0.096336
Cu1   Cu    Cu3+1 0.529830 0.098270 0.475420 0.961337
Cu2   Cu    Cu3+1 0.470170 0.901730 0.524580 0.909670
H1    H     H_    0.085506 0.826854 0.326265 0.103949
H2    H     H_    0.321633 0.487465 0.650274 0.093211
H3    H     H_    0.208479 0.667563 0.744195 0.096745
H4    H     H_    0.632121 0.718910 0.391997 0.187005
H5    H     H_    0.035559 0.978938 0.669572 0.108061
H6    H     H_    0.881697 0.806074 0.497864 0.130958
H7    H     H_    0.357776 0.087798 0.887528 0.126095
H8    H     H_    0.263865 0.450802 0.232764 0.107574
H9    H     H_    0.726954 0.323566 0.853136 0.159550
H10   H     H_    0.717624 0.487793 0.930436 0.111035
H11   H     H_    0.793821 0.423363 0.784190 0.157590
H12   H     H_    0.583635 0.914111 0.107100 0.136686
H13   H     H_    0.940251 0.409549 0.345329 0.111057
H14   H     H_    0.996573 0.356976 0.194729 0.137616
H15   H     H_    0.930391 0.245705 0.249775 0.127611
H16   H     H_    0.054954 0.888254 0.178850 0.121270
H17   H     H_    0.152380 0.033567 0.251031 0.111927
H18   H     H_    0.042173 0.019750 0.157975 0.127762
H19   H     H_    0.986125 0.265277 0.434159 0.182890
H20   H     H_    0.975897 0.339268 0.589186 0.189924
H21   H     H_    0.100110 0.395721 0.503009 0.118484
H22   H     H_    0.188233 0.275337 0.578076 0.127956
H23   H     H_    0.504552 0.562448 0.838962 0.173374
H24   H     H_    0.206629 0.208962 0.424014 0.145798
H25   H     H_    0.089026 0.248053 0.744994 0.106933
H26   H     H_    0.968668 0.175019 0.822484 0.130578
H27   H     H_    0.959170 0.327375 0.843034 0.119428
H28   H     H_    0.474529 0.194044 0.143428 0.171348
H29   H     H_    0.405886 0.330610 0.250136 0.163974
H30   H     H_    0.341970 0.183994 0.249629 0.124897
H31   H     H_    0.196075 0.251573 0.163637 0.121255
H32   H     H_    0.258976 0.112267 0.067889 0.125128
H33   H     H_    0.578445 0.778953 0.902632 0.125723
H34   H     H_    0.317730 0.663679 0.288416 0.154275
H35   H     H_    0.721682 0.163828 0.304802 0.150170
H36   H     H_    0.743796 0.547742 0.293060 0.161964
H37   H     H_    0.429591 0.336666 0.565119 0.129372
H38   H     H_    0.273914 0.839036 0.688582 0.121200
N1    N     N_R   0.575030 0.246270 0.438190 -0.268991
N2    N     N_R   0.425760 0.754330 0.561190 -0.234388
O1    O     O_R   0.537510 0.972500 0.318130 -0.507362
O2    O     O_3   0.798719 0.340668 0.233703 -0.588783
O3    O     O_3   0.954201 0.023022 0.313407 -0.574863
O4    O     O_3   0.903786 0.190366 0.691212 -0.581759
O5    O     O_R   0.487140 0.806530 0.359650 -0.531538
O6    O     O_R   0.708330 0.082950 0.479220 -0.457085
O7    O     O_R   0.657960 0.916980 0.520740 -0.533136
O8    O     O_R   0.512860 0.193470 0.640350 -0.443854
O9    O     O_R   0.462490 0.027500 0.681870 -0.519394
O10   O     O_R   0.342040 0.083020 0.479260 -0.527576
O11   O     O_R   0.291670 0.917050 0.520780 -0.511472
O12   O     O_3   0.595313 0.391722 0.804237 -0.570895

loop_
_geom_bond_atom_site_label_1
_geom_bond_atom_site_label_2
_ccdc_geom_bond_type
C24   H4    S    
C27   O10   A    
C26   H35   S    
Cu2   O7    S    
C13   O2    S    
C10   C42   A    
C1    C11   S    
C7    C8    A    
C29   H1    S    
C45   C46   A    
C2    C46   A    
Cu2   O9    S    
C12   C23   S    
C27   O11   A    
C33   H10   S    
Cu1   O10   S    
C8    H34   S    
C23   C29   S    
C28   C29   S    
C37   C38   S    
C41   H29   S    
C30   C31   S    
C36   H18   S    
C16   O9    A    
C20   C25   A    
C25   N1    A    
C18   C19   A    
C39   H26   S    
Cu1   Cu2   S    
C26   N1    A    
C1    O1    A    
Cu1   O8    S    
Cu2   N2    S    
C15   H3    S    
C28   O3    S    
C12   H5    S    
C40   C42   S    
C38   H21   S    
C28   C34   S    
C33   H11   S    
C37   H22   S    
C12   C32   S    
C27   C30   S    
Cu1   O1    S    
C7    H8    S    
C25   H37   S    
C4    C34   S    
C9    C43   A    
C16   O8    A    
Cu2   O5    S    
C14   H38   S    
C19   N2    A    
C41   H30   S    
C36   H17   S    
C31   C37   S    
C32   C34   S    
C5    C9    A    
C29   C30   S    
C4    O7    A    
C31   C32   S    
C23   C34   S    
C40   H32   S    
C17   C18   A    
C40   H31   S    
C13   C21   A    
C11   C44   A    
C35   H13   S    
C38   H19   S    
C10   H7    S    
C16   C43   S    
C46   H23   S    
C4    O6    A    
C36   O3    S    
C40   C41   S    
C38   H20   S    
C3    C8    A    
C9    O12   S    
C39   H27   S    
C22   C24   A    
C13   C26   A    
C2    C5    A    
C39   O4    S    
C44   C45   A    
C23   H6    S    
C15   C17   A    
Cu2   O11   S    
C33   H9    S    
C12   C30   S    
C10   C43   A    
C28   C31   S    
C45   H33   S    
C17   H2    S    
C6    C7    A    
C33   O12   S    
C2    C3    A    
C14   N2    A    
C36   H16   S    
C41   H28   S    
C5    C6    A    
C44   H12   S    
Cu1   O6    S    
C19   C24   A    
C35   H14   S    
C18   C20   A    
C39   H25   S    
C3    C11   A    
C32   O4    S    
C35   O2    S    
C20   C21   A    
C1    O5    A    
C6    C42   A    
C37   H24   S    
C14   C15   A    
C35   H15   S    
C21   C22   A    
C22   H36   S    
Cu1   N1    S    
