data_mof_unit_30121.cif
_audit_creation_date              2012-12-10T17:48:40-0500
_audit_creation_method            fapswitch 2.2
_symmetry_space_group_name_H-M    P1
_symmetry_Int_Tables_number       1
_space_group_crystal_system       triclinic
_cell_length_a                    15.763061
_cell_length_b                    10.64948
_cell_length_c                    10.018162
_cell_angle_alpha                 90.859686
_cell_angle_beta                  90.160725
_cell_angle_gamma                 92.375554
_cell_volume                      1680.08855935

loop_
_atom_site_label
_atom_site_type_symbol
_atom_type_description
_atom_site_fract_x
_atom_site_fract_y
_atom_site_fract_z
_atom_type_partial_charge
C1    C     C_R   0.503343 0.261148 0.499968 0.852576
C2    C     C_3   0.950033 0.441825 0.628626 0.056395
C3    C     C_3   0.917076 0.509894 0.497900 0.020190
C4    C     C_3   0.954053 0.650102 0.499891 -0.205899
C5    C     C_3   0.053701 0.650824 0.501541 -0.107820
C6    C     C_1   0.825189 0.510156 0.498627 -0.052250
C7    C     C_1   0.175544 0.509334 0.496870 -0.073265
C8    C     C_1   0.250498 0.505499 0.498923 -0.182544
C9    C     C_R   0.639875 0.136402 0.635817 -0.282448
C10   C     C_R   0.702577 0.074568 0.706325 -0.056470
C11   C     C_R   0.703935 0.941774 0.698133 0.028837
C12   C     C_R   0.338870 0.500846 0.499873 0.866132
C13   C     C_R   0.641066 0.876053 0.622617 -0.178787
C14   C     C_R   0.572988 0.937941 0.563602 0.070248
C15   C     C_R   0.573796 0.069043 0.566679 0.109206
C16   C     C_R   0.507054 0.128602 0.501901 -0.117331
C17   C     C_R   0.437204 0.061738 0.448701 -0.199417
C18   C     C_R   0.433966 0.932550 0.447615 -0.024006
C19   C     C_R   0.503106 0.871671 0.502726 -0.149515
C20   C     C_R   0.364217 0.364226 0.125879 0.133981
C21   C     C_R   0.294703 0.321743 0.047195 -0.184270
C22   C     C_R   0.300974 0.318155 0.910674 -0.240576
C23   C     C_R   0.500568 0.738892 0.500780 0.841609
C24   C     C_R   0.374343 0.364321 0.851739 -0.128850
C25   C     C_R   0.436318 0.435050 0.924573 0.136085
C26   C     C_R   0.434235 0.435312 0.068491 0.120324
C27   C     C_R   0.562923 0.560018 0.070679 0.014370
C28   C     C_R   0.562278 0.559141 0.928746 -0.174157
C29   C     C_R   0.661241 0.501880 0.500049 0.886305
C30   C     C_3   0.049881 0.438909 0.621489 -0.217386
C31   C     C_3   0.047967 0.439469 0.363144 0.090744
C32   C     C_3   0.948396 0.448136 0.363187 -0.146569
C33   C     C_1   0.749971 0.506952 0.499782 -0.128305
C34   C     C_3   0.083866 0.511060 0.494354 0.099173
H1    H     H_    0.382856 0.111000 0.414659 0.174583
H2    H     H_    0.642619 0.238028 0.637935 0.155086
H3    H     H_    0.644081 0.774989 0.615421 0.187276
H4    H     H_    0.067918 0.339944 0.609269 0.157262
H5    H     H_    0.241224 0.271411 0.091998 0.219728
H6    H     H_    0.252053 0.269507 0.851201 0.170732
H7    H     H_    0.382156 0.338581 0.749710 0.210252
H8    H     H_    0.612784 0.608312 0.875027 0.169960
H9    H     H_    0.932150 0.513994 0.283436 0.231414
H10   H     H_    0.074573 0.694136 0.598197 0.125087
H11   H     H_    0.935069 0.695761 0.594729 0.109587
N1    N     N_R   0.499210 0.498800 0.142780 -0.119122
N2    N     N_R   0.499180 0.498720 0.857170 -0.117461
O1    O     O_R   0.500000 0.316780 0.614690 -0.646097
O2    O     O_R   0.499990 0.316750 0.385360 -0.596616
O3    O     O_R   0.377150 0.500020 0.614720 -0.632936
O4    O     O_R   0.377140 0.499990 0.385380 -0.605775
O5    O     O_R   0.500010 0.683250 0.614640 -0.619925
O6    O     O_R   0.500000 0.683220 0.385310 -0.553520
O7    O     O_R   0.622860 0.500010 0.614620 -0.613421
O8    O     O_R   0.622850 0.499980 0.385280 -0.594271
Zn1   Zn    Zn3+2 0.500010 0.500020 0.653130 0.946060
Zn2   Zn    Zn3+2 0.499990 0.499980 0.346870 0.999909
N3    N     N_3   0.914115 0.312086 0.641189 -0.369745
H12   H     H_    0.850448 0.304760 0.612165 0.195199
H13   H     H_    0.947398 0.244335 0.589632 0.168497
N4    N     N_3   0.091908 0.478968 0.748126 -0.435215
H14   H     H_    0.098606 0.576241 0.758494 0.182732
H15   H     H_    0.152949 0.444156 0.751812 0.211900
C35   C     C_2   0.921857 0.512711 0.754314 0.593633
H16   H     H_    0.953033 0.601225 0.784746 0.044992
O9    O     O_2   0.863711 0.471411 0.823540 -0.551972
C36   C     C_2   0.913809 0.734020 0.397122 0.431896
H17   H     H_    0.860155 0.788698 0.426764 0.097196
O10   O     O_2   0.937870 0.738963 0.281522 -0.564715
C37   C     C_2   0.764030 0.154281 0.786173 0.354312
H18   H     H_    0.748203 0.249536 0.813507 0.128820
O11   O     O_2   0.833637 0.118279 0.817816 -0.559629
C38   C     C_2   0.765983 0.867867 0.772802 0.395102
H19   H     H_    0.797301 0.905708 0.861741 0.149569
O12   O     O_2   0.781433 0.761009 0.737289 -0.611356
C39   C     C_2   0.356614 0.863322 0.394028 0.411544
H20   H     H_    0.347737 0.762705 0.405681 0.057923
O13   O     O_2   0.301166 0.918438 0.336336 -0.574705
C40   C     C_2   0.635920 0.627591 0.134990 0.458679
H21   H     H_    0.699159 0.616400 0.095044 0.061147
O14   O     O_2   0.626404 0.703536 0.225151 -0.534862
N5    N     N_3   0.371953 0.300439 0.247759 -0.371771
H22   H     H_    0.385400 0.207851 0.222105 0.190709
H23   H     H_    0.313501 0.297365 0.297235 0.205905
N6    N     N_3   0.082178 0.496566 0.239447 -0.395870
H24   H     H_    0.148269 0.508977 0.243649 0.219012
H25   H     H_    0.057250 0.583525 0.219854 0.250588
C41   C     C_2   0.073552 0.302203 0.360230 0.489438
H26   H     H_    0.040565 0.232029 0.419903 0.037659
O15   O     O_2   0.131965 0.268105 0.290520 -0.590148
N7    N     N_3   0.902566 0.330698 0.320539 -0.437743
H27   H     H_    0.841962 0.351136 0.286332 0.209206
H28   H     H_    0.893872 0.267690 0.397495 0.177088
N8    N     N_3   0.092808 0.731209 0.398643 -0.390946
H29   H     H_    0.076080 0.823845 0.417561 0.224971
H30   H     H_    0.158782 0.733301 0.409754 0.206857

loop_
_geom_bond_atom_site_label_1
_geom_bond_atom_site_label_2
_ccdc_geom_bond_type
C28   N2    A    
C31   N6    S    
C20   N5    S    
C38   H19   S    
C3    C6    S    
C5    N8    S    
C7    C8    T    
N6    H24   S    
C39   O13   D    
C27   C40   S    
C32   N7    S    
C29   O7    A    
N3    H13   S    
C15   C16   A    
C29   C33   S    
O2    Zn2   S    
C30   H4    S    
C18   C19   A    
N4    H15   S    
C16   C17   A    
C9    H2    S    
C37   H18   S    
O4    Zn2   S    
C9    C10   A    
C25   N2    A    
C13   H3    S    
C41   H26   S    
C21   C22   A    
C24   H7    S    
C38   O12   D    
N4    H14   S    
C2    C35   S    
C23   O6    A    
C4    H11   S    
N6    H25   S    
O7    Zn1   S    
C30   C34   S    
C36   H17   S    
C24   C25   A    
C11   C38   S    
N7    H27   S    
C40   O14   D    
O6    Zn2   S    
C29   O8    A    
N3    H12   S    
O3    Zn1   S    
C36   O10   D    
C35   O9    D    
C19   C23   S    
N7    H28   S    
C31   C32   S    
C21   H5    S    
C8    C12   S    
C22   H6    S    
C5    C34   S    
C17   C18   A    
C31   C34   S    
C3    C32   S    
C1    C16   S    
C39   H20   S    
N8    H30   S    
C10   C37   S    
C27   N1    A    
C5    H10   S    
C41   O15   D    
N5    H23   S    
O8    Zn2   S    
N1    Zn2   S    
C7    C34   S    
C22   C24   A    
C3    C4    S    
C12   O4    A    
O1    Zn1   S    
C18   C39   S    
C31   C41   S    
C14   C19   A    
C4    C5    S    
C4    C36   S    
C12   O3    A    
C2    N3    S    
C1    O1    A    
C6    C33   T    
C2    C30   S    
C35   H16   S    
C2    C3    S    
C25   C26   A    
C11   C13   A    
C23   O5    A    
C20   C26   A    
C28   H8    S    
C32   H9    S    
C9    C15   A    
N8    H29   S    
C10   C11   A    
C26   N1    A    
C40   H21   S    
C20   C21   A    
N5    H22   S    
C30   N4    S    
C27   C28   A    
C14   C15   A    
C37   O11   D    
C17   H1    S    
C13   C14   A    
C1    O2    A    
O5    Zn1   S    
N2    Zn1   S    
