data_mof_unit_67503.cif
_audit_creation_date              2012-10-26T18:48:16-0400
_audit_creation_method            fapswitch 2.2
_symmetry_space_group_name_H-M    P1
_symmetry_Int_Tables_number       1
_space_group_crystal_system       triclinic
_cell_length_a                    10.730312
_cell_length_b                    8.650614
_cell_length_c                    7.64894
_cell_angle_alpha                 101.905695
_cell_angle_beta                  94.502577
_cell_angle_gamma                 97.334747
_cell_volume                      685.01290321

loop_
_atom_site_label
_atom_site_type_symbol
_atom_type_description
_atom_site_fract_x
_atom_site_fract_y
_atom_site_fract_z
_atom_type_partial_charge
C1    C     C_R   0.492037 0.200435 0.455109 0.521542
C2    C     C_3   0.121800 0.486552 0.506923 -0.018715
C3    C     C_3   0.973923 0.578913 0.660228 -0.119834
C4    C     C_3   0.026052 0.421250 0.339731 -0.083566
C5    C     C_2   0.472219 0.031370 0.437679 -0.064566
C6    C     C_2   0.527813 0.968640 0.562334 -0.069481
C7    C     C_R   0.507987 0.799569 0.544894 0.529700
C8    C     C_R   0.259306 0.489769 0.500892 0.551643
C9    C     C_R   0.740690 0.510293 0.499127 0.543434
C10   C     C_3   0.027467 0.420228 0.624699 0.238583
C11   C     C_3   0.972501 0.579957 0.375456 0.285797
C12   C     C_3   0.931101 0.354359 0.458459 -0.177901
C13   C     C_3   0.068887 0.645731 0.541637 -0.153843
C14   C     C_3   0.878193 0.513586 0.493150 -0.024036
Cu1   Cu    Cu3+1 0.514140 0.517380 0.684380 1.235364
Cu2   Cu    Cu3+1 0.485860 0.482620 0.315620 1.250421
H1    H     H_    0.874141 0.233495 0.423777 0.163945
H2    H     H_    0.736732 0.914758 0.982817 0.366648
H3    H     H_    0.125875 0.766584 0.576313 0.173248
H4    H     H_    0.953615 0.649711 0.789504 0.220457
H5    H     H_    0.045870 0.350539 0.209970 0.244096
H6    H     H_    0.404866 0.959271 0.329323 0.175672
H7    H     H_    0.595135 0.040743 0.670719 0.157569
H8    H     H_    0.838626 0.233969 0.777933 0.336883
H9    H     H_    0.097203 0.803039 0.060134 0.354222
H10   H     H_    0.263463 0.085242 0.017518 0.357884
N1    N     N_2   0.464560 0.456420 0.038510 0.042528
N2    N     N_2   0.535440 0.543580 0.961490 0.041132
O1    O     O_R   0.509190 0.286130 0.619780 -0.481108
O2    O     O_2   0.139719 0.403486 0.940382 -0.175231
O3    O     O_3   0.901051 0.288320 0.881631 -0.487660
O4    O     O_2   0.862019 0.600004 0.059513 -0.196784
O5    O     O_2   0.926757 0.852730 0.285634 -0.262304
O6    O     O_3   0.101257 0.715888 0.125533 -0.499766
O7    O     O_2   0.318433 0.253230 0.760454 -0.226161
O8    O     O_2   0.491794 0.156602 0.918636 -0.301902
O9    O     O_3   0.289810 0.200385 0.071151 -0.463909
O10   O     O_2   0.508149 0.843347 0.081461 -0.299247
O11   O     O_2   0.681588 0.746699 0.239456 -0.228780
O12   O     O_R   0.490810 0.713870 0.380220 -0.473348
O13   O     O_3   0.710075 0.799742 0.928789 -0.465462
O14   O     O_R   0.485310 0.256770 0.308360 -0.451615
O15   O     O_R   0.514690 0.743230 0.691640 -0.451273
O16   O     O_R   0.328790 0.514640 0.655680 -0.471707
O17   O     O_R   0.671210 0.485360 0.344320 -0.467951
O18   O     O_R   0.304910 0.485280 0.344260 -0.463986
O19   O     O_R   0.695090 0.514720 0.655740 -0.480205
O20   O     O_2   0.073161 0.148363 0.720104 -0.253500
S1    S     S_3+6 0.039938 0.310707 0.795406 0.069448
S2    S     S_3+6 0.960646 0.691467 0.206829 0.070626
S3    S     S_3+6 0.392763 0.264665 0.937400 0.191245
S4    S     S_3+6 0.607210 0.735333 0.062578 0.191756

loop_
_geom_bond_atom_site_label_1
_geom_bond_atom_site_label_2
_ccdc_geom_bond_type
Cu2   O17   S    
C12   H1    S    
C2    C4    S    
C9    C14   S    
H10   O9    S    
C9    O17   A    
C6    C7    S    
Cu1   O1    S    
C7    O15   A    
C4    C12   S    
C11   C13   S    
O13   S4    S    
C3    C13   S    
Cu1   O19   S    
H9    O6    S    
C7    O12   A    
Cu2   N1    S    
C1    O1    A    
O11   S4    D    
H8    O3    S    
Cu1   O15   S    
C3    H4    S    
C11   S2    S    
C4    C11   S    
C4    H5    S    
N2    S4    S    
O4    S2    D    
Cu1   N2    S    
O8    S3    D    
C10   C12   S    
Cu2   O12   S    
C1    C5    S    
C6    H7    S    
O20   S1    D    
N1    S3    S    
O2    S1    D    
O3    S1    S    
Cu1   O16   S    
C9    O19   A    
O7    S3    D    
C5    C6    D    
O9    S3    S    
C11   C14   S    
C8    O18   A    
O6    S2    S    
C3    C14   S    
C13   H3    S    
Cu1   Cu2   S    
C2    C10   S    
Cu2   O14   S    
C1    O14   A    
O10   S4    D    
H2    O13   S    
Cu2   O18   S    
N1    N2    D    
C3    C10   S    
C2    C13   S    
O5    S2    D    
C10   S1    S    
C2    C8    S    
C5    H6    S    
C8    O16   A    
C12   C14   S    
