data_mof_unit_58755.cif
_audit_creation_date              2012-12-10T17:43:34-0500
_audit_creation_method            fapswitch 2.2
_symmetry_space_group_name_H-M    P1
_symmetry_Int_Tables_number       1
_space_group_crystal_system       triclinic
_cell_length_a                    14.901533
_cell_length_b                    10.64321
_cell_length_c                    9.978806
_cell_angle_alpha                 90.009677
_cell_angle_beta                  89.932346
_cell_angle_gamma                 92.665101
_cell_volume                      1580.92715504

loop_
_atom_site_label
_atom_site_type_symbol
_atom_type_description
_atom_site_fract_x
_atom_site_fract_y
_atom_site_fract_z
_atom_type_partial_charge
C1    C     C_R   0.507719 0.260576 0.501054 0.903798
C2    C     C_R   0.908350 0.614204 0.471725 0.015496
C3    C     C_R   0.949809 0.283061 0.578152 0.457151
C4    C     C_R   0.042796 0.286985 0.576239 -0.153429
C5    C     C_R   0.091116 0.396212 0.538174 0.064608
C6    C     C_R   0.046781 0.505599 0.502795 0.034984
C7    C     C_R   0.096541 0.616681 0.465479 -0.023779
C8    C     C_R   0.051483 0.725548 0.433920 -0.182647
C9    C     C_R   0.958056 0.726329 0.438286 0.412253
C10   C     C_R   0.183761 0.398140 0.538447 -0.246925
C11   C     C_R   0.232275 0.506170 0.499593 -0.119468
C12   C     C_R   0.327492 0.502053 0.499930 0.921633
C13   C     C_R   0.190507 0.615594 0.460792 0.389113
C14   C     C_R   0.545835 0.105655 0.752820 0.319694
C15   C     C_R   0.517203 0.046708 0.872257 0.274098
C16   C     C_R   0.456290 0.942524 0.867935 0.316063
C17   C     C_R   0.433384 0.887684 0.744088 0.354254
C18   C     C_R   0.472578 0.937810 0.624739 -0.092675
C19   C     C_R   0.512796 0.058938 0.627792 -0.110217
C20   C     C_R   0.515608 0.126337 0.504688 0.010322
C21   C     C_R   0.504707 0.063342 0.382845 -0.137984
C22   C     C_R   0.489975 0.935880 0.381399 -0.079121
C23   C     C_R   0.489976 0.738566 0.500410 0.965277
C24   C     C_R   0.476833 0.871633 0.502036 -0.027577
C25   C     C_R   0.382840 0.332941 0.139467 -0.161076
C26   C     C_R   0.325636 0.249119 0.070199 -0.190136
C27   C     C_R   0.325224 0.248471 0.931120 0.446147
C28   C     C_R   0.382368 0.332845 0.860968 -0.207273
C29   C     C_R   0.441980 0.417998 0.928012 0.063547
C30   C     C_R   0.442142 0.418048 0.071922 0.115278
C31   C     C_R   0.556464 0.577792 0.074039 0.385253
C32   C     C_R   0.557778 0.579652 0.930346 0.368557
C33   C     C_R   0.672479 0.498063 0.499565 0.989611
C34   C     C_R   0.815094 0.609673 0.475261 -0.158129
C35   C     C_R   0.767814 0.496797 0.498303 -0.158478
C36   C     C_R   0.810337 0.384173 0.515617 0.404697
C37   C     C_R   0.903616 0.388309 0.533054 -0.057934
C38   C     C_R   0.952905 0.502954 0.503174 -0.057263
H1    H     H_    0.777234 0.691791 0.455594 0.212432
H2    H     H_    0.490217 0.887841 0.285842 0.246852
H3    H     H_    0.378711 0.328632 0.245958 0.210249
H4    H     H_    0.280843 0.185139 0.125699 0.218107
H5    H     H_    0.378472 0.329759 0.754493 0.215189
H6    H     H_    0.077513 0.204712 0.607484 0.232580
H7    H     H_    0.218662 0.314976 0.566913 0.198987
H8    H     H_    0.088718 0.811135 0.406174 0.243677
H9    H     H_    0.507239 0.112585 0.288366 0.232076
N1    N     N_R   0.499150 0.498800 0.142780 -0.167387
N2    N     N_R   0.499120 0.498720 0.857170 -0.165247
O1    O     O_R   0.500000 0.316780 0.614690 -0.627872
O2    O     O_R   0.499990 0.316750 0.385360 -0.650580
O3    O     O_R   0.367850 0.499980 0.614680 -0.608193
O4    O     O_R   0.367840 0.499960 0.385350 -0.626371
O5    O     O_R   0.500010 0.683250 0.614640 -0.551639
O6    O     O_R   0.500000 0.683220 0.385310 -0.584790
O7    O     O_R   0.632160 0.500040 0.614650 -0.522405
O8    O     O_R   0.632150 0.500020 0.385320 -0.564772
Zn1   Zn    Zn3+2 0.500010 0.500020 0.653130 1.083030
Zn2   Zn    Zn3+2 0.499990 0.499980 0.346870 1.058427
Cl1   Cl    Cl    0.636406 0.218868 0.762702 -0.400328
Cl2   Cl    Cl    0.557528 0.104367 0.027429 -0.468730
Cl3   Cl    Cl    0.413407 0.875443 0.017993 -0.458031
Cl4   Cl    Cl    0.344311 0.771992 0.738391 -0.473792
Cl5   Cl    Cl    0.631257 0.674928 0.170118 -0.406845
S1    S     S_3+6 0.249617 0.145451 0.845156 0.025934
O9    O     O_2   0.161247 0.206918 0.834170 -0.277816
O10   O     O_2   0.284685 0.118327 0.707324 -0.351369
O11   O     O_3   0.234421 0.010400 0.931266 -0.463894
H10   H     H_    0.194447 0.956108 0.874236 0.423635
Cl6   Cl    Cl    0.748197 0.241718 0.481878 -0.490862
S2    S     S_3+6 0.644615 0.685229 0.860501 0.127661
O12   O     O_2   0.637173 0.811009 0.927108 -0.220445
O13   O     O_2   0.732839 0.633643 0.900877 -0.206830
O14   O     O_3   0.651809 0.716768 0.696696 -0.553881
H11   H     H_    0.702563 0.779666 0.687581 0.395623
Cl7   Cl    Cl    0.897603 0.152606 0.660560 -0.349115
Cl8   Cl    Cl    0.256792 0.749161 0.407424 -0.540269
S3    S     S_3+6 0.905987 0.868040 0.396740 0.095120
O15   O     O_2   0.974542 0.974995 0.379497 -0.231803
O16   O     O_2   0.855015 0.848547 0.267870 -0.212704
O17   O     O_3   0.834154 0.904373 0.519461 -0.509843
H12   H     H_    0.787626 0.953268 0.475114 0.418516

loop_
_geom_bond_atom_site_label_1
_geom_bond_atom_site_label_2
_ccdc_geom_bond_type
O6    Zn2   S    
C35   C36   A    
O17   H12   S    
O4    Zn2   S    
C7    C8    A    
C29   N2    A    
C26   C27   A    
C29   C30   A    
N1    Zn2   S    
C18   C24   A    
C30   N1    A    
C36   C37   A    
C18   C19   A    
C5    C6    A    
S3    O16   D    
O8    Zn2   S    
C15   C16   A    
C34   C35   A    
C19   C20   A    
C8    C9    A    
S1    O10   D    
C23   C24   S    
C6    C38   A    
C1    O1    A    
C12   O4    A    
C2    C34   A    
C33   O7    A    
C21   C22   A    
C16   Cl3   S    
C14   C19   A    
C12   O3    A    
C36   Cl6   S    
C32   S2    S    
C13   Cl8   S    
O14   H11   S    
C34   H1    S    
O1    Zn1   S    
C25   H3    S    
S2    O13   D    
S3    O15   D    
O11   H10   S    
C4    H6    S    
C25   C26   A    
N2    Zn1   S    
C37   C38   A    
C27   S1    S    
C2    C38   A    
C31   C32   A    
S1    O11   S    
C22   H2    S    
C10   H7    S    
C17   C18   A    
C15   Cl2   S    
C3    Cl7   S    
C1    O2    A    
O3    Zn1   S    
C31   N1    A    
C22   C24   A    
O2    Zn2   S    
C3    C4    A    
C26   H4    S    
C23   O5    A    
O5    Zn1   S    
C25   C30   A    
C28   C29   A    
C1    C20   S    
C33   O8    A    
C31   Cl5   S    
C4    C5    A    
S2    O14   S    
C11   C12   S    
C23   O6    A    
C6    C7    A    
C14   Cl1   S    
C28   H5    S    
C5    C10   A    
C17   Cl4   S    
C11   C13   A    
S3    O17   S    
C16   C17   A    
C33   C35   S    
O7    Zn1   S    
C9    S3    S    
C8    H8    S    
C32   N2    A    
C10   C11   A    
C7    C13   A    
S2    O12   D    
C20   C21   A    
C3    C37   A    
S1    O9    D    
C27   C28   A    
C14   C15   A    
C2    C9    A    
C21   H9    S    
