data_mof_unit_46372.cif
_audit_creation_date              2012-12-11T16:08:47-0500
_audit_creation_method            fapswitch 2.2
_symmetry_space_group_name_H-M    P1
_symmetry_Int_Tables_number       1
_space_group_crystal_system       triclinic
_cell_length_a                    12.971918
_cell_length_b                    13.274626
_cell_length_c                    27.726015
_cell_angle_alpha                 94.919516
_cell_angle_beta                  90.104979
_cell_angle_gamma                 119.32267
_cell_volume                      4142.01909187

loop_
_atom_site_label
_atom_site_type_symbol
_atom_type_description
_atom_site_fract_x
_atom_site_fract_y
_atom_site_fract_z
_atom_type_partial_charge
C1    C     C_R   0.628056 0.895319 0.427483 0.545625
C2    C     C_R   0.589805 0.248211 0.219209 -0.140479
C3    C     C_R   0.577984 0.231527 0.268437 0.340678
C4    C     C_R   0.664857 0.312489 0.302951 0.002617
C5    C     C_R   0.688519 0.345477 0.204081 -0.065286
C6    C     C_1   0.695877 0.367702 0.153894 0.034914
C7    C     C_1   0.651050 0.293429 0.353510 0.105067
C8    C     C_1   0.703689 0.394759 0.113085 0.040623
C9    C     C_R   0.183992 0.750522 0.349911 -0.056855
C10   C     C_R   0.170285 0.743031 0.299954 0.040491
C11   C     C_R   0.159086 0.736541 0.199282 -0.016203
C12   C     C_R   0.601056 0.221908 0.440528 0.545053
C13   C     C_R   0.162669 0.646879 0.220955 -0.030648
C14   C     C_R   0.165620 0.648627 0.271069 0.457668
C15   C     C_R   0.146837 0.729893 0.149355 -0.093024
C16   C     C_R   0.123561 0.808753 0.127630 0.009856
C17   C     C_R   0.198021 0.940705 0.357507 -0.074381
C18   C     C_R   0.176905 0.931703 0.307374 0.040947
C19   C     C_R   0.168524 0.834783 0.278430 -0.032253
C20   C     C_R   0.170529 0.020084 0.285244 0.450519
C21   C     C_R   0.156000 0.012062 0.234830 -0.046530
C22   C     C_R   0.151235 0.917747 0.205910 -0.038056
C23   C     C_R   0.268531 0.875867 0.425776 0.545530
C24   C     C_R   0.160143 0.830080 0.227875 0.042989
C25   C     C_R   0.131514 0.905890 0.155613 -0.119683
C26   C     C_R   0.207951 0.852864 0.378302 -0.039445
C27   C     C_R   0.752690 0.938275 0.357476 -0.083485
C28   C     C_R   0.757867 0.929170 0.307466 -0.036637
C29   C     C_R   0.759127 0.917545 0.206579 -0.050461
C30   C     C_R   0.849893 0.013249 0.234662 0.417474
C31   C     C_R   0.850240 0.018145 0.284884 0.437187
C32   C     C_R   0.762734 0.908569 0.156579 -0.150436
C33   C     C_R   0.683402 0.805417 0.128698 0.004396
C34   C     C_R   0.627579 0.898265 0.564650 0.548390
C35   C     C_R   0.563979 0.759208 0.352416 -0.083079
C36   C     C_R   0.570343 0.745311 0.302170 0.035281
C37   C     C_R   0.665360 0.833221 0.279512 -0.054528
C38   C     C_R   0.480654 0.648891 0.273883 0.386285
C39   C     C_R   0.484926 0.640206 0.223477 -0.049237
C40   C     C_R   0.577716 0.728331 0.200601 -0.016777
C41   C     C_R   0.667132 0.826416 0.228880 -0.074324
C42   C     C_R   0.586615 0.717801 0.150271 0.368723
C43   C     C_R   0.651895 0.858909 0.379606 -0.032709
C44   C     C_R   0.740953 0.301196 0.651553 -0.160370
C45   C     C_R   0.603307 0.228042 0.578343 0.559810
C46   C     C_R   0.754973 0.324105 0.702103 -0.048713
C47   C     C_R   0.770301 0.351541 0.804086 -0.058204
C48   C     C_R   0.862320 0.349375 0.778138 0.421659
C49   C     C_R   0.853682 0.333584 0.727478 0.416119
C50   C     C_R   0.779191 0.371391 0.854687 -0.163010
C51   C     C_R   0.686767 0.374323 0.879850 -0.030960
C52   C     C_R   0.560784 0.315048 0.652747 0.371117
C53   C     C_R   0.567883 0.327304 0.703070 -0.032307
C54   C     C_R   0.664578 0.330885 0.727993 -0.088054
C55   C     C_R   0.475727 0.328746 0.728707 -0.083715
C56   C     C_R   0.271801 0.879454 0.563442 0.547200
C57   C     C_R   0.476772 0.329951 0.778755 0.392770
C58   C     C_R   0.573906 0.336197 0.804250 0.028125
C59   C     C_R   0.669659 0.339499 0.778805 -0.127417
C60   C     C_R   0.579902 0.344994 0.854700 0.407350
C61   C     C_R   0.640305 0.289803 0.627119 -0.004608
C62   C     C_1   0.222141 0.862901 0.610172 0.014506
C63   C     C_R   0.081139 0.743536 0.718244 -0.085169
C64   C     C_R   0.066453 0.733639 0.767880 -0.082936
C65   C     C_R   0.228863 0.930249 0.785821 -0.080828
C66   C     C_R   0.243516 0.940174 0.736140 -0.086104
C67   C     C_1   0.632731 0.267944 0.394552 0.061831
C68   C     C_R   0.170014 0.846671 0.702255 0.037060
C69   C     C_R   0.140929 0.826534 0.801783 0.037797
C70   C     C_1   0.124040 0.814515 0.852697 -0.027374
C71   C     C_1   0.193243 0.853928 0.651565 -0.033262
C72   C     C_1   0.100556 0.797399 0.894292 0.015747
C73   C     C_1   0.647608 0.860732 0.608961 0.012164
C74   C     C_R   0.704912 0.908971 0.734398 -0.085112
C75   C     C_R   0.715320 0.892374 0.782793 -0.084098
C76   C     C_R   0.670493 0.694542 0.758566 -0.088695
C77   C     C_R   0.659848 0.711156 0.709943 -0.090910
C78   C     C_R   0.764442 0.409417 0.287817 0.398926
C79   C     C_R   0.677055 0.818601 0.697847 0.036842
C80   C     C_R   0.697763 0.785188 0.795063 0.040174
C81   C     C_1   0.710779 0.770494 0.845098 -0.030711
C82   C     C_1   0.661904 0.837212 0.648573 -0.031489
C83   C     C_1   0.725338 0.761994 0.887177 0.015353
C84   C     C_R   0.064766 0.772568 0.079296 0.552401
C85   C     C_R   0.716979 0.441347 0.067277 0.545264
C86   C     C_R   0.720143 0.782767 0.080983 0.577020
C87   C     C_R   0.056587 0.766293 0.941241 0.541416
C88   C     C_R   0.709716 0.433067 0.929143 0.545931
C89   C     C_R   0.776049 0.426050 0.238478 0.430383
C90   C     C_R   0.748614 0.754464 0.936918 0.547234
Cr1   Cr    Cr6+3 0.416430 0.829200 0.492370 1.075762
Cr2   Cr    Cr6+3 0.674630 0.087020 0.504170 1.072253
Cr3   Cr    Cr6+3 0.408920 0.083740 0.503490 1.109037
Cr4   Cr    Cr6+3 0.914010 0.832750 0.013970 1.054209
Cr5   Cr    Cr6+3 0.922310 0.578600 0.003000 1.059664
Cr6   Cr    Cr6+3 0.656280 0.574630 0.003870 1.153349
H1    H     H_    0.214675 0.018912 0.379739 0.199979
H2    H     H_    0.024632 0.670325 0.692459 0.132737
H3    H     H_    0.521175 0.186195 0.193030 0.163100
H4    H     H_    0.188511 0.681280 0.366165 0.218614
O1    O     O_R   0.296680 0.802170 0.437540 -0.507682
O2    O     O_R   0.662610 0.183990 0.557860 -0.519290
O3    O     O_R   0.500730 0.201280 0.562180 -0.420892
O4    O     O_R   0.312500 0.978850 0.548170 -0.485453
O5    O     O_3   0.499990 0.999990 0.500010 -0.272726
O6    O     O_R   0.820790 0.857990 0.068830 -0.530096
O7    O     O_R   0.016700 0.827330 0.062850 -0.498515
O8    O     O_R   0.041970 0.673520 0.060040 -0.504805
O9    O     O_R   0.817980 0.483660 0.048840 -0.490275
O10   O     O_R   0.637200 0.461990 0.052510 -0.472658
O11   O     O_R   0.664790 0.681920 0.057970 -0.419980
O12   O     O_R   0.525380 0.838530 0.443500 -0.497462
O13   O     O_R   0.815840 0.852920 0.961840 -0.493359
O14   O     O_R   0.012100 0.822630 0.963670 -0.508627
O15   O     O_R   0.037010 0.668460 0.953040 -0.490621
O16   O     O_R   0.813390 0.478970 0.949660 -0.521426
O17   O     O_R   0.632250 0.456930 0.945520 -0.430873
O18   O     O_R   0.660200 0.677230 0.958780 -0.471236
O19   O     O_3   0.830870 0.661990 0.006950 -0.301559
O20   O     O_R   0.702130 0.995190 0.446810 -0.505724
O21   O     O_R   0.661770 0.181390 0.458760 -0.489844
O22   O     O_R   0.499820 0.198480 0.455280 -0.488093
O23   O     O_R   0.311660 0.976250 0.449080 -0.496852
O24   O     O_R   0.297580 0.804960 0.544440 -0.496502
O25   O     O_R   0.526220 0.841130 0.542590 -0.490905
O26   O     O_R   0.703030 0.997990 0.553710 -0.495227
F1    F     F_    0.849501 0.488057 0.320714 -0.569310
H5    H     H_    0.149109 0.079846 0.218405 0.198378
F2    F     F_    0.178164 0.113971 0.312275 -0.538238
H6    H     H_    0.835265 0.977873 0.139811 0.207875
H7    H     H_    0.821851 0.013982 0.378707 0.210831
F3    F     F_    0.939561 0.101033 0.213528 -0.586023
F4    F     F_    0.939199 0.111418 0.311386 -0.525696
F5    F     F_    0.506282 0.619737 0.123093 -0.618605
H8    H     H_    0.415605 0.564282 0.202468 0.207757
F6    F     F_    0.389333 0.562693 0.294943 -0.552621
F7    F     F_    0.871407 0.521666 0.224323 -0.594645
H9    H     H_    0.486955 0.697122 0.369852 0.200514
H10   H     H_    0.860428 0.391307 0.874234 0.208472
H11   H     H_    0.804010 0.284987 0.631617 0.201494
F8    F     F_    0.959936 0.361045 0.801788 -0.570937
F9    F     F_    0.942036 0.328100 0.703292 -0.579812
F10   F     F_    0.485064 0.334500 0.879342 -0.533927
F11   F     F_    0.384069 0.328661 0.801939 -0.533389
H12   H     H_    0.400315 0.324990 0.710017 0.218429
F12   F     F_    0.469377 0.316436 0.629190 -0.611827
H13   H     H_    0.997636 0.653208 0.779843 0.127192
H14   H     H_    0.286440 0.002817 0.811658 0.152782
H15   H     H_    0.313367 0.019996 0.724173 0.128999
H16   H     H_    0.717815 0.992191 0.725491 0.136601
H17   H     H_    0.736973 0.963139 0.810655 0.139628
H18   H     H_    0.657352 0.611399 0.767677 0.122552
H19   H     H_    0.637668 0.640458 0.682000 0.140026
F13   F     F_    0.481279 0.136859 0.282450 -0.619521
H20   H     H_    0.142985 0.655712 0.127926 0.152350
H21   H     H_    0.160133 0.573908 0.199083 0.161705
F14   F     F_    0.166278 0.559256 0.291245 -0.529045
H22   H     H_    0.114804 0.967673 0.138824 0.144038

loop_
_geom_bond_atom_site_label_1
_geom_bond_atom_site_label_2
_ccdc_geom_bond_type
C66   C68   A    
C74   C79   A    
C27   H7    S    
Cr1   O5    S    
Cr6   O19   S    
C35   C36   A    
C20   F2    S    
C31   F4    S    
Cr3   O3    S    
C32   H6    S    
Cr4   O14   S    
C39   H8    S    
C53   C54   A    
C46   C49   A    
C5    C6    S    
C33   C42   A    
C56   O24   A    
Cr6   O18   S    
C36   C37   A    
C8    C85   S    
C63   H2    S    
C85   O9    A    
C52   C61   A    
C34   O25   A    
C1    O12   A    
C38   C39   A    
C65   C69   A    
C55   H12   S    
C76   H18   S    
C58   C60   A    
C15   C16   A    
C11   C24   A    
C16   C84   S    
C84   O7    A    
C18   C20   A    
C18   C19   A    
C90   O13   A    
C86   O11   A    
C23   C26   S    
C87   O14   A    
C45   O3    A    
Cr3   O5    S    
C11   C15   A    
C1    C43   S    
Cr4   O6    S    
C12   O21   A    
C75   H17   S    
C22   C25   A    
C48   F8    S    
C38   F6    S    
C35   C43   A    
C75   C80   A    
Cr5   O16   S    
C87   O15   A    
Cr2   O2    S    
C77   H19   S    
C40   C42   A    
C44   H11   S    
C21   C22   A    
C86   O6    A    
Cr1   O1    S    
C4    C7    S    
C78   F1    S    
Cr3   O4    S    
C81   C83   T    
Cr4   O13   S    
C44   C46   A    
C9    C26   A    
C50   C51   A    
C47   C50   A    
C54   C59   A    
C53   C55   A    
C78   C89   A    
Cr6   O11   S    
Cr4   O7    S    
C74   C75   A    
C14   F14   S    
C76   C80   A    
Cr6   O17   S    
C76   C77   A    
C56   O4    A    
C66   H15   S    
C85   O10   A    
Cr5   O9    S    
Cr5   O15   S    
C39   C40   A    
C50   H10   S    
C23   O23   A    
C12   C67   S    
Cr5   O19   S    
C58   C59   A    
Cr6   O10   S    
C3    F13   S    
C65   H14   S    
C1    O20   A    
Cr1   O12   S    
C88   O16   A    
C33   C86   S    
C13   H21   S    
C4    C78   A    
C29   C30   A    
Cr4   O19   S    
C47   C48   A    
C10   C19   A    
C34   O26   A    
C49   F9    S    
C46   C54   A    
C17   C18   A    
C77   C79   A    
C64   C69   A    
Cr3   O22   S    
C21   H5    S    
Cr5   O8    S    
C40   C41   A    
C2    H3    S    
C9    H4    S    
C89   F7    S    
Cr1   O24   S    
C55   C57   A    
C64   H13   S    
C10   C14   A    
C22   C24   A    
C2    C5    A    
C17   C26   A    
C3    C4    A    
C90   O18   A    
C73   C82   T    
C27   C28   A    
C72   C87   S    
C52   C53   A    
C9    C10   A    
C16   C25   A    
C83   C90   S    
C63   C68   A    
C48   C49   A    
C52   F12   S    
Cr1   O25   S    
C57   F11   S    
C29   C41   A    
C15   H20   S    
C28   C31   A    
Cr3   O23   S    
C80   C81   S    
Cr2   O26   S    
C51   C88   S    
C79   C82   S    
C6    C8    T    
C44   C61   A    
C29   C32   A    
C42   F5    S    
C32   C33   A    
C36   C38   A    
C2    C3    A    
Cr2   O20   S    
C35   H9    S    
Cr2   O21   S    
C11   C13   A    
C30   C31   A    
C57   C58   A    
C23   O1    A    
C28   C37   A    
C68   C71   S    
C30   F3    S    
C45   C61   S    
C84   O8    A    
C62   C71   T    
C19   C24   A    
C56   C62   S    
C37   C41   A    
C69   C70   S    
C60   F10   S    
C45   O2    A    
C34   C73   S    
C47   C59   A    
C63   C64   A    
C27   C43   A    
Cr2   O5    S    
C12   O22   A    
C20   C21   A    
C65   C66   A    
C7    C67   T    
C25   H22   S    
C74   H16   S    
C70   C72   T    
C51   C60   A    
C88   O17   A    
C13   C14   A    
C17   H1    S    
C5    C89   A    
