data_mof_unit_6822.cif
_audit_creation_date              2012-12-11T17:44:05-0500
_audit_creation_method            fapswitch 2.2
_symmetry_space_group_name_H-M    P1
_symmetry_Int_Tables_number       1
_space_group_crystal_system       triclinic
_cell_length_a                    20.227031
_cell_length_b                    22.849308
_cell_length_c                    6.934583
_cell_angle_alpha                 90.000722
_cell_angle_beta                  86.884232
_cell_angle_gamma                 90.0
_cell_volume                      3200.24384946

loop_
_atom_site_label
_atom_site_type_symbol
_atom_type_description
_atom_site_fract_x
_atom_site_fract_y
_atom_site_fract_z
_atom_type_partial_charge
O1    O     O_R   0.751270 0.447300 0.600030 -0.548169
O2    O     O_R   0.248730 0.947300 0.399970 -0.548170
O3    O     O_R   0.613530 0.440160 0.952150 -0.543433
O4    O     O_R   0.386470 0.940160 0.047850 -0.543435
O5    O     O_R   0.613050 0.552700 0.122560 -0.539407
O6    O     O_R   0.386950 0.052700 0.877440 -0.539409
C1    C     C_R   0.591774 0.425571 0.786620 0.713762
C2    C     C_R   0.408227 0.925571 0.213378 0.713762
O7    O     O_R   0.750780 0.440350 0.929820 -0.550357
O8    O     O_R   0.249220 0.940350 0.070180 -0.550354
O9    O     O_R   0.751280 0.552900 0.100070 -0.545599
O10   O     O_R   0.248720 0.052900 0.899930 -0.545601
C3    C     C_R   0.774090 0.426250 0.757359 0.697740
C4    C     C_R   0.225909 0.926251 0.242640 0.697748
O11   O     O_R   0.613040 0.447100 0.622520 -0.539474
O12   O     O_R   0.386960 0.947100 0.377480 -0.539473
O13   O     O_3   0.682160 0.536920 0.777780 -0.350021
O14   O     O_3   0.317840 0.036920 0.222220 -0.350023
V1    V     V_3+5 0.682160 0.493150 0.052630 1.435428
V2    V     V_3+5 0.317840 0.993150 0.947370 1.435430
O15   O     O_R   0.750790 0.559840 0.429870 -0.521504
O16   O     O_R   0.249210 0.059840 0.570130 -0.521502
C5    C     C_R   0.774827 0.573239 0.257349 0.763832
C6    C     C_R   0.225173 0.073239 0.742653 0.763836
O17   O     O_R   0.613540 0.559650 0.452200 -0.512131
O18   O     O_R   0.386460 0.059650 0.547800 -0.512132
C7    C     C_R   0.593867 0.576478 0.285940 0.791330
C8    C     C_R   0.406133 0.076478 0.714062 0.791326
V3    V     V_3+5 0.682160 0.506850 0.552630 1.490244
V4    V     V_3+5 0.317840 0.006850 0.447370 1.490242
O19   O     O_3   0.682150 0.463080 0.277610 -0.381083
O20   O     O_3   0.317850 0.963080 0.722390 -0.381082
C9    C     C_R   0.580181 0.867016 0.246211 0.431332
C10   C     C_R   0.419818 0.367015 0.753841 0.431328
H1    H     H_    0.536315 0.952071 0.223699 0.120674
H2    H     H_    0.463683 0.452069 0.776364 0.120713
H3    H     H_    0.668501 0.787134 0.331274 0.202486
H4    H     H_    0.331498 0.287133 0.668757 0.202461
C11   C     C_R   0.463235 0.883862 0.215891 -0.098061
C12   C     C_R   0.536767 0.383861 0.784106 -0.098098
C13   C     C_R   0.477192 0.597720 0.252607 -0.177452
C14   C     C_R   0.522809 0.097720 0.747393 -0.177460
C15   C     C_R   0.424203 0.634443 0.223221 -0.112138
C16   C     C_R   0.575797 0.134442 0.776774 -0.112147
C17   C     C_R   0.432682 0.694757 0.219444 -0.128589
C18   C     C_R   0.567319 0.194756 0.780550 -0.128592
C19   C     C_R   0.494800 0.720587 0.250500 0.060651
C20   C     C_R   0.505201 0.220586 0.749498 0.060653
C21   C     C_R   0.549536 0.682728 0.288083 -0.000754
C22   C     C_R   0.450464 0.182727 0.711922 -0.000754
C23   C     C_R   0.504051 0.782930 0.243200 0.025738
C24   C     C_R   0.495951 0.282929 0.756802 0.025767
C25   C     C_R   0.568429 0.806203 0.262457 -0.029593
C26   C     C_R   0.431571 0.306202 0.737570 -0.029654
C27   C     C_R   0.620204 0.769104 0.305294 -0.182178
C28   C     C_R   0.379796 0.269103 0.694731 -0.182276
C29   C     C_R   0.610971 0.709233 0.326858 0.306401
C30   C     C_R   0.389029 0.209233 0.673155 0.306435
C31   C     C_R   0.451523 0.823348 0.220922 -0.203876
C32   C     C_R   0.548480 0.323347 0.779059 -0.203880
C33   C     C_R   0.527327 0.905296 0.226736 -0.247948
C34   C     C_R   0.472673 0.405294 0.773299 -0.247870
C35   C     C_R   0.540006 0.620362 0.283084 -0.076371
C36   C     C_R   0.459994 0.120361 0.716920 -0.076373
H5    H     H_    0.400711 0.809685 0.214729 0.101823
H6    H     H_    0.599293 0.309685 0.785226 0.101825
H7    H     H_    0.469371 0.550805 0.247644 0.103304
H8    H     H_    0.530628 0.050805 0.752354 0.103294
H9    H     H_    0.389530 0.719890 0.188456 0.106349
H10   H     H_    0.610472 0.219890 0.811537 0.106349
H11   H     H_    0.376172 0.615856 0.198233 0.120917
H12   H     H_    0.623829 0.115856 0.801758 0.120907
C37   C     C_R   0.170257 0.883256 0.261183 -0.105893
C38   C     C_R   0.829741 0.383254 0.738814 -0.105857
C39   C     C_R   0.151046 0.850960 0.100639 -0.213178
C40   C     C_R   0.848952 0.350960 0.899361 -0.213163
C41   C     C_R   0.098731 0.810673 0.118541 -0.207355
C42   C     C_R   0.901267 0.310672 0.881465 -0.207427
C43   C     C_R   0.063078 0.802470 0.297445 0.318186
C44   C     C_R   0.936919 0.302467 0.702563 0.318216
C45   C     C_R   0.081429 0.835532 0.457457 0.387457
C46   C     C_R   0.918568 0.335524 0.542547 0.387490
C47   C     C_R   0.135193 0.874555 0.439841 -0.284504
C48   C     C_R   0.864805 0.374550 0.560156 -0.284575
C49   C     C_R   0.908348 0.682648 0.385597 -0.150147
C50   C     C_R   0.091648 0.182645 0.614413 -0.150148
C51   C     C_R   0.856071 0.642264 0.403386 -0.168590
C52   C     C_R   0.143924 0.142259 0.596622 -0.168598
C53   C     C_R   0.936362 0.698378 0.201619 0.418214
C54   C     C_R   0.063642 0.198382 0.798394 0.418253
N1    N     N_2   0.009220 0.761921 0.324316 -0.276239
N2    N     N_2   0.990779 0.261920 0.675696 -0.276191
N3    N     N_2   0.990329 0.738720 0.173498 -0.306728
N4    N     N_2   0.009675 0.238724 0.826517 -0.306707
C55   C     C_R   0.830149 0.616634 0.238785 -0.024579
C56   C     C_R   0.169852 0.116636 0.761222 -0.024566
H13   H     H_    0.835986 0.631126 0.546600 0.146375
H14   H     H_    0.164004 0.131115 0.453405 0.146358
H15   H     H_    0.926768 0.701174 0.515951 0.142836
H16   H     H_    0.073224 0.201165 0.484059 0.142828
H17   H     H_    0.148615 0.898673 0.566404 0.145128
H18   H     H_    0.851383 0.398665 0.433590 0.145103
C57   C     C_R   0.858014 0.632687 0.055892 -0.194271
C58   C     C_R   0.141995 0.132696 0.944118 -0.194274
C59   C     C_R   0.910352 0.672890 0.038162 -0.187597
C60   C     C_R   0.089658 0.172900 0.961850 -0.187593
H19   H     H_    0.839596 0.614003 0.925729 0.134948
H20   H     H_    0.160418 0.114018 0.074281 0.134954
H21   H     H_    0.086394 0.786052 0.992131 0.203701
H22   H     H_    0.913602 0.286053 0.007877 0.203695
H23   H     H_    0.930909 0.684237 0.895581 0.125802
H24   H     H_    0.069107 0.184253 0.104434 0.125794
H25   H     H_    0.176905 0.856348 0.960882 0.156194
H26   H     H_    0.823092 0.356350 0.039118 0.156182
O21   O     O_3   0.048418 0.827879 0.635384 -0.553444
C61   C     C_3   0.994943 0.867637 0.650514 0.084993
H27   H     H_    0.961261 0.861672 0.529958 0.130672
H28   H     H_    0.013329 0.913608 0.650098 0.110083
C62   C     C_3   0.954864 0.856947 0.839291 -0.670223
H29   H     H_    0.985675 0.865829 0.963632 0.221995
H30   H     H_    0.911223 0.886503 0.848884 0.169190
H31   H     H_    0.937384 0.810868 0.846239 0.235250
O22   O     O_3   0.951585 0.327866 0.364632 -0.553441
C63   C     C_3   0.005027 0.367658 0.349443 0.084996
H32   H     H_    0.038659 0.361805 0.470182 0.130534
H33   H     H_    0.986593 0.413612 0.349466 0.110125
C64   C     C_3   0.045203 0.356877 0.160890 -0.670075
H34   H     H_    0.014444 0.365642 0.036349 0.222047
H35   H     H_    0.088813 0.386469 0.151255 0.169156
H36   H     H_    0.062737 0.310810 0.154351 0.235166
O23   O     O_3   0.642911 0.889751 0.264101 -0.559492
C65   C     C_3   0.672526 0.898325 0.077173 0.086088
H37   H     H_    0.645950 0.933035 0.999295 0.123934
H38   H     H_    0.672802 0.857041 0.991248 0.132863
C66   C     C_3   0.743956 0.917629 0.093787 -0.692292
H39   H     H_    0.771920 0.883443 0.168978 0.226108
H40   H     H_    0.767745 0.924620 0.947476 0.177277
H41   H     H_    0.745606 0.959191 0.176441 0.222644
O24   O     O_3   0.357089 0.389754 0.736011 -0.559487
C67   C     C_3   0.327453 0.398236 0.922962 0.086072
H42   H     H_    0.354058 0.432863 0.001143 0.123947
H43   H     H_    0.327112 0.356893 0.008583 0.132884
C68   C     C_3   0.256053 0.417630 0.906381 -0.692277
H44   H     H_    0.228066 0.383535 0.830834 0.226124
H45   H     H_    0.232240 0.424529 0.052712 0.177288
H46   H     H_    0.254473 0.459260 0.824081 0.222622
Cl1   Cl    Cl    0.677575 0.673417 0.426770 -0.689257
Cl2   Cl    Cl    0.322423 0.173417 0.573242 -0.689265

loop_
_geom_bond_atom_site_label_1
_geom_bond_atom_site_label_2
_ccdc_geom_bond_type
C68   H46   S    
C52   C56   A    
C21   C35   A    
C66   H41   S    
C22   C36   A    
C67   C68   S    
O4    C2    A    
V1    O19   S    
C58   C60   A    
C12   C34   A    
O22   C63   S    
C13   H7    S    
C60   H24   S    
O9    V1    S    
C38   C40   A    
C12   C32   A    
C40   C42   A    
O5    V1    S    
O3    C1    A    
C6    C56   S    
C42   C44   A    
O12   V4    S    
C68   H44   S    
C10   O24   S    
C10   C34   A    
C48   H18   S    
C61   H27   S    
O17   V3    S    
C66   H40   S    
C17   C19   A    
O7    C3    A    
C24   C32   A    
O5    C7    A    
O7    V1    S    
O6    C8    A    
O8    V2    S    
C65   H37   S    
C55   C57   A    
C51   C55   A    
C30   Cl2   S    
C40   H26   S    
C1    C12   S    
C54   N4    S    
C39   H25   S    
C2    C11   S    
C28   C30   A    
C50   H16   S    
C43   N1    S    
C9    O23   S    
C25   C27   A    
C59   H23   S    
C32   H6    S    
C2    O12   A    
C14   H8    S    
C13   C15   A    
C45   O21   S    
C14   C16   A    
H2    C34   S    
O1    V3    S    
C45   C47   A    
C24   C26   A    
O11   V3    S    
C18   C20   A    
C62   H30   S    
O15   C5    A    
C9    C25   A    
C11   C33   A    
C26   C28   A    
C49   C51   A    
C17   H9    S    
C22   C30   A    
C4    C37   S    
C66   H39   S    
C67   H42   S    
C54   C60   A    
C44   C46   A    
C50   C54   A    
C43   C45   A    
C49   C53   A    
C19   C23   A    
C1    O11   A    
C16   C18   A    
O15   V3    S    
C23   C25   A    
O4    V2    S    
C44   N2    S    
O1    C3    A    
C41   H21   S    
C64   H35   S    
C49   H15   S    
N1    N3    D    
C39   C41   A    
O24   C67   S    
C11   C31   A    
O10   V2    S    
N2    N4    D    
C41   C43   A    
C57   C59   A    
O3    V1    S    
C20   C22   A    
C15   C17   A    
C7    C35   S    
C61   H28   S    
C63   C64   S    
O14   V4    S    
C8    C36   S    
C9    C33   A    
C10   C26   A    
C46   C48   A    
C29   Cl1   S    
O8    C4    A    
O17   C7    A    
O16   C6    A    
C23   C31   A    
C37   C39   A    
C64   H34   S    
C14   C36   A    
C46   O22   S    
C58   H20   S    
C63   H33   S    
V2    O20   S    
C62   H31   S    
C68   H45   S    
C56   C58   A    
C15   H11   S    
C47   H17   S    
C38   C48   A    
C21   C29   A    
C62   H29   S    
O18   V4    S    
C67   H43   S    
C19   C21   A    
O6    V2    S    
O10   C6    A    
O18   C8    A    
C42   H22   S    
C61   C62   S    
O2    V4    S    
C27   C29   A    
C64   H36   S    
V3    O19   S    
O16   V4    S    
O13   V3    S    
C31   H5    S    
V4    O20   S    
H1    C33   S    
C65   C66   S    
C50   C52   A    
O9    C5    A    
O13   V1    S    
C5    C55   S    
C16   H12   S    
O14   V2    S    
C53   N3    S    
O23   C65   S    
O2    C4    A    
C18   H10   S    
H3    C27   S    
C20   C24   A    
H4    C28   S    
C3    C38   S    
C65   H38   S    
C53   C59   A    
C13   C35   A    
C57   H19   S    
C37   C47   A    
C52   H14   S    
O21   C61   S    
C63   H32   S    
C51   H13   S    
