data_mof_unit_44852.cif
_audit_creation_date              2012-12-10T17:50:40-0500
_audit_creation_method            fapswitch 2.2
_symmetry_space_group_name_H-M    P1
_symmetry_Int_Tables_number       1
_space_group_crystal_system       triclinic
_cell_length_a                    15.706755
_cell_length_b                    10.757754
_cell_length_c                    9.913502
_cell_angle_alpha                 87.079554
_cell_angle_beta                  89.846195
_cell_angle_gamma                 92.180421
_cell_volume                      1671.67386548

loop_
_atom_site_label
_atom_site_type_symbol
_atom_type_description
_atom_site_fract_x
_atom_site_fract_y
_atom_site_fract_z
_atom_type_partial_charge
C1    C     C_R   0.501147 0.259588 0.504278 0.871759
C2    C     C_R   0.392070 0.017575 0.836458 -0.172732
C3    C     C_R   0.359357 0.903055 0.798366 -0.139928
C4    C     C_R   0.337981 0.499913 0.500144 0.880817
C5    C     C_R   0.385894 0.856852 0.677362 -0.138374
C6    C     C_R   0.445705 0.925934 0.593102 0.081589
C7    C     C_R   0.464302 0.050620 0.617917 0.094223
C8    C     C_R   0.504791 0.125989 0.513158 -0.136768
C9    C     C_R   0.542764 0.072646 0.403984 -0.253161
C10   C     C_R   0.541830 0.945279 0.396010 -0.025087
C11   C     C_R   0.491777 0.871753 0.490223 -0.166858
C12   C     C_3   0.082703 0.503552 0.499593 0.212017
C13   C     C_R   0.379641 0.348478 0.148367 -0.137610
C14   C     C_R   0.316797 0.280817 0.082118 -0.216177
C15   C     C_R   0.315377 0.284050 0.942484 -0.208695
C16   C     C_R   0.497749 0.739452 0.496533 0.861888
C17   C     C_R   0.377973 0.352598 0.868647 -0.172018
C18   C     C_R   0.439805 0.427371 0.931955 0.152777
C19   C     C_R   0.440194 0.426487 0.076494 0.171174
C20   C     C_R   0.557629 0.569326 0.067410 -0.118874
C21   C     C_R   0.557638 0.569551 0.924324 -0.102665
C22   C     C_R   0.662028 0.500786 0.499789 0.909814
C23   C     C_3   0.973814 0.581999 0.591056 -0.167516
C24   C     C_3   0.968637 0.388114 0.530496 -0.163310
C25   C     C_3   0.026337 0.425869 0.407390 -0.162144
C26   C     C_1   0.248992 0.501136 0.500350 -0.188269
C27   C     C_1   0.751088 0.502419 0.499224 -0.198971
C28   C     C_3   0.026752 0.465807 0.622690 -0.165415
C29   C     C_R   0.599101 0.894440 0.294850 0.152820
C30   C     C_R   0.670060 0.827110 0.337186 -0.116212
C31   C     C_R   0.729057 0.790550 0.242466 -0.143370
C32   C     C_R   0.717998 0.821666 0.105130 -0.159762
C33   C     C_R   0.647269 0.887874 0.062112 -0.155108
C34   C     C_3   0.917473 0.504275 0.498866 0.213685
C35   C     C_R   0.588093 0.924509 0.156504 -0.144437
C36   C     C_3   0.031582 0.619772 0.467935 -0.167050
C37   C     C_3   0.973391 0.542059 0.375736 -0.167682
C38   C     C_1   0.173637 0.502385 0.500122 -0.086780
C39   C     C_1   0.826503 0.503671 0.498864 -0.094276
C40   C     C_R   0.443388 0.091644 0.746816 -0.193877
H1    H     H_    0.050013 0.362045 0.332380 0.130360
H2    H     H_    0.940730 0.293445 0.556036 0.131627
H3    H     H_    0.949294 0.573259 0.274899 0.127382
H4    H     H_    0.059533 0.714412 0.442402 0.130261
H5    H     H_    0.950123 0.645829 0.666043 0.128776
H6    H     H_    0.050766 0.434663 0.723594 0.132595
H7    H     H_    0.577735 0.130637 0.328213 0.172869
H8    H     H_    0.471485 0.174978 0.785118 0.176885
H9    H     H_    0.377743 0.048773 0.935687 0.153388
H10   H     H_    0.680522 0.805156 0.443559 0.103871
H11   H     H_    0.783698 0.738970 0.275637 0.133442
H12   H     H_    0.316859 0.847415 0.865364 0.137757
H13   H     H_    0.763794 0.793529 0.031970 0.129193
H14   H     H_    0.638508 0.911344 0.955702 0.142471
H15   H     H_    0.534365 0.977665 0.122148 0.132576
H16   H     H_    0.361369 0.765567 0.652243 0.149614
H17   H     H_    0.604806 0.624918 0.118253 0.173732
H18   H     H_    0.379427 0.335121 0.255395 0.201239
H19   H     H_    0.270286 0.222998 0.139598 0.146500
H20   H     H_    0.268050 0.228219 0.891066 0.154130
H21   H     H_    0.378860 0.339357 0.762987 0.203084
H22   H     H_    0.604747 0.626567 0.867394 0.147136
N1    N     N_R   0.499210 0.498800 0.142780 -0.125096
N2    N     N_R   0.499180 0.498720 0.857170 -0.123250
O1    O     O_R   0.500000 0.316780 0.614690 -0.650532
O2    O     O_R   0.499990 0.316750 0.385360 -0.637327
O3    O     O_R   0.376780 0.500000 0.614650 -0.639082
O4    O     O_R   0.376770 0.499980 0.385310 -0.630116
O5    O     O_R   0.500010 0.683250 0.614640 -0.617375
O6    O     O_R   0.500000 0.683220 0.385310 -0.603140
O7    O     O_R   0.623230 0.500020 0.614690 -0.614060
O8    O     O_R   0.623220 0.500000 0.385350 -0.610129
Zn1   Zn    Zn3+2 0.500010 0.500020 0.653130 0.927876
Zn2   Zn    Zn3+2 0.499990 0.499980 0.346870 0.943906

loop_
_geom_bond_atom_site_label_1
_geom_bond_atom_site_label_2
_ccdc_geom_bond_type
C23   H5    S    
C34   C37   S    
C24   H2    S    
C15   H20   S    
C32   H13   S    
C5    H16   S    
C7    C8    A    
C14   H19   S    
C28   H6    S    
C12   C28   S    
C36   C37   S    
C5    C6    A    
O4    Zn2   S    
O2    Zn2   S    
O1    Zn1   S    
C40   H8    S    
C18   C19   A    
C21   N2    A    
C25   C37   S    
C19   N1    A    
C8    C9    A    
O6    Zn2   S    
C1    O1    A    
C7    C40   A    
O5    Zn1   S    
O3    Zn1   S    
C12   C36   S    
C9    C10   A    
C17   H21   S    
C30   H10   S    
C13   C14   A    
C22   O8    A    
C17   C18   A    
C13   C19   A    
C35   H15   S    
C34   C39   S    
C16   O6    A    
C24   C25   S    
O8    Zn2   S    
C25   H1    S    
C6    C11   A    
C4    O4    A    
C26   C38   T    
C13   H18   S    
C24   C34   S    
C1    C8    S    
C37   H3    S    
C29   C30   A    
C2    H9    S    
C11   C16   S    
C31   C32   A    
N2    Zn1   S    
C23   C34   S    
C1    O2    A    
C23   C28   S    
C21   H22   S    
C9    H7    S    
C22   C27   S    
C36   H4    S    
C22   O7    A    
O7    Zn1   S    
C33   H14   S    
C15   C17   A    
C16   O5    A    
C24   C28   S    
C31   H11   S    
C3    C5    A    
C4    O3    A    
C4    C26   S    
C3    H12   S    
C6    C7    A    
N1    Zn2   S    
C29   C35   A    
C12   C25   S    
C32   C33   A    
C20   N1    A    
C2    C3    A    
C10   C29   S    
C18   N2    A    
C30   C31   A    
C27   C39   T    
C33   C35   A    
C12   C38   S    
C10   C11   A    
C2    C40   A    
C20   C21   A    
C23   C36   S    
C14   C15   A    
C20   H17   S    
