data_mof_unit_55619.cif
_audit_creation_date              2012-12-11T15:46:44-0500
_audit_creation_method            fapswitch 2.2
_symmetry_space_group_name_H-M    P1
_symmetry_Int_Tables_number       1
_space_group_crystal_system       triclinic
_cell_length_a                    11.55059
_cell_length_b                    11.550475
_cell_length_c                    19.552159
_cell_angle_alpha                 90.499358
_cell_angle_beta                  90.183488
_cell_angle_gamma                 59.950884
_cell_volume                      2257.86162894

loop_
_atom_site_label
_atom_site_type_symbol
_atom_type_description
_atom_site_fract_x
_atom_site_fract_y
_atom_site_fract_z
_atom_type_partial_charge
C1    C     C_R   0.640555 0.117232 0.599247 0.543175
C2    C     C_1   0.641506 0.703898 0.668004 0.005210
C3    C     C_1   0.126497 0.198892 0.859281 0.003540
C4    C     C_1   0.171599 0.170288 0.727708 -0.029372
C5    C     C_1   0.150054 0.182357 0.798938 -0.030196
C6    C     C_1   0.195499 0.160856 0.667392 0.005811
C7    C     C_1   0.678425 0.191444 0.860771 0.004195
C8    C     C_1   0.658721 0.167111 0.729012 -0.029598
C9    C     C_1   0.665622 0.180983 0.800317 -0.030130
C10   C     C_1   0.653252 0.149454 0.668623 0.005414
C11   C     C_R   0.667772 0.676004 0.190050 0.020555
C12   C     C_R   0.612576 0.745981 0.598628 0.541994
C13   C     C_R   0.541891 0.755982 0.218195 -0.003711
C14   C     C_R   0.528839 0.773290 0.287504 0.011718
C15   C     C_R   0.767454 0.646898 0.302777 -0.180817
C16   C     C_R   0.781997 0.632474 0.232039 -0.167299
C17   C     C_3   0.413568 0.754379 0.211413 -0.264248
C18   C     C_3   0.399954 0.773955 0.288104 -0.237793
C19   C     C_R   0.638970 0.708193 0.330839 0.024939
C20   C     C_R   0.106600 0.216083 0.199732 0.015790
C21   C     C_R   0.119394 0.311549 0.236951 0.004797
C22   C     C_R   0.147097 0.295227 0.305229 0.005535
C23   C     C_R   0.241217 0.145203 0.598212 0.545554
C24   C     C_R   0.116505 0.104422 0.307135 -0.169666
C25   C     C_R   0.091293 0.119207 0.236384 -0.155478
C26   C     C_3   0.203880 0.372956 0.224121 -0.266369
C27   C     C_3   0.236123 0.354506 0.299644 -0.215277
C28   C     C_R   0.162060 0.182532 0.339816 0.009959
C29   C     C_R   0.683292 0.194251 0.198134 -0.022357
C30   C     C_R   0.778057 0.077196 0.229568 0.007081
C31   C     C_R   0.776482 0.058837 0.298372 0.073098
C32   C     C_R   0.591567 0.285230 0.311181 -0.031574
C33   C     C_R   0.595295 0.302468 0.239961 -0.135578
C34   C     C_R   0.646532 0.114047 0.403686 0.521933
C35   C     C_3   0.821721 0.935485 0.211683 -0.287525
C36   C     C_3   0.819711 0.913446 0.287957 -0.093052
C37   C     C_R   0.676031 0.156936 0.339512 -0.034995
C38   C     C_R   0.081569 0.231272 0.928573 0.547767
C39   C     C_R   0.683860 0.604359 0.929506 0.544944
C40   C     C_R   0.708324 0.206736 0.930145 0.546058
C41   C     C_R   0.074845 0.240183 0.127702 0.544599
C42   C     C_R   0.683534 0.612778 0.124798 0.550068
C43   C     C_R   0.709432 0.212496 0.127739 0.546608
C44   C     C_R   0.615938 0.740531 0.402036 0.537019
C45   C     C_R   0.239739 0.143393 0.402805 0.540162
C46   C     C_1   0.670160 0.646446 0.860140 0.004734
C47   C     C_1   0.654917 0.683676 0.728449 -0.030007
C48   C     C_1   0.663335 0.666667 0.799707 -0.030536
Cr1   Cr    Cr6+3 0.404720 0.198220 0.499960 1.034536
Cr2   Cr    Cr6+3 0.698290 0.897110 0.500380 1.060141
Cr3   Cr    Cr6+3 0.396970 0.904720 0.499610 1.053127
Cr4   Cr    Cr6+3 0.926290 0.152010 0.028150 1.025820
Cr5   Cr    Cr6+3 0.921440 0.451830 0.027490 1.024694
Cr6   Cr    Cr6+3 0.626370 0.446880 0.028730 1.024662
H1    H     H_    0.855183 0.607195 0.335169 0.125361
H2    H     H_    0.291573 0.309891 0.190825 0.143225
H3    H     H_    0.342882 0.280484 0.309608 0.178754
H4    H     H_    0.194774 0.450558 0.328391 0.186910
H5    H     H_    0.744029 0.925117 0.183004 0.126311
H6    H     H_    0.741143 0.890253 0.303117 0.127646
H7    H     H_    0.882176 0.574981 0.211396 0.145417
H8    H     H_    0.426170 0.656181 0.195473 0.175021
H9    H     H_    0.317767 0.871696 0.304301 0.155510
H10   H     H_    0.111279 0.026049 0.334391 0.173924
H11   H     H_    0.064496 0.052693 0.210489 0.149905
H12   H     H_    0.143533 0.479735 0.209233 0.138374
O1    O     O_R   0.267750 0.231960 0.575440 -0.503022
O2    O     O_R   0.685950 0.784660 0.430010 -0.507551
O3    O     O_R   0.502510 0.767000 0.423980 -0.511907
O4    O     O_R   0.288320 0.026340 0.429250 -0.497398
O5    O     O_3   0.499990 0.000020 0.499980 -0.263143
O6    O     O_R   0.821590 0.119350 0.952850 -0.505232
O7    O     O_R   0.037230 0.162540 0.957390 -0.493265
O8    O     O_R   0.056530 0.344750 0.951370 -0.503599
O9    O     O_R   0.798000 0.560370 0.957490 -0.494341
O10   O     O_R   0.596230 0.579400 0.952760 -0.504860
O11   O     O_R   0.639160 0.321170 0.958690 -0.493038
O12   O     O_R   0.527290 0.186640 0.570530 -0.497572
O13   O     O_R   0.821370 0.124220 0.104400 -0.514532
O14   O     O_R   0.037020 0.167050 0.097880 -0.510209
O15   O     O_R   0.056310 0.349620 0.102920 -0.517725
O16   O     O_R   0.797790 0.564880 0.097980 -0.512776
O17   O     O_R   0.596000 0.584270 0.104310 -0.524420
O18   O     O_R   0.638950 0.325690 0.099180 -0.508271
O19   O     O_3   0.824700 0.350240 0.028120 -0.255354
O20   O     O_R   0.728110 0.003450 0.576380 -0.497955
O21   O     O_R   0.682980 0.789190 0.570500 -0.494123
O22   O     O_R   0.499300 0.771880 0.575540 -0.502583
O23   O     O_R   0.285350 0.030870 0.569740 -0.491107
O24   O     O_R   0.270960 0.227070 0.423890 -0.516729
O25   O     O_R   0.530270 0.182120 0.430040 -0.520496
O26   O     O_R   0.731320 0.998570 0.424830 -0.474848
C49   C     C_2   0.498453 0.399830 0.354468 0.221526
H13   H     H_    0.519028 0.402626 0.408450 0.131976
O27   O     O_2   0.396368 0.491385 0.330468 -0.566105
H14   H     H_    0.531149 0.399641 0.217576 0.166903
H15   H     H_    0.922917 0.883667 0.187935 0.140598
C50   C     C_2   0.956184 0.817497 0.316149 0.246994
H16   H     H_    0.006056 0.713468 0.299960 0.092534
O28   O     O_2   0.011203 0.854306 0.357234 -0.491343
H17   H     H_    0.336426 0.842077 0.182795 0.136151
H18   H     H_    0.406899 0.688641 0.316396 0.220804

loop_
_geom_bond_atom_site_label_1
_geom_bond_atom_site_label_2
_ccdc_geom_bond_type
C21   C26   S    
C49   H13   S    
C1    O12   A    
C34   C37   S    
C14   C18   S    
C35   C36   S    
C42   O16   A    
Cr1   O24   S    
C2    C12   S    
C41   O14   A    
Cr6   O18   S    
C20   C41   S    
C15   C19   A    
C26   C27   S    
C30   C35   S    
Cr5   O15   S    
Cr4   O19   S    
C30   C31   A    
C18   H9    S    
C20   C25   A    
C43   O13   A    
C15   C16   A    
C29   C33   A    
Cr1   O12   S    
C11   C42   S    
C35   H5    S    
C18   H18   S    
C23   O1    A    
C17   H17   S    
C34   O25   A    
Cr5   O8    S    
C3    C38   S    
C8    C9    S    
C7    C40   S    
C23   O23   A    
Cr3   O4    S    
C39   O9    A    
Cr4   O13   S    
Cr1   O1    S    
Cr6   O11   S    
C32   C49   S    
C49   O27   D    
C22   C28   A    
C13   C14   A    
C29   C43   S    
C43   O18   A    
Cr5   O9    S    
Cr3   O5    S    
Cr1   O25   S    
Cr6   O17   S    
C46   C48   T    
C28   C45   S    
C12   O22   A    
C26   H12   S    
C25   H11   S    
C24   C25   A    
C4    C6    T    
Cr4   O7    S    
C27   H3    S    
C36   H6    S    
C32   C37   A    
C31   C37   A    
Cr5   O16   S    
C15   H1    S    
Cr2   O5    S    
C29   C30   A    
Cr4   O6    S    
C17   H8    S    
C11   C16   A    
C47   C48   S    
C41   O15   A    
C17   C18   S    
C44   O3    A    
C39   O10   A    
C45   O24   A    
Cr2   O21   S    
C39   C46   S    
Cr6   O10   S    
Cr2   O26   S    
C50   O28   D    
C22   C27   S    
C44   O2    A    
C16   H7    S    
C33   H14   S    
C19   C44   S    
C38   O8    A    
C1    O20   A    
C7    C9    T    
C40   O6    A    
C12   O21   A    
C45   O4    A    
C40   O11   A    
Cr4   O14   S    
C14   C19   A    
C8    C10   T    
C42   O17   A    
C24   C28   A    
C4    C5    S    
C3    C5    T    
C27   H4    S    
C26   H2    S    
Cr3   O22   S    
Cr6   O19   S    
Cr5   O19   S    
C2    C47   T    
C13   C17   S    
C32   C33   A    
C35   H15   S    
Cr3   O23   S    
C11   C13   A    
C6    C23   S    
C34   O26   A    
Cr2   O20   S    
C20   C21   A    
C24   H10   S    
C50   H16   S    
Cr1   O5    S    
C31   C36   S    
C36   C50   S    
Cr3   O3    S    
C21   C22   A    
Cr2   O2    S    
C1    C10   S    
C38   O7    A    
