data_mof_unit_51983.cif
_audit_creation_date              2012-12-11T17:04:45-0500
_audit_creation_method            fapswitch 2.2
_symmetry_space_group_name_H-M    P1
_symmetry_Int_Tables_number       1
_space_group_crystal_system       triclinic
_cell_length_a                    17.399327
_cell_length_b                    24.47216
_cell_length_c                    14.890535
_cell_angle_alpha                 90.000219
_cell_angle_beta                  125.758701
_cell_angle_gamma                 90.000483
_cell_volume                      5145.12208695

loop_
_atom_site_label
_atom_site_type_symbol
_atom_type_description
_atom_site_fract_x
_atom_site_fract_y
_atom_site_fract_z
_atom_type_partial_charge
C1    C     C_R   0.852934 0.652069 0.904869 -0.163786
C2    C     C_R   0.934667 0.502370 0.631434 0.067338
C3    C     C_R   0.768880 0.046949 0.248647 -0.134813
C4    C     C_R   0.834613 0.355784 0.909884 0.154081
C5    C     C_R   0.183007 0.368430 0.089661 0.191964
C6    C     C_R   0.316997 0.868426 0.910339 0.191943
C7    C     C_R   0.665382 0.855783 0.090116 0.154094
C8    C     C_R   0.941721 0.653123 0.088372 -0.134603
C9    C     C_R   0.062168 0.651788 0.910712 -0.114997
C10   C     C_R   0.437830 0.151788 0.089290 -0.114999
C11   C     C_R   0.558278 0.153123 0.911629 -0.134599
C12   C     C_R   0.880505 0.683761 0.994278 0.092245
C13   C     C_R   0.565333 0.002369 0.368566 0.067338
C14   C     C_R   0.126730 0.681866 0.004846 0.075315
C15   C     C_R   0.373268 0.181865 0.995157 0.075322
C16   C     C_R   0.619492 0.183762 0.005724 0.092255
C17   C     C_R   0.545156 0.002548 0.719765 0.065812
C18   C     C_R   0.675647 0.501366 0.725585 0.018431
C19   C     C_R   0.312094 0.502516 0.356693 0.021994
C20   C     C_R   0.187822 0.002505 0.643412 0.022096
C21   C     C_R   0.824346 0.001376 0.274345 0.018354
C22   C     C_3   0.508667 0.452202 0.596467 -0.152500
C23   C     C_3   0.480959 0.464961 0.479637 -0.134198
C24   C     C_3   0.019065 0.964733 0.520101 -0.134489
C25   C     C_R   0.153541 0.650526 0.095226 -0.143645
C26   C     C_3   0.991466 0.952301 0.403199 -0.152502
C27   C     C_3   0.429197 0.490391 0.577015 -0.145999
C28   C     C_3   0.548201 0.514134 0.523605 -0.137152
C29   C     C_3   0.951657 0.013823 0.476456 -0.136932
C30   C     C_3   0.070840 0.990706 0.423017 -0.145848
C31   C     C_3   0.403554 0.503079 0.461793 0.174554
C32   C     C_3   0.575323 0.501537 0.639728 0.173370
C33   C     C_3   0.924653 0.001553 0.360271 0.173426
C34   C     C_3   0.096368 0.003065 0.538303 0.174516
C35   C     C_3   0.470211 0.552358 0.505264 -0.162727
C36   C     C_R   0.346457 0.150525 0.904776 -0.143655
C37   C     C_3   0.498369 0.539833 0.622668 -0.153082
C38   C     C_3   0.001509 0.040063 0.377699 -0.153249
C39   C     C_3   0.029545 0.052260 0.495160 -0.162732
C40   C     C_R   0.797906 0.289684 0.109509 0.141016
C41   C     C_R   0.215618 0.301314 0.887544 0.140183
C42   C     C_R   0.284395 0.801308 0.112458 0.140173
C43   C     C_R   0.702084 0.789676 0.890494 0.141001
C44   C     C_R   0.775573 0.307654 0.008026 0.057028
C45   C     C_R   0.247117 0.327600 0.986797 0.058245
C46   C     C_R   0.252890 0.827596 0.013205 0.058263
C47   C     C_R   0.647064 0.152071 0.095131 -0.163798
C48   C     C_R   0.724420 0.807649 0.991976 0.057045
C49   C     C_R   0.681099 0.303683 0.914255 -0.169714
C50   C     C_R   0.340863 0.318589 0.079083 -0.157894
C51   C     C_R   0.159142 0.818586 0.920922 -0.157887
C52   C     C_R   0.818894 0.803681 0.085746 -0.169738
C53   C     C_R   0.926151 0.357817 0.094394 -0.157023
C54   C     C_R   0.094270 0.376534 0.904924 -0.146139
C55   C     C_R   0.405731 0.876534 0.095076 -0.146129
C56   C     C_R   0.573846 0.857815 0.905606 -0.157015
C57   C     C_R   0.110107 0.772945 0.919795 -0.185147
C58   C     C_R   0.847271 0.333986 0.003392 0.035183
C59   C     C_R   0.880649 0.768702 0.082970 -0.202336
C60   C     C_R   0.619345 0.268704 0.917031 -0.202339
C61   C     C_R   0.389894 0.272945 0.080213 -0.185145
C62   C     C_R   0.154570 0.738411 0.012697 0.033214
C63   C     C_R   0.846480 0.738423 0.986443 0.029045
C64   C     C_R   0.653514 0.238427 0.013560 0.029031
C65   C     C_R   0.345432 0.238411 0.987309 0.033203
C66   C     C_R   0.235536 0.757278 0.112239 0.143884
C67   C     C_R   0.762237 0.755096 0.887236 0.155167
C68   C     C_R   0.737753 0.255103 0.112767 0.155196
C69   C     C_R   0.180129 0.358116 0.995445 -0.000027
C70   C     C_R   0.264474 0.257282 0.887766 0.143911
C71   C     C_3   0.324727 0.727765 0.198155 -0.507133
C72   C     C_3   0.680150 0.723001 0.793778 -0.517583
C73   C     C_3   0.819842 0.223012 0.206231 -0.517619
C74   C     C_3   0.175283 0.227775 0.801828 -0.507172
C75   C     C_3   0.885004 0.261977 0.202884 -0.498698
C76   C     C_3   0.121583 0.276138 0.801737 -0.478707
C77   C     C_3   0.378429 0.776125 0.198244 -0.478711
C78   C     C_3   0.614987 0.761965 0.797125 -0.498669
C79   C     C_R   0.896480 0.554102 0.466975 0.149918
C80   C     C_R   0.319874 0.858113 0.004556 -0.000020
C81   C     C_R   0.901666 0.554270 0.378128 0.163596
C82   C     C_R   0.598366 0.054266 0.621896 0.163603
C83   C     C_R   0.603552 0.054098 0.533048 0.149929
C84   C     C_R   0.897455 0.504600 0.514729 0.032847
C85   C     C_R   0.907560 0.504875 0.334901 0.036407
C86   C     C_R   0.592446 0.004872 0.665104 0.036406
C87   C     C_R   0.602549 0.004597 0.485274 0.032831
C88   C     C_R   0.876878 0.456405 0.452827 -0.197165
C89   C     C_R   0.881665 0.456595 0.362261 -0.199550
C90   C     C_R   0.618324 0.956589 0.637730 -0.199540
C91   C     C_R   0.652723 0.833983 0.996609 0.035163
C92   C     C_R   0.623108 0.956399 0.547162 -0.197181
C93   C     C_3   0.964297 0.603739 0.420293 -0.503970
C94   C     C_3   0.958303 0.603592 0.517138 -0.493692
C95   C     C_3   0.541765 0.103602 0.482913 -0.493704
C96   C     C_3   0.535771 0.103749 0.579758 -0.503972
C97   C     C_R   0.980815 0.547358 0.247570 -0.145520
C98   C     C_R   0.950877 0.547091 0.696574 -0.140247
C99   C     C_R   0.549123 0.047091 0.303427 -0.140249
C100  C     C_R   0.519186 0.047357 0.752430 -0.145528
C101  C     C_R   0.730663 0.455587 0.750343 -0.118270
C102  C     C_R   0.954846 0.502549 0.280236 0.065811
C103  C     C_R   0.260747 0.456448 0.302026 -0.124952
C104  C     C_R   0.239208 0.956441 0.698033 -0.124988
C105  C     C_R   0.769336 0.955594 0.249621 -0.118381
C106  C     C_R   0.987054 0.456153 0.257522 -0.117541
C107  C     C_R   0.949231 0.456183 0.693485 -0.131977
C108  C     C_R   0.550767 0.956183 0.306513 -0.131992
C109  C     C_R   0.512946 0.956153 0.742480 -0.117528
C110  C     C_R   0.731112 0.546946 0.751324 -0.134941
C111  C     C_R   0.262228 0.547619 0.296984 -0.125815
C112  C     C_R   0.237728 0.047614 0.703070 -0.125935
H1    H     H_    0.819159 0.665428 0.820481 0.102413
H2    H     H_    0.508386 0.570155 0.684127 0.120251
H3    H     H_    0.991435 0.070575 0.316496 0.120223
H4    H     H_    0.046197 0.093174 0.534586 0.113774
H5    H     H_    0.657309 0.323292 0.836965 0.151343
H6    H     H_    0.371664 0.342442 0.153854 0.156115
H7    H     H_    0.128342 0.842437 0.846149 0.156102
H8    H     H_    0.842686 0.823292 0.163034 0.151343
H9    H     H_    0.043243 0.761933 0.843592 0.132580
H10   H     H_    0.948985 0.760100 0.159341 0.132245
H11   H     H_    0.551009 0.260100 0.840659 0.132246
H12   H     H_    0.190117 0.664044 0.179952 0.099293
H13   H     H_    0.456755 0.261931 0.156416 0.132588
H14   H     H_    0.336290 0.689819 0.166406 0.210119
H15   H     H_    0.674402 0.680806 0.817069 0.204229
H16   H     H_    0.825594 0.180817 0.182944 0.204213
H17   H     H_    0.163701 0.189827 0.833552 0.210106
H18   H     H_    0.332584 0.723063 0.277409 0.185578
H19   H     H_    0.675248 0.726161 0.716084 0.189865
H20   H     H_    0.824742 0.226174 0.283925 0.189875
H21   H     H_    0.167447 0.223077 0.722585 0.185582
H22   H     H_    0.927072 0.242331 0.177315 0.212930
H23   H     H_    0.309882 0.164043 0.820050 0.099295
H24   H     H_    0.079221 0.266027 0.833574 0.220637
H25   H     H_    0.420773 0.766014 0.166382 0.220646
H26   H     H_    0.572922 0.742320 0.822699 0.212932
H27   H     H_    0.926020 0.288138 0.277955 0.185268
H28   H     H_    0.082886 0.299097 0.722349 0.185089
H29   H     H_    0.417146 0.799079 0.277639 0.185093
H30   H     H_    0.573968 0.788124 0.722053 0.185264
H31   H     H_    0.869196 0.417564 0.481386 0.130538
H32   H     H_    0.877265 0.417967 0.324144 0.127556
H33   H     H_    0.622711 0.917960 0.675837 0.127552
H34   H     H_    0.680836 0.165430 0.179519 0.102419
H35   H     H_    0.630773 0.917557 0.518592 0.130534
H36   H     H_    0.929095 0.639795 0.365414 0.206086
H37   H     H_    0.027825 0.595117 0.596866 0.205151
H38   H     H_    0.472237 0.095144 0.403179 0.205146
H39   H     H_    0.571001 0.139795 0.634659 0.206098
H40   H     H_    0.962896 0.346304 0.179728 0.115901
H41   H     H_    0.068097 0.374821 0.819149 0.119725
H42   H     H_    0.431904 0.874820 0.180850 0.119724
H43   H     H_    0.537102 0.846302 0.820272 0.115903
H44   H     H_    0.037285 0.595281 0.445693 0.200043
H45   H     H_    0.526352 0.411352 0.636297 0.123799
H46   H     H_    0.919392 0.639467 0.517727 0.201345
H47   H     H_    0.580704 0.139468 0.482345 0.201352
H48   H     H_    0.462776 0.095308 0.554352 0.200034
H49   H     H_    0.964805 0.589641 0.249168 0.114388
H50   H     H_    0.930642 0.588887 0.669736 0.102806
H51   H     H_    0.569359 0.088887 0.330265 0.102807
H52   H     H_    0.535197 0.089641 0.750833 0.114389
H53   H     H_    0.705606 0.414234 0.731355 0.134343
H54   H     H_    0.274696 0.416392 0.337871 0.147470
H55   H     H_    0.225242 0.916386 0.662183 0.147442
H56   H     H_    0.472065 0.434526 0.418884 0.133275
H57   H     H_    0.794408 0.914244 0.268624 0.134434
H58   H     H_    0.982649 0.414832 0.278404 0.088443
H59   H     H_    0.929449 0.414771 0.663206 0.103102
H60   H     H_    0.570550 0.914771 0.336790 0.103101
H61   H     H_    0.517352 0.914831 0.721602 0.088443
H62   H     H_    0.708421 0.589120 0.734694 0.102656
H63   H     H_    0.277408 0.589912 0.322702 0.091604
H64   H     H_    0.222527 0.089905 0.677335 0.091666
H65   H     H_    0.791569 0.089124 0.265289 0.102622
H66   H     H_    0.985861 0.667794 0.172701 0.089224
H67   H     H_    0.028019 0.934109 0.580600 0.133403
H68   H     H_    0.018018 0.666468 0.826367 0.092071
H69   H     H_    0.481981 0.166468 0.173635 0.092072
H70   H     H_    0.514137 0.167795 0.827300 0.089224
H71   H     H_    0.377231 0.480782 0.595186 0.119747
H72   H     H_    0.598737 0.523786 0.503165 0.122860
H73   H     H_    0.901040 0.023218 0.496895 0.122902
H74   H     H_    0.122880 0.981352 0.404839 0.119734
H75   H     H_    0.973909 0.911538 0.363038 0.123691
H76   H     H_    0.453413 0.593358 0.466164 0.113711
I1    I     I_    0.784801 0.310190 0.764045 -0.495132
I2    I     I_    0.253802 0.318313 0.233104 -0.494984
I3    I     I_    0.246236 0.818287 0.766925 -0.495015
I4    I     I_    0.715205 0.810198 0.235966 -0.495105
N1    N     N_R   0.892620 0.603790 0.941770 -0.037585
N2    N     N_R   0.973690 0.529110 0.793240 -0.042325
N3    N     N_R   0.526310 0.029110 0.206760 -0.042325
N4    N     N_R   0.473690 0.029110 0.793240 -0.043342
N5    N     N_R   0.818570 0.472310 0.793020 -0.035092
N6    N     N_R   0.181430 0.472310 0.206980 -0.041753
N7    N     N_R   0.318570 0.972310 0.793020 -0.041742
N8    N     N_R   0.681430 0.972310 0.206980 -0.035096
N9    N     N_R   0.026930 0.472300 0.207330 -0.039549
N10   N     N_R   0.973070 0.472300 0.792670 -0.039795
N11   N     N_R   0.526930 0.972300 0.207330 -0.039792
N12   N     N_R   0.107380 0.603790 0.058230 -0.039984
N13   N     N_R   0.473070 0.972300 0.792670 -0.039551
N14   N     N_R   0.817960 0.529130 0.792460 -0.042199
N15   N     N_R   0.182040 0.529130 0.207540 -0.041133
N16   N     N_R   0.317960 0.029130 0.792460 -0.041123
N17   N     N_R   0.682040 0.029130 0.207540 -0.042212
N18   N     N_R   0.894850 0.397640 0.943830 -0.056235
N19   N     N_R   0.105150 0.397640 0.056170 -0.057295
N20   N     N_R   0.394850 0.897640 0.943830 -0.057290
N21   N     N_R   0.605150 0.897640 0.056170 -0.056232
N22   N     N_R   0.950040 0.603780 0.055950 -0.039934
N23   N     N_R   0.392620 0.103790 0.941770 -0.039979
N24   N     N_R   0.049960 0.603780 0.944050 -0.041914
N25   N     N_R   0.450040 0.103780 0.055950 -0.041912
N26   N     N_R   0.549960 0.103780 0.944050 -0.039932
N27   N     N_R   0.607380 0.103790 0.058230 -0.037586
N28   N     N_R   0.952270 0.397640 0.058010 -0.047663
N29   N     N_R   0.047730 0.397640 0.941990 -0.043111
N30   N     N_R   0.452270 0.897640 0.058010 -0.043111
N31   N     N_R   0.547730 0.897640 0.941990 -0.047663
N32   N     N_R   0.026310 0.529110 0.206760 -0.043338
Ni1   Ni    Ni4+2 0.934160 0.565860 0.869070 0.202979
Ni2   Ni    Ni4+2 0.065840 0.565860 0.130930 0.204563
Ni3   Ni    Ni4+2 0.434160 0.065860 0.869070 0.204570
Ni4   Ni    Ni4+2 0.565840 0.065860 0.130930 0.202982
Ni5   Ni    Ni4+2 0.067260 0.435560 0.132230 0.237979
Ni6   Ni    Ni4+2 0.932740 0.435560 0.867770 0.245616
Ni7   Ni    Ni4+2 0.567260 0.935560 0.132230 0.245610
Ni8   Ni    Ni4+2 0.432740 0.935560 0.867770 0.237999

loop_
_geom_bond_atom_site_label_1
_geom_bond_atom_site_label_2
_ccdc_geom_bond_type
C44   C49   A    
C3    N17   A    
C55   H42   S    
C83   C87   A    
C93   C94   S    
C38   H3    S    
C29   C33   S    
C73   C75   S    
N26   Ni3   S    
C111  N15   A    
C2    C84   S    
C95   C96   S    
C9    C14   A    
C25   N12   A    
C19   C31   S    
C54   H41   S    
C76   H24   S    
N6    Ni5   S    
N18   N28   A    
C57   C62   A    
C107  H59   S    
N5    Ni6   S    
C94   H37   S    
C1    C12   A    
C98   N2    A    
C49   C60   A    
C105  H57   S    
N3    Ni4   S    
C72   H19   S    
C111  H63   S    
C30   H74   S    
N2    Ni1   S    
C35   C37   S    
C24   C26   S    
C5    I2    S    
C108  N11   A    
C8    N22   A    
C10   C15   A    
C78   H30   S    
C36   N23   A    
C38   C39   S    
N20   Ni8   S    
C101  N5    A    
N3    N11   A    
C65   C70   A    
C14   C62   S    
C74   H21   S    
C99   N3    A    
C2    C107  A    
C4    N18   A    
C30   C38   S    
C93   H36   S    
C67   C72   S    
C42   C46   A    
N4    N13   A    
C24   C29   S    
C5    C69   A    
N15   Ni2   S    
C20   C112  A    
C19   C103  A    
C105  N8    A    
C49   H5    S    
C101  H53   S    
C28   C35   S    
C44   C58   S    
C35   H76   S    
C56   C91   A    
C48   C91   S    
N29   Ni6   S    
C70   C74   S    
C53   H40   S    
C51   H7    S    
C71   H14   S    
C51   C57   A    
N8    Ni7   S    
N27   Ni4   S    
C54   C69   A    
C43   C48   A    
C88   H31   S    
C97   C102  A    
N21   Ni7   S    
C81   C85   A    
N10   Ni6   S    
C20   C34   S    
C53   N28   A    
N9    Ni5   S    
C79   C94   S    
N4    Ni3   S    
C83   C95   S    
C94   H46   S    
C87   C92   A    
C92   H35   S    
C106  H58   S    
C29   C39   S    
N5    N14   A    
C11   H70   S    
C1    H1    S    
C106  N9    A    
C24   H67   S    
C13   C108  A    
C78   H26   S    
C16   C47   A    
C98   H50   S    
C22   H45   S    
C52   H8    S    
C18   C101  A    
C27   H71   S    
C100  N4    A    
C9    N24   A    
C103  H54   S    
C5    N19   A    
C63   C67   A    
C75   H22   S    
C82   C96   S    
C62   C66   A    
C72   H15   S    
C45   C69   S    
C34   C39   S    
C84   C88   A    
C28   C32   S    
C112  N16   A    
C107  N10   A    
C110  N14   A    
C86   C90   A    
C79   C81   A    
C12   C63   S    
C30   C34   S    
C54   N29   A    
N20   N30   A    
C37   H2    S    
C68   C73   S    
C82   C86   A    
C96   H39   S    
C47   N27   A    
C46   C51   A    
C24   C34   S    
C17   C86   S    
N32   Ni2   S    
C43   C78   S    
C103  N6    A    
C23   C31   S    
C13   C99   A    
C60   H11   S    
C1    N1    A    
N7    Ni8   S    
N1    N22   A    
C52   C59   A    
C61   C65   A    
N19   N29   A    
C81   C93   S    
C11   C16   A    
C26   C33   S    
C90   C92   A    
C66   C71   S    
C40   C44   A    
C8    C12   A    
C7    C91   A    
C13   C87   S    
N14   Ni1   S    
N18   Ni6   S    
C100  H52   S    
C95   H38   S    
C32   C37   S    
C109  N13   A    
N11   Ni7   S    
C11   N26   A    
C25   H12   S    
C7    N21   A    
C9    H68   S    
C22   C32   S    
C56   H43   S    
C55   N30   A    
C99   H51   S    
N28   Ni5   S    
C112  H64   S    
N30   Ni7   S    
C26   C30   S    
C97   H49   S    
C22   C27   S    
C108  H60   S    
C27   C31   S    
N17   Ni4   S    
C6    C80   A    
C104  N7    A    
C95   H47   S    
C7    I4    S    
C3    C21   A    
C23   C28   S    
C74   C76   S    
C76   H28   S    
N12   Ni2   S    
C73   H16   S    
C36   H23   S    
C64   C68   A    
C15   C36   A    
C71   C77   S    
N31   Ni8   S    
C26   H75   S    
C42   C66   A    
C50   C61   A    
C85   C89   A    
N19   Ni5   S    
C96   H48   S    
N6    N15   A    
C50   H6    S    
C4    I1    S    
C93   H44   S    
C18   C110  A    
C77   H25   S    
N13   Ni8   S    
C17   C109  A    
C56   N31   A    
C61   H13   S    
C53   C58   A    
C40   C75   S    
C4    C58   A    
C20   C104  A    
N24   Ni1   S    
C19   C111  A    
C90   H33   S    
C89   H32   S    
N12   N24   A    
N2    N10   A    
C59   C63   A    
N8    N17   A    
C97   N32   A    
C60   C64   A    
C6    I3    S    
C21   C33   S    
N23   N25   A    
C28   H72   S    
N1    Ni1   S    
N16   Ni3   S    
C75   H27   S    
C41   C76   S    
C46   C80   S    
C55   C80   A    
N21   N31   A    
N26   N27   A    
C79   C84   A    
C110  H62   S    
C45   C50   A    
C27   C37   S    
C31   C35   S    
N7    N16   A    
C29   H73   S    
C18   C32   S    
C102  C106  A    
N23   Ni3   S    
C14   C25   A    
C3    H65   S    
N22   Ni2   S    
C17   C100  A    
C77   H29   S    
C47   H34   S    
N25   Ni4   S    
C57   H9    S    
C23   H56   S    
C8    H66   S    
C71   H18   S    
C48   C52   A    
C6    N20   A    
C88   C89   A    
C2    C98   A    
C42   C77   S    
C43   C67   A    
C82   C83   A    
C40   C68   A    
C74   H17   S    
C72   C78   S    
C39   H4    S    
C10   H69   S    
C41   C45   A    
C22   C23   S    
C33   C38   S    
C73   H20   S    
C16   C64   S    
N9    N32   A    
C109  H61   S    
C59   H10   S    
C21   C105  A    
C85   C102  S    
C10   N25   A    
C41   C70   A    
C104  H55   S    
C15   C65   S    
