data_mof_unit_16628.cif
_audit_creation_date              2013-03-05T16:43:52-0500
_audit_creation_method            fapswitch 2.2
_symmetry_space_group_name_H-M    P1
_symmetry_Int_Tables_number       1
_space_group_crystal_system       triclinic
_cell_length_a                    9.86541
_cell_length_b                    10.671251
_cell_length_c                    16.588438
_cell_angle_alpha                 90.312657
_cell_angle_beta                  84.330789
_cell_angle_gamma                 90.001196
_cell_volume                      1737.80086386

loop_
_atom_site_label
_atom_site_type_symbol
_atom_site_description
_atom_site_fract_x
_atom_site_fract_y
_atom_site_fract_z
_atom_type_partial_charge
O1    O     O_R   0.385310 0.683210 0.499990 -0.629586
O2    O     O_R   0.614650 0.683240 0.500000 -0.626798
C1    C     C_R   0.500096 0.740106 0.498837 0.920549
O3    O     O_R   0.371780 0.500000 0.615800 -0.623148
O4    O     O_R   0.601120 0.500040 0.615800 -0.590197
C2    C     C_R   0.480252 0.498821 0.653737 0.945538
Zn1   Zn    Zn3+2 0.346870 0.499980 0.499990 0.969555
Zn2   Zn    Zn3+2 0.653130 0.500020 0.500010 1.027140
O5    O     O_R   0.385350 0.316760 0.500000 -0.617556
O6    O     O_R   0.614690 0.316790 0.500010 -0.551568
O7    O     O_R   0.398880 0.499960 0.384200 -0.630657
O8    O     O_R   0.628220 0.500000 0.384200 -0.610595
C3    C     C_R   0.500936 0.260370 0.494185 0.953851
C4    C     C_R   0.520003 0.505086 0.346577 0.900382
C5    C     C_R   0.466809 0.514453 0.741337 -0.174986
C6    C     C_R   0.565923 0.466966 0.789015 0.289352
C7    C     C_R   0.565850 0.509870 0.868662 -0.203522
C8    C     C_R   0.466521 0.595119 0.901250 0.083350
C9    C     C_R   0.362586 0.633044 0.855838 -0.072090
C10   C     C_R   0.363658 0.594021 0.775981 -0.179303
C11   C     C_R   0.470575 0.691896 0.161868 0.330132
C12   C     C_R   0.448657 0.639124 0.238872 -0.272458
C13   C     C_R   0.649150 0.508250 0.211361 -0.152994
C14   C     C_R   0.669156 0.556324 0.133533 -0.184055
C15   C     C_R   0.577353 0.643746 0.107251 0.058935
C16   C     C_2   0.463262 0.635411 0.985448 -0.130156
C17   C     C_2   0.578120 0.658209 0.019671 -0.122216
C18   C     C_R   0.535807 0.545833 0.262954 -0.090110
H1    H     H_    0.366917 0.674437 0.281404 0.192499
H2    H     H_    0.720028 0.439672 0.230691 0.185370
H3    H     H_    0.675644 0.657677 0.982862 0.160252
H4    H     H_    0.283365 0.696086 0.881376 0.179843
H5    H     H_    0.287744 0.631233 0.740041 0.201230
H6    H     H_    0.365339 0.632313 0.021669 0.172166
H7    H     H_    0.640590 0.473597 0.906146 0.179357
H8    H     H_    0.751576 0.519411 0.092121 0.165365
C19   C     C_R   0.379161 0.937596 0.501741 0.026322
C20   C     C_R   0.500493 0.871585 0.487529 -0.104786
C21   C     C_R   0.618533 0.932684 0.454000 -0.250740
H9    H     H_    0.709864 0.879977 0.434347 0.199231
C22   C     C_R   0.619368 0.062917 0.447653 0.318338
C23   C     C_R   0.500824 0.129083 0.478417 -0.187273
C24   C     C_R   0.379020 0.064658 0.496299 0.041024
C25   C     C_3   0.269222 0.080231 0.564571 -0.425775
C26   C     C_3   0.269746 0.938313 0.571560 0.135628
H10   H     H_    0.304671 0.130918 0.617417 0.234644
H11   H     H_    0.173644 0.117362 0.543428 0.207709
H12   H     H_    0.173339 0.893491 0.556945 0.116750
C27   C     C_R   0.916839 0.503421 0.571106 0.273719
N1    N     N_R   0.857140 0.500860 0.500530 -0.122086
C28   C     C_R   0.939642 0.486250 0.429870 -0.069655
H13   H     H_    0.895108 0.476959 0.373151 0.171999
C29   C     C_R   0.083420 0.486432 0.429843 -0.103882
H14   H     H_    0.146207 0.477333 0.372959 0.170769
N2    N     N_R   0.142780 0.500820 0.500530 -0.119862
C30   C     C_R   0.059354 0.502395 0.571203 0.205853
C31   C     C_3   0.054469 0.602275 0.634505 -0.470030
C32   C     C_3   0.900953 0.604724 0.633441 -0.462704
H15   H     H_    0.086064 0.566435 0.692491 0.221030
H16   H     H_    0.105379 0.689883 0.612103 0.227785
H17   H     H_    0.845429 0.572453 0.691091 0.240795
H18   H     H_    0.862231 0.693511 0.609388 0.219967
N3    N     N_R   0.663868 0.373868 0.758460 0.207615
O9    O     O_R   0.780067 0.364467 0.788900 -0.387472
O10   O     O_R   0.630563 0.287780 0.708146 -0.358135
N4    N     N_R   0.739572 0.125171 0.411772 0.225588
O11   O     O_R   0.859655 0.080012 0.420878 -0.378200
O12   O     O_R   0.728974 0.214889 0.359926 -0.399699
N5    N     N_R   0.315442 0.896994 0.648518 0.217259
O13   O     O_R   0.224979 0.860207 0.705798 -0.402262
O14   O     O_R   0.439097 0.919062 0.665945 -0.359248
N6    N     N_R   0.385404 0.793525 0.140127 0.199292
O15   O     O_R   0.265601 0.811091 0.178894 -0.373874
O16   O     O_R   0.431947 0.875959 0.086852 -0.338508

loop_
_geom_bond_atom_site_label_1
_geom_bond_atom_site_label_2
_geom_bond_distance
_ccdc_geom_bond_type
C19   C24   1.359413 A    
O4    Zn2   1.938538 S    
N4    O12   1.301525 A    
C13   C14   1.387742 A    
N3    O10   1.301654 A    
C32   H18   1.112252 S    
C19   C20   1.388178 A    
C6    N3    1.440604 S    
Zn1   N2    2.012586 S    
C15   C17   1.461104 S    
C27   C30   1.406171 A    
C7    H7    1.083215 S    
C22   C23   1.415933 A    
C28   C29   1.418382 A    
C30   C31   1.489571 S    
C9    C10   1.385492 A    
C8    C16   1.456467 S    
C25   H11   1.111747 S    
Zn2   O8    1.960690 S    
C24   C25   1.496380 S    
C32   H17   1.110529 S    
C7    C8    1.403590 A    
C16   C17   1.338287 D    
C21   C22   1.394267 A    
C12   C18   1.400763 A    
C11   C12   1.396011 A    
C25   C26   1.519543 S    
Zn1   O7    1.938538 S    
C31   C32   1.516571 S    
C14   H8    1.083938 S    
O1    Zn1   1.991721 S    
O3    Zn1   1.960690 S    
O4    C2    1.292237 A    
C10   H5    1.079264 S    
C6    C7    1.395874 A    
Zn2   O6    1.991722 S    
C3    C23   1.423820 S    
C12   H1    1.083864 S    
C29   H14   1.080298 S    
O8    C4    1.290055 A    
N1    C28   1.367561 A    
O2    C1    1.284622 A    
N5    O13   1.299993 A    
C29   N2    1.369371 A    
C17   H3    1.087400 S    
C5    C10   1.402124 A    
O7    C4    1.293593 A    
N2    C30   1.364266 A    
C31   H15   1.109916 S    
O3    C2    1.294026 A    
N5    O14   1.302347 A    
C23   C24   1.391531 A    
C9    H4    1.083675 S    
C22   N4    1.437606 S    
C19   C26   1.503171 S    
N3    O9    1.301572 A    
C13   H2    1.083600 S    
Zn2   N1    2.013532 S    
N4    O11   1.301793 A    
C14   C15   1.401106 A    
N6    O16   1.301522 A    
C27   N1    1.361661 A    
C26   H12   1.111938 S    
C21   H9    1.083724 S    
Zn1   O5    1.991711 S    
O5    C3    1.284274 A    
C8    C9    1.392328 A    
C31   H16   1.109628 S    
C11   C15   1.414534 A    
C11   N6    1.440981 S    
C4    C18   1.449647 S    
C2    C5    1.454755 S    
C13   C18   1.396727 A    
C26   N5    1.465342 S    
C16   H6    1.086690 S    
C5    C6    1.412660 A    
O2    Zn2   1.991710 S    
C27   C32   1.489373 S    
C28   H13   1.081084 S    
C1    C20   1.416495 S    
C25   H10   1.112993 S    
N6    O15   1.301590 A    
O1    C1    1.283429 A    
O6    C3    1.285297 A    
C20   C21   1.402318 A    
