data_mof_unit_65820.cif
_audit_creation_date              2013-03-05T15:39:57-0500
_audit_creation_method            fapswitch 2.2
_symmetry_space_group_name_H-M    P1
_symmetry_Int_Tables_number       1
_space_group_crystal_system       triclinic
_cell_length_a                    16.001299
_cell_length_b                    16.147709
_cell_length_c                    29.946896
_cell_angle_alpha                 90.65708
_cell_angle_beta                  89.997218
_cell_angle_gamma                 90.246114
_cell_volume                      7737.22814169

loop_
_atom_site_label
_atom_site_type_symbol
_atom_site_description
_atom_site_fract_x
_atom_site_fract_y
_atom_site_fract_z
_atom_type_partial_charge
O1    O     O_R   0.591150 0.068800 0.545430 -0.588082
O2    O     O_R   0.408850 0.931200 0.454570 -0.595222
O3    O     O_R   0.588750 0.931200 0.454570 -0.608669
O4    O     O_R   0.411250 0.068800 0.545430 -0.606402
O5    O     O_R   0.590220 0.070350 0.455860 -0.603543
O6    O     O_R   0.409780 0.929650 0.544140 -0.613744
O7    O     O_R   0.589680 0.929650 0.544140 -0.618664
O8    O     O_R   0.410320 0.070350 0.455860 -0.611841
C1    C     C_R   0.618249 0.999008 0.559353 0.885084
C2    C     C_R   0.381567 0.001096 0.440767 0.889697
C3    C     C_R   0.617207 0.000762 0.440568 0.901732
C4    C     C_R   0.382910 0.999143 0.559461 0.891789
Zn1   Zn    Zn3+2 0.500990 0.093570 0.500870 1.052924
Zn2   Zn    Zn3+2 0.499010 0.906430 0.499130 1.036588
C5    C     C_R   0.080373 0.064448 0.315400 0.343804
C6    C     C_R   0.870809 0.927644 0.711677 0.357986
C7    C     C_R   0.146467 0.064219 0.345371 -0.198666
C8    C     C_R   0.805037 0.933752 0.681557 -0.233655
H1    H     H_    0.151557 0.113710 0.370059 0.201096
H2    H     H_    0.762690 0.881606 0.677165 0.200291
C9    C     C_R   0.909827 0.935875 0.308213 -0.186264
C10   C     C_R   0.146266 0.052746 0.722880 -0.113188
C11   C     C_R   0.845947 0.933976 0.339540 -0.143758
C12   C     C_R   0.210551 0.051963 0.691579 -0.116832
H3    H     H_    0.841039 0.881960 0.361956 0.159457
H4    H     H_    0.257596 0.100447 0.692517 0.148486
C13   C     C_R   0.074290 0.135563 0.212040 0.361720
C14   C     C_R   0.936524 0.915286 0.818421 0.366111
C15   C     C_R   0.070364 0.200787 0.181764 -0.177731
C16   C     C_R   0.937833 0.850038 0.848524 -0.166408
H5    H     H_    0.124645 0.240183 0.177043 0.180653
H6    H     H_    0.890188 0.846379 0.874201 0.176360
C17   C     C_R   0.924201 0.879266 0.209158 -0.153160
C18   C     C_R   0.070367 0.075018 0.816158 -0.230156
C19   C     C_R   0.922247 0.817950 0.176133 -0.130747
C20   C     C_R   0.072570 0.137709 0.848252 -0.140842
H7    H     H_    0.869723 0.775425 0.174457 0.149075
H8    H     H_    0.122995 0.139638 0.872403 0.148912
C21   C     C_R   0.055921 0.928987 0.179822 -0.093812
C22   C     C_R   0.940955 0.129678 0.786888 0.012000
C23   C     C_R   0.053489 0.867936 0.146796 -0.116878
C24   C     C_R   0.943474 0.192540 0.819085 -0.099045
H9    H     H_    0.103667 0.864099 0.122561 0.153944
H10   H     H_    0.892948 0.236929 0.820896 0.153239
C25   C     C_R   0.932565 0.096682 0.190051 -0.255214
C26   C     C_R   0.063606 0.860158 0.784419 -0.174995
C27   C     C_R   0.930816 0.160893 0.159796 -0.151894
C28   C     C_R   0.062976 0.795546 0.814605 -0.128972
H11   H     H_    0.876355 0.168825 0.138779 0.159811
H12   H     H_    0.112700 0.750182 0.813684 0.154020
C29   C     C_R   0.129396 0.931658 0.284576 0.213573
C30   C     C_R   0.919514 0.064826 0.688054 0.160165
C31   C     C_R   0.195981 0.933856 0.315433 0.271612
C32   C     C_R   0.851887 0.068777 0.658123 0.258466
C33   C     C_R   0.861672 0.069400 0.282799 -0.104005
C34   C     C_R   0.086225 0.930707 0.687434 -0.168838
C35   C     C_R   0.797578 0.067039 0.314208 -0.113517
C36   C     C_R   0.150235 0.930552 0.656164 -0.146185
H13   H     H_    0.755418 0.119134 0.317348 0.153216
H14   H     H_    0.150600 0.883901 0.629853 0.157306
C37   C     C_3   0.997691 0.005298 0.248303 -0.064690
C38   C     C_3   0.003014 0.994906 0.751740 -0.057022
C39   C     C_R   0.072059 0.000181 0.282018 -0.162157
C40   C     C_R   0.927890 0.996155 0.718065 -0.175544
C41   C     C_R   0.204123 0.000836 0.345061 -0.084207
C42   C     C_R   0.795376 0.002885 0.655324 -0.091947
C43   C     C_R   0.919391 0.003360 0.278869 0.090974
C44   C     C_R   0.081786 0.992075 0.721457 0.112669
C45   C     C_R   0.790483 0.999838 0.342733 0.159542
C46   C     C_R   0.211438 0.991858 0.657917 0.163289
C47   C     C_R   0.002003 0.083694 0.218570 0.001813
C48   C     C_R   0.999449 0.920666 0.784271 0.005159
C49   C     C_R   0.999421 0.213018 0.155919 0.091780
C50   C     C_R   0.999990 0.790497 0.846301 0.093227
C51   C     C_R   0.993437 0.934068 0.213198 0.133372
C52   C     C_R   0.005845 0.070760 0.783762 0.093619
C53   C     C_R   0.987395 0.811777 0.145489 0.152198
C54   C     C_R   0.009270 0.196424 0.849573 0.149037
H15   H     H_    0.953129 0.884831 0.307349 0.199407
H16   H     H_    0.145726 0.104799 0.745656 0.160837
H17   H     H_    0.870253 0.883071 0.230628 0.149414
H18   H     H_    0.119339 0.028919 0.816521 0.150271
H19   H     H_    0.867976 0.125857 0.264240 0.177831
H20   H     H_    0.038530 0.883883 0.684099 0.199614
C55   C     C_1   0.729133 0.000372 0.377091 -0.034338
C56   C     C_1   0.272228 0.995781 0.623414 -0.040565
C57   C     C_1   0.678219 0.000672 0.406292 -0.129377
C58   C     C_1   0.322541 0.998309 0.593992 -0.137218
C59   C     C_1   0.266960 0.001615 0.378789 0.094516
C60   C     C_1   0.732236 0.000803 0.621723 0.089651
C61   C     C_1   0.319181 0.001713 0.407288 -0.108603
C62   C     C_1   0.680198 0.999143 0.593108 -0.115446
C63   C     C_1   0.999245 0.275809 0.122975 -0.021673
C64   C     C_1   0.000803 0.726164 0.878274 -0.019542
C65   C     C_1   0.999281 0.327557 0.094748 -0.148300
C66   C     C_1   0.000818 0.673281 0.905829 -0.148392
C67   C     C_1   0.987668 0.746514 0.113205 -0.041760
C68   C     C_1   0.010162 0.259107 0.883347 -0.043238
C69   C     C_1   0.989602 0.690844 0.086587 -0.142640
C70   C     C_1   0.009630 0.312138 0.911533 -0.145875
O9    O     O_R   0.065580 0.596830 0.043410 -0.605900
O10   O     O_R   0.934420 0.403170 0.956590 -0.607649
O11   O     O_R   0.928990 0.412290 0.044840 -0.611309
O12   O     O_R   0.071010 0.587710 0.955160 -0.614249
O13   O     O_R   0.069930 0.417270 0.047240 -0.607614
O14   O     O_R   0.930070 0.582730 0.952760 -0.606854
O15   O     O_R   0.924640 0.591850 0.041010 -0.613258
O16   O     O_R   0.075360 0.408150 0.958990 -0.613738
C71   C     C_R   0.993378 0.624013 0.055606 0.897899
C72   C     C_R   0.006529 0.376362 0.944135 0.896072
C73   C     C_R   0.999391 0.388415 0.061033 0.897462
C74   C     C_R   0.000636 0.611547 0.938990 0.893530
Zn3   Zn    Zn3+2 0.094790 0.503330 0.001610 1.010556
Zn4   Zn    Zn3+2 0.905210 0.496670 0.998390 1.011720
N1    N     N_R   0.153262 0.122981 0.233555 0.183008
O17   O     O_R   0.201050 0.062603 0.220257 -0.406325
O18   O     O_R   0.187240 0.184182 0.255748 -0.327682
N2    N     N_R   0.873558 0.977202 0.825131 0.186560
O19   O     O_R   0.867152 0.013198 0.864075 -0.390436
O20   O     O_R   0.811995 0.983741 0.797115 -0.373468
H21   H     H_    0.107878 0.971468 0.179676 0.189378
H22   H     H_    0.886011 0.126005 0.766073 0.170144
H23   H     H_    0.878788 0.055759 0.191092 0.164151
H24   H     H_    0.116296 0.862039 0.762054 0.161611
N3    N     N_R   0.120573 0.857795 0.257985 0.223940
O21   O     O_R   0.180883 0.836072 0.231181 -0.310938
O22   O     O_R   0.065349 0.802475 0.269197 -0.369068
N4    N     N_R   0.980703 0.130018 0.686304 0.220047
O23   O     O_R   0.960594 0.203555 0.700762 -0.355860
O24   O     O_R   0.039677 0.124283 0.656546 -0.327087
N5    N     N_R   0.253406 0.865755 0.317928 0.242848
O25   O     O_R   0.225859 0.790786 0.323971 -0.291533
O26   O     O_R   0.333608 0.879049 0.316331 -0.341468
N6    N     N_R   0.841785 0.139316 0.629746 0.244130
O27   O     O_R   0.901467 0.161665 0.602906 -0.279281
O28   O     O_R   0.770662 0.177983 0.628487 -0.346838
N7    N     N_R   0.019656 0.128623 0.321620 0.201906
O29   O     O_R   0.976029 0.129548 0.358294 -0.366790
O30   O     O_R   0.025800 0.196728 0.299119 -0.352107
N8    N     N_R   0.879031 0.848877 0.732892 0.202305
O31   O     O_R   0.933796 0.796346 0.717764 -0.404517
O32   O     O_R   0.816615 0.820449 0.756091 -0.337179

loop_
_geom_bond_atom_site_label_1
_geom_bond_atom_site_label_2
_geom_bond_distance
_ccdc_geom_bond_type
O2    C2    1.284630 A    
C16   H6    1.084708 S    
C70   C72   1.417192 S    
O8    Zn1   2.011544 S    
C13   C15   1.399184 A    
O9    Zn3   2.006891 S    
C11   C45   1.390546 A    
C49   C63   1.422806 S    
C38   C52   1.547440 S    
N4    O23   1.300983 A    
C30   N4    1.435946 S    
C12   C46   1.391420 A    
C42   C60   1.425990 S    
C14   C48   1.438215 A    
C37   C51   1.550613 S    
C41   C59   1.425129 S    
C66   C74   1.415129 S    
O14   Zn4   1.998860 S    
O13   Zn3   1.998858 S    
C19   H7    1.083830 S    
N8    O32   1.301592 A    
O5    C3    1.285000 A    
C23   C53   1.390444 A    
C16   C50   1.387354 A    
C56   C58   1.194392 T    
C35   H13   1.083811 S    
C15   C49   1.390034 A    
C36   H14   1.083869 S    
N1    O17   1.300517 A    
C32   N6    1.438579 S    
C14   N2    1.434957 S    
O7    C1    1.286386 A    
C25   C27   1.385134 A    
O4    Zn1   2.002444 S    
C37   C39   1.563714 S    
C50   C64   1.420944 S    
N2    O19   1.301325 A    
C38   C40   1.569457 S    
C17   C19   1.391660 A    
C17   C51   1.419239 A    
O7    Zn2   2.011544 S    
C3    C57   1.416537 S    
N1    O18   1.301663 A    
C54   C68   1.422714 S    
C53   C67   1.421969 S    
C31   N5    1.438683 S    
C21   C51   1.415665 A    
O4    C4    1.286009 A    
C31   C41   1.396711 A    
C23   H9    1.083800 S    
O5    Zn1   1.997218 S    
C29   C39   1.443127 A    
C37   C47   1.557320 S    
C28   H12   1.083941 S    
O13   C73   1.289025 A    
O9    C71   1.288982 A    
C63   C65   1.195399 T    
C9    C43   1.415533 A    
O15   C71   1.288605 A    
C26   H24   1.077274 S    
C6    N8    1.434826 S    
C24   H10   1.083730 S    
C1    C62   1.415783 S    
C67   C69   1.195111 T    
C30   C32   1.407293 A    
C34   H20   1.075843 S    
C55   C57   1.195140 T    
O14   C74   1.288952 A    
C26   C28   1.388294 A    
C4    C58   1.415210 S    
C29   N3    1.432981 S    
C28   C50   1.387216 A    
O11   Zn4   1.996062 S    
O1    C1    1.283337 A    
N8    O31   1.300084 A    
C27   C49   1.386118 A    
C27   H11   1.083878 S    
C30   C40   1.442038 A    
O12   C74   1.287921 A    
C36   C46   1.390085 A    
N6    O28   1.301195 A    
C34   C44   1.415142 A    
C19   C53   1.391925 A    
C25   H23   1.083371 S    
C22   C52   1.413669 A    
C13   C47   1.439817 A    
C29   C31   1.410440 A    
O16   Zn3   2.009680 S    
O15   Zn4   2.009685 S    
O10   Zn4   2.006886 S    
C6    C40   1.442630 A    
O6    Zn2   1.997214 S    
N7    O30   1.299708 A    
C37   C43   1.552034 S    
C60   C62   1.194895 T    
C9    H15   1.079142 S    
C38   C48   1.554230 S    
C64   C66   1.194291 T    
C10   C44   1.420037 A    
O3    Zn2   2.002449 S    
O8    C2    1.284735 A    
C2    C61   1.415011 S    
C24   C54   1.394340 A    
C68   C70   1.195544 T    
C33   C35   1.392271 A    
N3    O21   1.301927 A    
C10   C12   1.391655 A    
O10   C72   1.287792 A    
O1    Zn1   2.009824 S    
C33   H19   1.077488 S    
N5    O25   1.301138 A    
C46   C56   1.420817 S    
C45   C55   1.422035 S    
C25   C47   1.419208 A    
C5    C7    1.387190 A    
C26   C48   1.420314 A    
C12   H4    1.083891 S    
C22   C24   1.392439 A    
N5    O26   1.301214 A    
N4    O24   1.300753 A    
C33   C43   1.417610 A    
O16   C72   1.290097 A    
N6    O27   1.300742 A    
C32   C42   1.395168 A    
O11   C73   1.288747 A    
C8    C42   1.381617 A    
C22   H22   1.078793 S    
N7    O29   1.301313 A    
C7    C41   1.380816 A    
C21   H21   1.075614 S    
C38   C44   1.553291 S    
C69   C71   1.416550 S    
C9    C11   1.387864 A    
C10   H16   1.076441 S    
C14   C16   1.394705 A    
C15   H5    1.084621 S    
C65   C73   1.417002 S    
O6    C4    1.283315 A    
C20   H8    1.083710 S    
C7    H1    1.085259 S    
C18   C20   1.388231 A    
C34   C36   1.387742 A    
C8    H2    1.085376 S    
C11   H3    1.083810 S    
O2    Zn2   2.009827 S    
N2    O20   1.299420 A    
O3    C3    1.285029 A    
O12   Zn3   1.996063 S    
C21   C23   1.388826 A    
C6    C8    1.390679 A    
C59   C61   1.194423 T    
N3    O22   1.300634 A    
C5    C39   1.438419 A    
C20   C54   1.390611 A    
C18   H18   1.083284 S    
C35   C45   1.392955 A    
C17   H17   1.077891 S    
C18   C52   1.417668 A    
C5    N7    1.434106 S    
C13   N1    1.434763 S    
