data_mof_unit_35942.cif
_audit_creation_date              2013-03-05T15:45:35-0500
_audit_creation_method            fapswitch 2.2
_symmetry_space_group_name_H-M    P1
_symmetry_Int_Tables_number       1
_space_group_crystal_system       triclinic
_cell_length_a                    27.695969
_cell_length_b                    10.643722
_cell_length_c                    10.000497
_cell_angle_alpha                 90.830392
_cell_angle_beta                  89.004939
_cell_angle_gamma                 89.922879
_cell_volume                      2947.27055344

loop_
_atom_site_label
_atom_site_type_symbol
_atom_site_description
_atom_site_fract_x
_atom_site_fract_y
_atom_site_fract_z
_atom_type_partial_charge
O1    O     O_R   0.499990 0.319060 0.613040 -0.602017
O2    O     O_R   0.500010 0.319100 0.386900 -0.599314
C1    C     C_R   0.500247 0.262259 0.498696 0.937987
O3    O     O_R   0.428750 0.500000 0.613050 -0.636124
O4    O     O_R   0.428760 0.500040 0.386920 -0.542344
C2    C     C_R   0.405925 0.500920 0.501262 0.958113
Zn1   Zn    Zn3+2 0.499990 0.499970 0.650990 0.982998
Zn2   Zn    Zn3+2 0.500010 0.500030 0.349010 1.019196
O5    O     O_R   0.499990 0.680900 0.613100 -0.618681
O6    O     O_R   0.500010 0.680940 0.386960 -0.608730
O7    O     O_R   0.571240 0.499960 0.613080 -0.610541
O8    O     O_R   0.571250 0.500000 0.386950 -0.621794
C3    C     C_R   0.495302 0.737093 0.501080 0.948389
C4    C     C_R   0.594026 0.499604 0.498790 0.926525
C5    C     C_R   0.177622 0.429262 0.592806 0.583869
O9    O     O_2   0.203722 0.332009 0.637440 -0.560725
N1    N     N_R   0.201227 0.527301 0.534847 -0.323037
C6    C     C_R   0.177557 0.629954 0.489343 0.598967
C7    C     C_R   0.275222 0.497548 0.400243 0.616174
C8    C     C_R   0.325402 0.489949 0.391081 0.543787
C9    C     C_R   0.329842 0.533368 0.630050 -0.267708
C10   C     C_R   0.279935 0.541241 0.638479 -0.177704
C11   C     C_R   0.252611 0.523053 0.524015 0.090203
C12   C     C_R   0.101362 0.529626 0.544757 -0.125449
C13   C     C_R   0.126810 0.428849 0.602323 -0.166095
C14   C     C_R   0.100352 0.334496 0.670099 0.122992
C15   C     C_R   0.126903 0.635161 0.495875 -0.042645
C16   C     C_R   0.353100 0.507511 0.506585 -0.276441
H1    H     H_    0.350169 0.548158 0.720465 0.218257
H2    H     H_    0.262338 0.560865 0.734092 0.193536
C17   C     C_R   0.646802 0.497942 0.494977 -0.130422
C18   C     C_R   0.974550 0.409719 0.563631 0.116260
C19   C     C_R   0.975043 0.615047 0.452517 -0.095235
C20   C     C_R   0.949637 0.509641 0.502034 0.008923
C21   C     C_R   0.948663 0.298725 0.592301 -0.127877
C22   C     C_R   0.898945 0.293728 0.581679 -0.153223
C23   C     C_R   0.873562 0.396687 0.534458 0.005001
C24   C     C_R   0.898876 0.502775 0.488191 -0.104247
C25   C     C_R   0.873352 0.601371 0.428120 -0.159544
C26   C     C_R   0.822500 0.597823 0.431674 0.620200
N2    N     N_R   0.798960 0.495770 0.482049 -0.342437
C27   C     C_R   0.823240 0.394781 0.529573 0.546671
C28   C     C_R   0.722985 0.506481 0.609245 -0.176499
C29   C     C_R   0.672806 0.507709 0.613862 -0.179010
C30   C     C_R   0.671635 0.486181 0.371690 -0.282477
C31   C     C_R   0.721780 0.484532 0.367326 0.707635
C32   C     C_R   0.747471 0.495141 0.486125 0.170355
O10   O     O_2   0.798579 0.293442 0.572953 -0.532129
C33   C     C_R   0.024778 0.420465 0.586794 -0.125798
C34   C     C_R   0.050346 0.524834 0.535392 0.005818
C35   C     C_R   0.025286 0.625360 0.475923 0.093437
C36   C     C_R   0.050144 0.334083 0.665893 0.565152
H3    H     H_    0.654471 0.516945 0.710048 0.185778
H4    H     H_    0.742948 0.514984 0.701092 0.180084
H5    H     H_    0.880535 0.207963 0.609483 0.198566
H6    H     H_    0.965983 0.212134 0.618598 0.214135
O11   O     O_2   0.203304 0.724948 0.435866 -0.500119
C37   C     C_R   0.100964 0.742220 0.456382 0.204547
C38   C     C_R   0.949660 0.702272 0.373769 0.515274
C39   C     C_R   0.899369 0.698228 0.364727 0.134403
O12   O     O_2   0.796531 0.696185 0.388590 -0.502681
C40   C     C_R   0.050899 0.736725 0.449661 -0.187538
H7    H     H_    0.652357 0.477890 0.278676 0.194140
H8    H     H_    0.032664 0.823774 0.429626 0.211504
C41   C     C_2   0.471754 0.933903 0.397192 0.176418
C42   C     C_2   0.482212 0.867249 0.505928 -0.374284
H9    H     H_    0.481769 0.911414 0.604739 0.184796
C43   C     C_2   0.469282 0.069769 0.414461 0.446774
C44   C     C_2   0.501052 0.129415 0.492683 0.272056
C45   C     C_2   0.523630 0.581587 0.924991 -0.117758
N3    N     N_2   0.500520 0.501330 0.852150 -0.188190
H10   H     H_    0.545692 0.651504 0.875194 0.171563
H11   H     H_    0.477232 0.440043 0.898104 0.181533
C46   C     C_2   0.520952 0.586399 0.075347 -0.121164
N4    N     N_2   0.500540 0.501360 0.147810 -0.179386
H12   H     H_    0.538066 0.665224 0.125419 0.179177
H13   H     H_    0.486905 0.422765 0.101532 0.191804
F1    F     F_    0.248426 0.478542 0.289431 -0.606665
N5    N     N_2   0.124489 0.857439 0.425677 -0.246812
H14   H     H_    0.108641 0.905973 0.349290 0.242364
C47   C     C_3   0.133064 0.937296 0.541079 -0.676315
H15   H     H_    0.154315 0.020587 0.509895 0.251781
H16   H     H_    0.153928 0.886077 0.617132 0.254635
H17   H     H_    0.098182 0.969902 0.586158 0.223450
F2    F     F_    0.973152 0.783849 0.292339 -0.689882
N6    N     N_2   0.875687 0.788469 0.284751 -0.238757
H18   H     H_    0.890686 0.877078 0.289285 0.267217
C48   C     C_3   0.867525 0.746705 0.148658 -0.573588
H19   H     H_    0.902540 0.732385 0.094556 0.238637
H20   H     H_    0.846376 0.818913 0.095965 0.234856
H21   H     H_    0.846749 0.657465 0.147313 0.257038
F3    F     F_    0.745453 0.472328 0.247877 -0.648834
N7    N     N_2   0.463452 0.874831 0.270026 -0.280650
H22   H     H_    0.435368 0.811273 0.268901 0.250347
C49   C     C_3   0.469366 0.947556 0.149730 -0.636221
H23   H     H_    0.471976 0.882743 0.061893 0.216211
H24   H     H_    0.503108 0.003781 0.153394 0.239905
H25   H     H_    0.437743 0.010080 0.136726 0.284995
F4    F     F_    0.434362 0.134717 0.350243 -0.657594
F5    F     F_    0.537941 0.070016 0.554423 -0.679811
N8    N     N_2   0.122443 0.241561 0.749851 -0.262777
H26   H     H_    0.146708 0.182314 0.701785 0.266101
C50   C     C_3   0.135441 0.282776 0.882889 -0.556453
H27   H     H_    0.149273 0.201650 0.939412 0.232976
H28   H     H_    0.103252 0.321331 0.937283 0.247897
H29   H     H_    0.163911 0.356007 0.878110 0.243148
F6    F     F_    0.026908 0.254282 0.749840 -0.668879
F7    F     F_    0.346539 0.463778 0.270349 -0.591951

loop_
_geom_bond_atom_site_label_1
_geom_bond_atom_site_label_2
_geom_bond_distance
_ccdc_geom_bond_type
C37   C40   1.390660 A    
N7    H22   1.031638 S    
N2    C27   1.362881 A    
C49   H23   1.110329 S    
C12   C15   1.416745 A    
C4    C17   1.461600 S    
C47   H15   1.110244 S    
C49   H25   1.109851 S    
C30   C31   1.388808 A    
Zn1   O7    2.002950 S    
N1    C11   1.425987 S    
C46   H12   1.084646 S    
C22   C23   1.393780 A    
C1    C44   1.414486 S    
C14   N8    1.423764 S    
Zn1   N3    2.011851 S    
O4    C2    1.296980 A    
O7    C4    1.295933 A    
N6    C48   1.447210 S    
C5    C13   1.408864 A    
C31   F3    1.357117 S    
C5    O9    1.347531 S    
C5    N1    1.363246 A    
C23   C27   1.395587 A    
O5    C3    1.286006 A    
N7    C49   1.446973 S    
C40   H8    1.077633 S    
C6    O11   1.349504 S    
C29   H3    1.083030 S    
C2    C16   1.464644 S    
C21   C22   1.383927 A    
C36   F6    1.357842 S    
C43   C44   1.341737 D    
C45   C46   1.504309 S    
C45   N3    1.292147 D    
C41   C43   1.455292 S    
C41   N7    1.432777 S    
C42   H9    1.087966 S    
C38   C39   1.398034 A    
C19   C38   1.419501 A    
O1    Zn1   1.957197 S    
C9    C10   1.385683 A    
C35   C40   1.407843 A    
O3    Zn1   2.015671 S    
C47   H16   1.111767 S    
C34   C35   1.418110 A    
C3    C42   1.431462 S    
C12   C34   1.418605 A    
C46   N4    1.292347 D    
C6    C15   1.404278 A    
N8    H26   1.029181 S    
C12   C13   1.417290 A    
O3    C2    1.293965 A    
C17   C29   1.403340 A    
C25   C26   1.408792 A    
N5    C47   1.446507 S    
C39   N6    1.425227 S    
N6    H18   1.031798 S    
C8    C16   1.408041 A    
C13   C14   1.417522 A    
C9    H1    1.083079 S    
C30   H7    1.083107 S    
Zn2   N4    2.012155 S    
C26   O12   1.349381 S    
O1    C1    1.285617 A    
C18   C20   1.420715 A    
C7    F1    1.357279 S    
C7    C11   1.400311 A    
C28   C29   1.389773 A    
C38   F2    1.357938 S    
C23   C24   1.409488 A    
C14   C36   1.391950 A    
C28   H4    1.083012 S    
C48   H21   1.111249 S    
Zn2   O8    2.015674 S    
C33   C36   1.415370 A    
N1    C6    1.361427 A    
N2    C32   1.425932 S    
C50   H28   1.111209 S    
C27   O10   1.350332 S    
N4    H13   1.025818 S    
C37   N5    1.424383 S    
C26   N2    1.365675 A    
C9    C16   1.406136 A    
C48   H20   1.110276 S    
C41   C42   1.342537 D    
C47   H17   1.111965 S    
N3    H11   1.025795 S    
N8    C50   1.446456 S    
Zn1   O5    1.968074 S    
C31   C32   1.398646 A    
C10   H2    1.083139 S    
C21   H6    1.076544 S    
C20   C24   1.416956 A    
O2    Zn2   1.968075 S    
C18   C21   1.413114 A    
O8    C4    1.293638 A    
O6    C3    1.285123 A    
O4    Zn2   2.002947 S    
C49   H24   1.111231 S    
C19   C35   1.419209 A    
C7    C8    1.393359 A    
O2    C1    1.279016 A    
C43   F4    1.363188 S    
C22   H5    1.083656 S    
C24   C25   1.411706 A    
C15   C37   1.411122 A    
C25   C39   1.410331 A    
C19   C20   1.416029 A    
C50   H29   1.110418 S    
C18   C33   1.418734 A    
N5    H14   1.032238 S    
C44   F5    1.362419 S    
C48   H19   1.111490 S    
Zn2   O6    1.957196 S    
C33   C34   1.416253 A    
C17   C30   1.405235 A    
C50   H27   1.110244 S    
C10   C11   1.394477 A    
C45   H10   1.084688 S    
C28   C32   1.398916 A    
C8    F7    1.357694 S    
