data_mof_unit_39756.cif
_audit_creation_date              2012-12-11T14:17:29-0500
_audit_creation_method            fapswitch 2.2
_symmetry_space_group_name_H-M    P1
_symmetry_Int_Tables_number       1
_space_group_crystal_system       triclinic
_cell_length_a                    6.943246
_cell_length_b                    13.62424
_cell_length_c                    20.432982
_cell_angle_alpha                 102.149386
_cell_angle_beta                  90.258732
_cell_angle_gamma                 90.637649
_cell_volume                      1889.43160026

loop_
_atom_site_label
_atom_site_type_symbol
_atom_type_description
_atom_site_fract_x
_atom_site_fract_y
_atom_site_fract_z
_atom_type_partial_charge
O1    O     O_R   0.506860 0.599390 0.449240 -0.535368
O2    O     O_R   0.180220 0.594600 0.586780 -0.539690
O3    O     O_R   0.004500 0.400610 0.550760 -0.538619
C1    C     C_R   0.350232 0.618856 0.612488 0.667668
O4    O     O_R   0.177490 0.611290 0.451970 -0.541721
O5    O     O_R   0.001750 0.417420 0.414990 -0.542861
C2    C     C_R   0.346676 0.637324 0.434783 0.682034
O6    O     O_R   0.509610 0.582580 0.585010 -0.547802
O7    O     O_3   0.337420 0.436370 0.488020 -0.371981
V1    V     V_3+5 0.064680 0.511800 0.502220 1.429544
O8    O     O_R   0.671710 0.405400 0.413220 -0.547606
C3    C     C_R   0.839465 0.384263 0.386444 0.745914
O9    O     O_R   0.674440 0.388710 0.548030 -0.541172
C4    C     C_R   0.843104 0.362450 0.565222 0.694516
V2    V     V_3+5 0.564010 0.488200 0.497780 1.419930
O10   O     O_3   0.841140 0.563630 0.511980 -0.372100
C5    C     C_R   0.921644 0.114545 0.613079 -0.146895
H1    H     H_    0.913527 0.165194 0.520523 0.104241
H2    H     H_    0.943382 0.989455 0.696152 0.140983
H3    H     H_    0.948371 0.037524 0.588178 0.117935
C6    C     C_R   0.854594 0.285101 0.605065 -0.031222
C7    C     C_R   0.847838 0.314702 0.928314 -0.220187
C8    C     C_R   0.869598 0.392125 0.894246 -0.095244
C9    C     C_R   0.901869 0.371958 0.824932 0.005628
C10   C     C_R   0.887867 0.270610 0.787474 -0.013835
C11   C     C_R   0.884048 0.191849 0.823991 0.059426
C12   C     C_R   0.882271 0.243435 0.715685 0.063772
C13   C     C_R   0.910883 0.141675 0.683180 0.142584
C14   C     C_R   0.924186 0.067400 0.720622 -0.155393
C15   C     C_R   0.904042 0.091453 0.789637 -0.159759
C16   C     C_R   0.838719 0.312257 0.674795 -0.236635
C17   C     C_R   0.899150 0.186562 0.574411 -0.170615
C18   C     C_R   0.863813 0.215080 0.894499 -0.069432
H4    H     H_    0.789343 0.387025 0.695802 0.109077
H5    H     H_    0.831103 0.332857 0.982218 0.117158
H6    H     H_    0.874352 0.468459 0.923286 0.160590
H7    H     H_    0.906826 0.030361 0.815998 0.119166
C19   C     C_2   0.004893 0.290098 0.284914 -0.117785
C20   C     C_2   0.841610 0.316149 0.319569 -0.299576
H8    H     H_    0.141923 0.319384 0.306982 0.127726
H9    H     H_    0.702998 0.287546 0.299153 0.122557
C21   C     C_2   0.013898 0.222028 0.217332 -0.126454
C22   C     C_2   0.859023 0.183505 0.180264 -0.302673
H10   H     H_    0.156902 0.203758 0.197432 0.130378
H11   H     H_    0.714795 0.201089 0.198629 0.126052
C23   C     C_2   0.209675 0.796155 0.780201 -0.059926
C24   C     C_2   0.358878 0.808452 0.823345 -0.226402
H12   H     H_    0.077673 0.837174 0.794072 0.124944
H13   H     H_    0.486696 0.763295 0.810942 0.143899
C25   C     C_2   0.211395 0.721556 0.715354 -0.129054
C26   C     C_2   0.365639 0.699278 0.674175 -0.165574
H14   H     H_    0.075581 0.682317 0.701210 0.131921
C27   C     C_R   0.446114 0.880897 0.383908 -0.157501
H15   H     H_    0.473056 0.826160 0.474229 0.118155
H16   H     H_    0.455881 0.008621 0.302469 0.120724
H17   H     H_    0.493884 0.955844 0.408058 0.116103
C28   C     C_R   0.358931 0.712343 0.393137 -0.098604
C29   C     C_R   0.348147 0.683802 0.070268 -0.167645
C30   C     C_R   0.353360 0.607565 0.105893 -0.114900
C31   C     C_R   0.359108 0.630692 0.175614 -0.067756
C32   C     C_R   0.351750 0.731355 0.211733 0.098398
C33   C     C_R   0.364095 0.808978 0.174881 0.056531
C34   C     C_R   0.351149 0.757320 0.283327 0.071396
C35   C     C_R   0.405766 0.856924 0.315159 0.125666
C36   C     C_R   0.421442 0.931776 0.278071 -0.192472
C37   C     C_R   0.392738 0.909014 0.209272 -0.188018
C38   C     C_R   0.303233 0.688655 0.324953 -0.080783
C39   C     C_R   0.432661 0.807555 0.421735 -0.161631
C40   C     C_R   0.356585 0.784211 0.104072 -0.073984
H18   H     H_    0.344517 0.664515 0.016037 0.116855
H19   H     H_    0.378120 0.568742 0.200247 0.109739
H20   H     H_    0.356389 0.529962 0.079309 0.122062
H21   H     H_    0.404014 0.969934 0.182911 0.116092
O11   O     O_R   0.203230 0.917310 0.915020 -0.541908
O12   O     O_R   0.535500 0.888690 0.048040 -0.541318
O13   O     O_R   0.711080 0.082610 0.085000 -0.546427
C41   C     C_R   0.366322 0.861681 0.064366 0.690060
O14   O     O_R   0.532630 0.905370 0.913230 -0.540014
O15   O     O_R   0.708190 0.099410 0.949230 -0.537167
C42   C     C_R   0.363442 0.882588 0.887296 0.738272
O16   O     O_R   0.206120 0.900510 0.050790 -0.538261
O17   O     O_3   0.375360 0.063570 0.011990 -0.375530
V3    V     V_3+5 0.648170 0.988200 0.997780 1.447576
O18   O     O_R   0.038240 0.111390 0.951940 -0.542451
C43   C     C_R   0.869907 0.137250 0.934479 0.691920
O19   O     O_R   0.041120 0.094710 0.086750 -0.543495
C44   C     C_R   0.872802 0.115823 0.113503 0.740008
V4    V     V_3+5 0.148810 0.011930 0.002180 1.436972
O20   O     O_3   0.871750 0.936430 0.988010 -0.368560
C45   C     C_2   0.548186 0.759340 0.683621 0.356537
H22   H     H_    0.683311 0.724050 0.666328 0.052713
O21   O     O_2   0.548245 0.849549 0.706998 -0.530100
C46   C     C_2   0.175447 0.599563 0.301609 0.346017
H23   H     H_    0.194439 0.531651 0.320583 0.038962
O22   O     O_2   0.042474 0.602846 0.262824 -0.522265
C47   C     C_2   0.982318 0.455517 0.796630 0.317521
H24   H     H_    0.075174 0.439793 0.753202 0.058458
O23   O     O_2   0.949391 0.543002 0.822328 -0.538010

loop_
_geom_bond_atom_site_label_1
_geom_bond_atom_site_label_2
_ccdc_geom_bond_type
C19   H8    S    
C46   H23   S    
C40   C41   S    
C1    O6    A    
C20   H9    S    
C7    H5    S    
C6    C16   A    
C4    C6    S    
C13   C14   A    
C19   C21   S    
C9    C47   S    
C26   C45   S    
O5    C3    A    
C19   C20   D    
C27   C35   A    
O14   C42   A    
H15   C39   S    
V2    O10   S    
C5    H3    S    
C32   C34   A    
C27   C39   A    
C18   C43   S    
O8    V2    S    
O14   V3    S    
C47   O23   D    
C25   H14   S    
C8    C9    A    
O1    V2    S    
O7    V1    S    
C30   H20   S    
C30   C31   A    
C46   O22   D    
O11   C42   A    
O9    C4    A    
C21   H10   S    
C24   C42   S    
C28   C38   A    
O13   V3    S    
H16   C36   S    
C23   H12   S    
V3    O20   S    
C6    C17   A    
C34   C38   A    
C33   C37   A    
C1    C26   S    
C12   C16   A    
C9    C10   A    
C24   H13   S    
O4    C2    A    
O19   C44   A    
C29   H18   S    
C31   H19   S    
C29   C30   A    
C37   H21   S    
O17   V3    S    
C33   C40   A    
C31   C32   A    
O2    C1    A    
C14   C15   A    
O12   C41   A    
C11   C18   A    
C45   O21   D    
C41   O16   A    
C47   H24   S    
C25   C26   D    
C16   H4    S    
O18   C43   A    
C22   H11   S    
O13   C44   A    
O3    C4    A    
C11   C15   A    
O6    V2    S    
O9    V2    S    
H1    C17   S    
C21   C22   D    
C28   C39   A    
H2    C14   S    
O15   C43   A    
C27   H17   S    
C7    C18   A    
C23   C24   D    
O1    C2    A    
C5    C13   A    
O18   V4    S    
O5    V1    S    
O8    C3    A    
C29   C40   A    
C10   C12   A    
C23   C25   S    
C22   C44   S    
C35   C36   A    
C3    C20   S    
C10   C11   A    
O4    V1    S    
O3    V1    S    
V1    O10   S    
O15   V3    S    
O12   V3    S    
C45   H22   S    
O17   V4    S    
O19   V4    S    
C36   C37   A    
O7    V2    S    
C32   C33   A    
O16   V4    S    
C34   C35   A    
V4    O20   S    
C15   H7    S    
C8    H6    S    
C12   C13   A    
C38   C46   S    
C5    C17   A    
C7    C8    A    
O11   V4    S    
C2    C28   S    
O2    V1    S    
