data_mof_unit_61874.cif
_audit_creation_date              2012-12-11T17:25:57-0500
_audit_creation_method            fapswitch 2.2
_symmetry_space_group_name_H-M    P1
_symmetry_Int_Tables_number       1
_space_group_crystal_system       tetragonal
_cell_length_a                    22.67434
_cell_length_b                    22.67434
_cell_length_c                    23.478116
_cell_angle_alpha                 90.0
_cell_angle_beta                  90.0
_cell_angle_gamma                 90.0
_cell_volume                      12070.7026925

loop_
_atom_site_label
_atom_site_type_symbol
_atom_type_description
_atom_site_fract_x
_atom_site_fract_y
_atom_site_fract_z
_atom_type_partial_charge
C1    C     C_R   0.865743 0.065294 0.398250 0.697355
C2    C     C_R   0.850499 0.919166 0.424201 0.786510
C3    C     C_R   0.153947 0.770330 0.198444 -0.137537
C4    C     C_R   0.686340 0.762062 0.658892 -0.134569
C5    C     C_R   0.313660 0.237938 0.341108 -0.134569
C6    C     C_R   0.153947 0.770330 0.801556 -0.137537
C7    C     C_R   0.846053 0.229670 0.198444 -0.137537
C8    C     C_R   0.770330 0.153947 0.198444 -0.137537
C9    C     C_R   0.229670 0.846053 0.801556 -0.137537
C10   C     C_R   0.237938 0.313660 0.341108 -0.134569
C11   C     C_R   0.762062 0.686340 0.658892 -0.134569
C12   C     C_R   0.229670 0.846053 0.198444 -0.137537
C13   C     C_R   0.065294 0.865743 0.601750 0.697355
C14   C     C_R   0.770330 0.153947 0.801556 -0.137537
C15   C     C_R   0.762062 0.686340 0.341108 -0.134569
C16   C     C_R   0.237938 0.313660 0.658892 -0.134569
C17   C     C_R   0.258493 0.258493 0.641062 0.118714
C18   C     C_R   0.741507 0.741507 0.358938 0.118714
C19   C     C_R   0.823067 0.176932 0.780057 0.124435
C20   C     C_R   0.176932 0.823067 0.219943 0.124435
C21   C     C_R   0.741508 0.741508 0.641062 0.118713
C22   C     C_R   0.258492 0.258492 0.358938 0.118713
C23   C     C_R   0.176932 0.823067 0.780057 0.124435
C24   C     C_R   0.934706 0.134257 0.398250 0.697355
C25   C     C_R   0.823067 0.176932 0.219943 0.124435
C26   C     C_R   0.676933 0.676933 0.280057 0.124435
C27   C     C_R   0.323067 0.323067 0.719943 0.124435
C28   C     C_R   0.241507 0.758493 0.141062 0.118714
C29   C     C_R   0.758493 0.241508 0.858937 0.118714
C30   C     C_R   0.323067 0.323067 0.280057 0.124435
C31   C     C_R   0.676933 0.676933 0.719943 0.124435
C32   C     C_R   0.758493 0.241507 0.141062 0.118714
C33   C     C_R   0.241507 0.758493 0.858937 0.118714
C34   C     C_R   0.850499 0.919166 0.575799 0.786510
C35   C     C_R   0.149501 0.080834 0.424201 0.786510
C36   C     C_R   0.934706 0.134257 0.601750 0.697355
C37   C     C_R   0.065294 0.865743 0.398250 0.697355
C38   C     C_R   0.350499 0.580834 0.924201 0.786510
C39   C     C_R   0.649501 0.419166 0.075799 0.786510
C40   C     C_R   0.434706 0.365743 0.898250 0.697355
C41   C     C_R   0.134257 0.934706 0.601750 0.697355
C42   C     C_R   0.565294 0.634257 0.101750 0.697354
C43   C     C_R   0.649501 0.419166 0.924201 0.786510
C44   C     C_R   0.350499 0.580834 0.075799 0.786510
C45   C     C_R   0.565294 0.634257 0.898250 0.697355
C46   C     C_R   0.434706 0.365743 0.101750 0.697355
C47   C     C_R   0.634257 0.565294 0.101750 0.697354
C48   C     C_R   0.365743 0.434706 0.898250 0.697355
C49   C     C_R   0.580834 0.350499 0.075799 0.786510
C50   C     C_R   0.419166 0.649501 0.924201 0.786510
C51   C     C_R   0.365743 0.434706 0.101750 0.697355
C52   C     C_R   0.919166 0.850499 0.424201 0.786510
C53   C     C_R   0.634257 0.565294 0.898250 0.697355
C54   C     C_R   0.419166 0.649501 0.075799 0.786510
C55   C     C_R   0.580834 0.350499 0.924201 0.786510
C56   C     C_1   0.217799 0.217799 0.616732 -0.034593
C57   C     C_1   0.782200 0.782200 0.383268 -0.034593
C58   C     C_1   0.847561 0.152439 0.729404 -0.038544
C59   C     C_1   0.152439 0.847561 0.270596 -0.038544
C60   C     C_1   0.782200 0.782200 0.616732 -0.034593
C61   C     C_1   0.217799 0.217799 0.383268 -0.034593
C62   C     C_1   0.152439 0.847561 0.729404 -0.038544
C63   C     C_R   0.080834 0.149501 0.575799 0.786509
C64   C     C_1   0.847561 0.152439 0.270596 -0.038544
C65   C     C_1   0.652439 0.652439 0.229404 -0.038544
C66   C     C_1   0.347561 0.347561 0.770596 -0.038544
C67   C     C_1   0.282201 0.717799 0.116732 -0.034593
C68   C     C_1   0.717799 0.282201 0.883268 -0.034593
C69   C     C_1   0.347561 0.347561 0.229404 -0.038544
C70   C     C_1   0.652439 0.652439 0.770596 -0.038544
C71   C     C_1   0.717799 0.282201 0.116732 -0.034593
C72   C     C_1   0.282200 0.717799 0.883268 -0.034593
C73   C     C_1   0.817957 0.817957 0.397867 0.250480
C74   C     C_R   0.134257 0.934706 0.398250 0.697355
C75   C     C_1   0.182043 0.182043 0.602133 0.250480
C76   C     C_1   0.134076 0.865924 0.314995 0.209883
C77   C     C_1   0.865924 0.134076 0.685005 0.209883
C78   C     C_1   0.182043 0.182043 0.397867 0.250480
C79   C     C_1   0.817957 0.817957 0.602133 0.250480
C80   C     C_1   0.865924 0.134076 0.314995 0.209883
C81   C     C_1   0.134076 0.865924 0.685005 0.209883
C82   C     C_1   0.365924 0.365924 0.814995 0.209883
C83   C     C_1   0.634076 0.634076 0.185005 0.209882
C84   C     C_1   0.682042 0.317957 0.897867 0.250480
C85   C     C_R   0.865743 0.065294 0.601750 0.697355
C86   C     C_1   0.317957 0.682042 0.102133 0.250480
C87   C     C_1   0.634076 0.634076 0.814995 0.209883
C88   C     C_1   0.365924 0.365924 0.185005 0.209883
C89   C     C_1   0.317957 0.682042 0.897867 0.250480
C90   C     C_1   0.682042 0.317957 0.102133 0.250480
C91   C     C_R   0.886990 0.113010 0.368344 -0.391293
C92   C     C_R   0.113010 0.886990 0.631656 -0.391293
C93   C     C_R   0.861384 0.861384 0.410366 -0.475028
C94   C     C_R   0.138616 0.138616 0.589634 -0.475028
C95   C     C_R   0.113010 0.886990 0.368344 -0.391293
C96   C     C_R   0.080834 0.149501 0.424201 0.786510
C97   C     C_R   0.886990 0.113010 0.631656 -0.391293
C98   C     C_R   0.138616 0.138616 0.410366 -0.475028
C99   C     C_R   0.861384 0.861384 0.589634 -0.475028
C100  C     C_R   0.361384 0.638616 0.910366 -0.475028
C101  C     C_R   0.638616 0.361384 0.089634 -0.475028
C102  C     C_R   0.386990 0.386990 0.868344 -0.391293
C103  C     C_R   0.613010 0.613010 0.131656 -0.391292
C104  C     C_R   0.638616 0.361384 0.910366 -0.475028
C105  C     C_R   0.361384 0.638616 0.089634 -0.475028
C106  C     C_R   0.613010 0.613010 0.868344 -0.391293
C107  C     C_R   0.919166 0.850499 0.575799 0.786510
C108  C     C_R   0.386990 0.386990 0.131656 -0.391293
C109  C     C_R   0.729670 0.653947 0.301556 -0.137537
C110  C     C_R   0.270330 0.346052 0.698444 -0.137537
C111  C     C_R   0.262062 0.813660 0.158892 -0.134569
C112  C     C_R   0.737938 0.186340 0.841108 -0.134569
C113  C     C_R   0.270330 0.346052 0.301556 -0.137537
C114  C     C_R   0.729670 0.653947 0.698444 -0.137537
C115  C     C_R   0.737938 0.186340 0.158892 -0.134569
C116  C     C_R   0.262062 0.813660 0.841108 -0.134569
C117  C     C_R   0.186340 0.737938 0.841108 -0.134569
C118  C     C_R   0.149501 0.080834 0.575799 0.786509
C119  C     C_R   0.813660 0.262062 0.158892 -0.134569
C120  C     C_R   0.653947 0.729670 0.698444 -0.137537
C121  C     C_R   0.346052 0.270330 0.301556 -0.137537
C122  C     C_R   0.813660 0.262062 0.841108 -0.134569
C123  C     C_R   0.186340 0.737938 0.158892 -0.134569
C124  C     C_R   0.346052 0.270330 0.698444 -0.137537
C125  C     C_R   0.653947 0.729670 0.301556 -0.137537
C126  C     C_R   0.313660 0.237938 0.658892 -0.134569
C127  C     C_R   0.686340 0.762062 0.341108 -0.134569
C128  C     C_R   0.846053 0.229670 0.801556 -0.137537
F1    F     F_    0.817378 0.033619 0.384357 -0.624987
F2    F     F_    0.795989 0.940209 0.436427 -0.573458
F3    F     F_    0.033619 0.817378 0.615642 -0.624987
F4    F     F_    0.966381 0.182622 0.384357 -0.624987
F5    F     F_    0.795989 0.940209 0.563573 -0.573458
F6    F     F_    0.204011 0.059791 0.436427 -0.573458
F7    F     F_    0.966381 0.182622 0.615642 -0.624987
F8    F     F_    0.033619 0.817378 0.384357 -0.624987
F9    F     F_    0.295989 0.559791 0.936427 -0.573458
F10   F     F_    0.704011 0.440209 0.063573 -0.573458
F11   F     F_    0.466381 0.317378 0.884357 -0.624987
F12   F     F_    0.182622 0.966381 0.615642 -0.624987
F13   F     F_    0.533619 0.682622 0.115642 -0.624987
F14   F     F_    0.704011 0.440209 0.936427 -0.573458
F15   F     F_    0.295989 0.559791 0.063573 -0.573458
F16   F     F_    0.533619 0.682622 0.884357 -0.624987
F17   F     F_    0.466381 0.317378 0.115642 -0.624987
F18   F     F_    0.682622 0.533619 0.115642 -0.624987
F19   F     F_    0.317378 0.466381 0.884357 -0.624987
F20   F     F_    0.559791 0.295989 0.063573 -0.573458
F21   F     F_    0.440209 0.704011 0.936427 -0.573458
F22   F     F_    0.317378 0.466381 0.115642 -0.624987
F23   F     F_    0.940209 0.795989 0.436427 -0.573458
F24   F     F_    0.682622 0.533619 0.884357 -0.624987
F25   F     F_    0.440209 0.704011 0.063573 -0.573458
F26   F     F_    0.559791 0.295989 0.936427 -0.573458
F27   F     F_    0.059791 0.204011 0.563573 -0.573458
F28   F     F_    0.182622 0.966381 0.384357 -0.624987
F29   F     F_    0.817378 0.033619 0.615642 -0.624987
F30   F     F_    0.059791 0.204011 0.436427 -0.573458
F31   F     F_    0.940209 0.795989 0.563573 -0.573458
F32   F     F_    0.204011 0.059791 0.563573 -0.573458
H1    H     H_    0.805217 0.670737 0.354014 0.153692
H2    H     H_    0.886586 0.247895 0.215424 0.150339
H3    H     H_    0.670738 0.805217 0.645985 0.153692
H4    H     H_    0.329262 0.194783 0.354014 0.153692
H5    H     H_    0.886586 0.247895 0.784575 0.150339
H6    H     H_    0.113414 0.752105 0.215424 0.150339
H7    H     H_    0.329262 0.194783 0.645985 0.153692
H8    H     H_    0.670738 0.805217 0.354014 0.153692
H9    H     H_    0.386586 0.252105 0.715425 0.150339
H10   H     H_    0.613414 0.747895 0.284575 0.150339
H11   H     H_    0.829262 0.305217 0.854014 0.153692
H12   H     H_    0.194783 0.329262 0.645985 0.153692
H13   H     H_    0.170737 0.694783 0.145985 0.153692
H14   H     H_    0.613414 0.747895 0.715425 0.150339
H15   H     H_    0.386586 0.252105 0.284575 0.150339
H16   H     H_    0.170737 0.694783 0.854014 0.153692
H17   H     H_    0.829262 0.305217 0.145985 0.153692
H18   H     H_    0.694783 0.170738 0.145985 0.153692
H19   H     H_    0.305217 0.829262 0.854014 0.153692
H20   H     H_    0.252105 0.386586 0.284575 0.150339
H21   H     H_    0.747895 0.613414 0.715425 0.150339
H22   H     H_    0.305217 0.829262 0.145985 0.153692
H23   H     H_    0.247895 0.886586 0.215424 0.150339
H24   H     H_    0.694783 0.170738 0.854014 0.153692
H25   H     H_    0.747895 0.613414 0.284575 0.150339
H26   H     H_    0.252105 0.386586 0.715425 0.150339
H27   H     H_    0.752105 0.113414 0.784575 0.150339
H28   H     H_    0.194783 0.329262 0.354014 0.153692
H29   H     H_    0.805217 0.670738 0.645985 0.153692
H30   H     H_    0.752105 0.113414 0.215424 0.150339
H31   H     H_    0.247895 0.886586 0.784575 0.150339
H32   H     H_    0.113414 0.752105 0.784575 0.150339
N1    N     N_R   0.900580 0.056480 0.443850 -0.158830
N2    N     N_R   0.900580 0.943520 0.443850 -0.188763
N3    N     N_R   0.056480 0.900580 0.556150 -0.158830
N4    N     N_R   0.943520 0.099420 0.443850 -0.158830
N5    N     N_R   0.900580 0.943520 0.556150 -0.188763
N6    N     N_R   0.099420 0.056480 0.443850 -0.188763
N7    N     N_R   0.943520 0.099420 0.556150 -0.158830
N8    N     N_R   0.056480 0.900580 0.443850 -0.158830
N9    N     N_R   0.400580 0.556480 0.943850 -0.188763
N10   N     N_R   0.599420 0.443520 0.056150 -0.188763
N11   N     N_R   0.443520 0.400580 0.943850 -0.158830
N12   N     N_R   0.099420 0.943520 0.556150 -0.158830
N13   N     N_R   0.556480 0.599420 0.056150 -0.158830
N14   N     N_R   0.599420 0.443520 0.943850 -0.188763
N15   N     N_R   0.400580 0.556480 0.056150 -0.188763
N16   N     N_R   0.556480 0.599420 0.943850 -0.158830
N17   N     N_R   0.443520 0.400580 0.056150 -0.158830
N18   N     N_R   0.599420 0.556480 0.056150 -0.158830
N19   N     N_R   0.400580 0.443520 0.943850 -0.158830
N20   N     N_R   0.556480 0.400580 0.056150 -0.188763
N21   N     N_R   0.443520 0.599420 0.943850 -0.188763
N22   N     N_R   0.400580 0.443520 0.056150 -0.158830
N23   N     N_R   0.943520 0.900580 0.443850 -0.188763
N24   N     N_R   0.599420 0.556480 0.943850 -0.158830
N25   N     N_R   0.443520 0.599420 0.056150 -0.188763
N26   N     N_R   0.556480 0.400580 0.943850 -0.188763
N27   N     N_R   0.056480 0.099420 0.556150 -0.188763
N28   N     N_R   0.099420 0.943520 0.443850 -0.158830
N29   N     N_R   0.900580 0.056480 0.556150 -0.158830
N30   N     N_R   0.056480 0.099420 0.443850 -0.188763
N31   N     N_R   0.943520 0.900580 0.556150 -0.188763
N32   N     N_R   0.099420 0.056480 0.556150 -0.188763
Ni1   Ni    Ni4+2 0.901480 0.000000 0.500000 0.296444
Ni2   Ni    Ni4+2 0.098520 0.000000 0.500000 0.296444
Ni3   Ni    Ni4+2 0.000000 0.901480 0.500000 0.296444
Ni4   Ni    Ni4+2 0.000000 0.098520 0.500000 0.296444
Ni5   Ni    Ni4+2 0.401480 0.500000 0.000000 0.296444
Ni6   Ni    Ni4+2 0.598520 0.500000 0.000000 0.296444
Ni7   Ni    Ni4+2 0.500000 0.401480 0.000000 0.296444
Ni8   Ni    Ni4+2 0.500000 0.598520 0.000000 0.296444

loop_
_geom_bond_atom_site_label_1
_geom_bond_atom_site_label_2
_ccdc_geom_bond_type
C15   C18   A    
C96   F30   S    
N4    Ni4   S    
C60   C79   T    
C33   C117  A    
C4    C21   A    
N29   Ni1   S    
C55   F26   S    
C15   C109  A    
C29   C112  A    
C118  F32   S    
C66   C82   T    
C34   N5    A    
C36   N7    A    
C73   C93   S    
C42   C103  A    
C54   F25   S    
C28   C123  A    
C16   C110  A    
C112  H24   S    
C44   C105  A    
N14   N26   A    
C14   C112  A    
C71   C90   T    
C63   C94   A    
N13   Ni8   S    
C83   C103  S    
N2    Ni1   S    
C79   C99   S    
N6    N30   A    
C113  H20   S    
C1    F1    S    
C44   F15   S    
N25   Ni8   S    
C49   C101  A    
C88   C108  S    
N31   Ni3   S    
C17   C126  A    
C65   C83   T    
C46   F17   S    
N14   Ni6   S    
C24   N4    A    
C57   C73   T    
C48   F19   S    
C5    C121  A    
C19   C128  A    
C37   C95   A    
C42   N13   A    
N17   Ni7   S    
C37   N8    A    
C63   N27   A    
C11   C114  A    
C24   F4    S    
C43   C104  A    
C41   F12   S    
C33   C72   S    
N27   N32   A    
C26   C125  A    
C81   C92   S    
C53   C106  A    
C31   C70   S    
C59   C76   T    
C5    C22   A    
C51   F22   S    
C8    H30   S    
C127  H8    S    
C33   C116  A    
C38   N9    A    
C96   C98   A    
C78   C98   S    
C45   F16   S    
C10   H28   S    
C48   N19   A    
C6    C117  A    
C77   C97   S    
C36   C97   A    
N7    N29   A    
N27   Ni4   S    
C55   N26   A    
C35   C98   A    
N7    Ni4   S    
C31   C114  A    
C8    C115  A    
N10   Ni6   S    
C26   C65   S    
N9    Ni5   S    
C47   F18   S    
C3    H6    S    
N16   N24   A    
C56   C75   T    
C43   N14   A    
C8    C25   A    
C64   C80   T    
N11   N19   A    
C85   F29   S    
C70   C87   T    
C14   C19   A    
C35   F6    S    
C123  H13   S    
C3    C123  A    
C39   C101  A    
C32   C71   S    
C107  N31   A    
C23   C62   S    
C28   C111  A    
C82   C102  S    
N26   Ni7   S    
C7    H2    S    
N15   N25   A    
C40   F11   S    
C47   C103  A    
C124  H9    S    
C89   C100  S    
C118  N32   A    
C68   C84   T    
C5    H4    S    
C7    C119  A    
C52   C93   A    
C28   C67   S    
C27   C110  A    
C21   C60   S    
C38   C100  A    
C126  H7    S    
C52   N23   A    
N2    N23   A    
N20   Ni7   S    
C9    C23   A    
N3    N12   A    
C34   F5    S    
C109  H25   S    
C40   C102  A    
C55   C104  A    
C11   C21   A    
C111  H22   S    
C10   C22   A    
C49   F20   S    
C46   C108  A    
C2    N2    A    
N8    Ni3   S    
C19   C58   S    
C50   N21   A    
C1    N1    A    
C90   C101  S    
C18   C127  A    
C53   F24   S    
C29   C68   S    
C16   H12   S    
C18   C57   S    
N24   Ni6   S    
C26   C109  A    
C30   C121  A    
N30   Ni4   S    
C61   C78   T    
N1    N4    A    
C48   C102  A    
C29   C122  A    
C12   C20   A    
C42   F13   S    
C34   C99   A    
C13   F3    S    
C4    H3    S    
C74   F28   S    
C3    C20   A    
C41   N12   A    
C125  H10   S    
N21   Ni8   S    
C17   C56   S    
N9    N21   A    
C74   N28   A    
N18   Ni6   S    
C69   C88   T    
C39   N10   A    
N16   Ni8   S    
C20   C59   S    
C117  H16   S    
C120  H14   S    
C58   C77   T    
C62   C81   T    
C51   C108  A    
C45   N16   A    
C96   N30   A    
C13   C92   A    
C128  H5    S    
C84   C104  S    
C47   N18   A    
C86   C105  S    
C32   C119  A    
N12   Ni2   S    
C114  H21   S    
C36   F7    S    
C30   C69   S    
C45   C106  A    
C51   N22   A    
C54   N25   A    
C124  C126  A    
C110  H26   S    
C67   C86   T    
C37   F8    S    
N19   Ni5   S    
C54   C105  A    
C9    C116  A    
C74   C95   A    
C15   H1    S    
C2    C93   A    
N15   Ni5   S    
N10   N20   A    
N5    N31   A    
N32   Ni2   S    
C107  F31   S    
C27   C124  A    
C53   N24   A    
C46   N17   A    
C99   C107  A    
C40   N11   A    
C50   C100  A    
N17   N22   A    
C7    C25   A    
N3    Ni3   S    
C80   C91   S    
N1    Ni1   S    
C76   C95   S    
C27   C66   S    
C22   C61   S    
N11   Ni7   S    
C14   H27   S    
C94   C118  A    
C50   F21   S    
C121  H15   S    
C87   C106  S    
N13   N18   A    
C52   F23   S    
N8    N28   A    
C6    C23   A    
N28   Ni2   S    
C49   N20   A    
C2    F2    S    
C38   F9    S    
N23   Ni3   S    
C44   N15   A    
C32   C115  A    
C122  C128  A    
C16   C17   A    
C31   C120  A    
C39   F10   S    
C115  H18   S    
C85   C97   A    
C63   F27   S    
C24   C91   A    
C12   H23   S    
C41   C92   A    
C35   N6    A    
C1    C91   A    
C122  H11   S    
C13   N3    A    
C116  H19   S    
C6    H32   S    
C125  C127  A    
C4    C120  A    
C43   F14   S    
C72   C89   T    
C119  H17   S    
C11   H29   S    
C9    H31   S    
N22   Ni5   S    
C85   N29   A    
C10   C113  A    
C25   C64   S    
C12   C111  A    
N6    Ni2   S    
C75   C94   S    
C30   C113  A    
N5    Ni1   S    
