data_mof_unit_10707.cif
_audit_creation_date              2013-03-05T15:42:08-0500
_audit_creation_method            fapswitch 2.2
_symmetry_space_group_name_H-M    P1
_symmetry_Int_Tables_number       1
_space_group_crystal_system       triclinic
_cell_length_a                    21.969089
_cell_length_b                    7.19076
_cell_length_c                    14.94725
_cell_angle_alpha                 89.977956
_cell_angle_beta                  107.57912
_cell_angle_gamma                 90.025573
_cell_volume                      2251.01317968

loop_
_atom_site_label
_atom_site_type_symbol
_atom_site_description
_atom_site_fract_x
_atom_site_fract_y
_atom_site_fract_z
_atom_type_partial_charge
O1    O     O_R   0.584770 0.505770 0.002090 -0.542922
O2    O     O_R   0.415230 0.005770 0.997910 -0.552524
O3    O     O_R   0.467060 0.173340 0.861950 -0.558724
O4    O     O_R   0.532940 0.673340 0.138050 -0.542313
C1    C     C_R   0.454802 0.344673 0.825704 0.949026
C2    C     C_R   0.545152 0.844676 0.174248 0.946269
O5    O     O_R   0.587510 0.175890 0.993210 -0.565331
O6    O     O_R   0.412490 0.675890 0.006790 -0.556255
O7    O     O_R   0.536540 0.008150 0.130100 -0.569607
O8    O     O_R   0.463460 0.508150 0.869900 -0.553080
C3    C     C_R   0.612967 0.345255 0.997695 0.883925
C4    C     C_R   0.387054 0.845220 0.002397 0.879950
O9    O     O_3   0.483140 0.340040 0.044760 -0.287109
O10   O     O_3   0.516860 0.840040 0.955240 -0.285206
V1    V     V_3+5 0.503130 0.064190 0.991700 1.200731
V2    V     V_3+5 0.496870 0.564190 0.008300 1.217650
C5    C     C_2   0.216644 0.721466 0.010412 0.342075
C6    C     C_2   0.783079 0.221806 0.988401 0.344644
C7    C     C_2   0.180996 0.880613 0.997531 -0.267139
C8    C     C_2   0.819013 0.380525 0.002469 -0.265251
H1    H     H_    0.200857 0.009813 0.981695 0.110112
H2    H     H_    0.799433 0.509146 0.019463 0.109119
C9    C     C_2   0.282818 0.714127 0.002586 -0.126153
C10   C     C_2   0.716987 0.214215 0.996571 -0.137611
C11   C     C_2   0.320582 0.862242 0.005303 -0.215228
C12   C     C_2   0.679457 0.362380 0.994833 -0.210836
H3    H     H_    0.302303 0.576485 0.998962 0.147418
H4    H     H_    0.697294 0.076503 0.999373 0.146396
H5    H     H_    0.303513 0.001483 0.011641 0.102297
H6    H     H_    0.696687 0.501749 0.989123 0.107244
C13   C     C_R   0.931658 0.873154 0.722397 -0.189196
C14   C     C_R   0.068667 0.373010 0.277624 -0.190447
C15   C     C_R   0.574611 0.855096 0.276294 -0.202953
C16   C     C_R   0.425592 0.355387 0.723532 -0.206645
C17   C     C_R   0.936187 0.696449 0.585255 0.422446
C18   C     C_R   0.063833 0.198260 0.415365 0.425512
C19   C     C_R   0.963079 0.750091 0.679333 -0.216146
C20   C     C_R   0.036986 0.251334 0.321112 -0.216217
C21   C     C_R   0.871417 0.940738 0.671964 0.438082
C22   C     C_R   0.129380 0.438346 0.327499 0.440081
C23   C     C_R   0.836961 0.853117 0.586307 -0.119894
C24   C     C_R   0.163413 0.351744 0.413631 -0.118906
C25   C     C_R   0.871916 0.747026 0.537741 -0.136394
C26   C     C_R   0.128029 0.249426 0.462955 -0.136032
C27   C     C_R   0.768983 0.865187 0.548611 -0.023321
C28   C     C_R   0.231444 0.360259 0.450979 -0.020560
C29   C     C_R   0.739365 0.821180 0.452462 -0.065186
C30   C     C_R   0.260740 0.321131 0.547763 -0.065795
C31   C     C_R   0.775877 0.727375 0.403848 -0.114966
C32   C     C_R   0.223663 0.234312 0.597792 -0.114677
C33   C     C_R   0.840523 0.688595 0.444703 0.360437
C34   C     C_R   0.158994 0.195075 0.556876 0.358368
C35   C     C_R   0.728858 0.895487 0.606240 0.459359
C36   C     C_R   0.271651 0.380651 0.392684 0.459218
C37   C     C_R   0.663040 0.914303 0.566013 -0.096345
C38   C     C_R   0.337843 0.390914 0.432485 -0.096488
C39   C     C_R   0.634721 0.895242 0.469627 -0.098999
C40   C     C_R   0.366064 0.376286 0.529140 -0.094959
C41   C     C_R   0.672601 0.855477 0.410453 0.001269
C42   C     C_R   0.327755 0.351379 0.589094 -0.000118
C43   C     C_R   0.568182 0.908968 0.432933 -0.081527
C44   C     C_R   0.432759 0.380631 0.565562 -0.079601
C45   C     C_R   0.537274 0.882599 0.337211 0.266746
C46   C     C_R   0.463286 0.365266 0.662050 0.265269
C47   C     C_R   0.641841 0.854341 0.311634 0.322236
C48   C     C_R   0.358369 0.359369 0.687851 0.320459
H7    H     H_    0.633695 0.938159 0.611663 0.136256
H8    H     H_    0.367434 0.406273 0.386527 0.127924
H9    H     H_    0.008534 0.692695 0.720272 0.110285
H10   H     H_    0.991415 0.194425 0.280301 0.108493
H11   H     H_    0.754086 0.669999 0.335012 0.175975
H12   H     H_    0.245173 0.181550 0.667742 0.175529
H13   H     H_    0.539884 0.934606 0.479853 0.144835
H14   H     H_    0.461410 0.395226 0.518255 0.140622
O11   O     O_R   0.036450 0.233070 0.130130 -0.579241
O12   O     O_R   0.963550 0.733070 0.869870 -0.579465
O13   O     O_R   0.912470 0.560570 0.006790 -0.536689
O14   O     O_R   0.087530 0.060570 0.993210 -0.535635
C49   C     C_R   0.886536 0.390992 0.001190 0.841527
C50   C     C_R   0.113457 0.891021 0.998748 0.840397
O15   O     O_R   0.032920 0.562940 0.138050 -0.535588
O16   O     O_R   0.967080 0.062940 0.861950 -0.532977
O17   O     O_R   0.084790 0.730500 0.002090 -0.516211
O18   O     O_R   0.915210 0.230500 0.997910 -0.516220
C51   C     C_R   0.044248 0.393319 0.175037 0.911481
C52   C     C_R   0.955836 0.893376 0.824968 0.911369
O19   O     O_3   0.016820 0.396170 0.955260 -0.274468
O20   O     O_3   0.983180 0.896170 0.044740 -0.276481
V3    V     V_3+5 0.996880 0.672090 0.008300 1.253147
V4    V     V_3+5 0.003120 0.172090 0.991700 1.255514
N1    N     N_R   0.191755 0.548438 0.032382 0.102724
O21   O     O_R   0.193932 0.400807 0.983172 -0.380237
O22   O     O_R   0.179951 0.529755 0.112073 -0.301284
N2    N     N_R   0.807515 0.049721 0.964549 0.102329
O23   O     O_R   0.804065 0.899280 0.011153 -0.384609
O24   O     O_R   0.820469 0.035629 0.885500 -0.301951
O25   O     O_3   0.846863 0.091274 0.707115 -0.567177
C53   C     C_3   0.857914 0.252597 0.660564 0.234706
H15   H     H_    0.828448 0.251987 0.585541 0.016173
H16   H     H_    0.909412 0.269342 0.666393 0.046488
H17   H     H_    0.843958 0.375555 0.694430 0.059429
O26   O     O_3   0.154901 0.585608 0.291297 -0.566899
C54   C     C_3   0.144292 0.749841 0.335967 0.235124
H18   H     H_    0.173796 0.751782 0.410971 0.013839
H19   H     H_    0.092851 0.768698 0.329991 0.042103
H20   H     H_    0.158542 0.870325 0.300639 0.059015
O27   O     O_3   0.752319 0.887223 0.703019 -0.574150
C55   C     C_3   0.743866 0.705026 0.732357 0.271315
H21   H     H_    0.765118 0.599386 0.696345 -0.028035
H22   H     H_    0.692436 0.674326 0.720807 0.065616
H23   H     H_    0.768562 0.693251 0.808737 0.118859
O28   O     O_3   0.247289 0.371843 0.295936 -0.576745
C56   C     C_3   0.257743 0.192058 0.265617 0.266031
H24   H     H_    0.242522 0.081205 0.306278 -0.025837
H25   H     H_    0.308731 0.172850 0.269815 0.084124
H26   H     H_    0.228942 0.175922 0.191020 0.109047
N3    N     N_R   0.873421 0.595253 0.388103 0.105976
O29   O     O_R   0.849417 0.443786 0.343587 -0.418893
O30   O     O_R   0.918202 0.682130 0.364354 -0.367052
N4    N     N_R   0.125662 0.105569 0.614132 0.107035
O31   O     O_R   0.079642 0.192754 0.634394 -0.366507
O32   O     O_R   0.149888 0.957780 0.661945 -0.414762
O33   O     O_3   0.676157 0.861117 0.247691 -0.662344
C57   C     C_3   0.696850 0.045573 0.242447 0.191454
H27   H     H_    0.730861 0.091603 0.310232 0.057129
H28   H     H_    0.655836 0.143628 0.220239 0.034387
H29   H     H_    0.722420 0.051480 0.188890 0.091398
O34   O     O_3   0.323890 0.377466 0.751145 -0.661331
C58   C     C_3   0.305091 0.564890 0.752345 0.195994
H30   H     H_    0.271693 0.607877 0.683472 0.053156
H31   H     H_    0.347106 0.659683 0.772772 0.034100
H32   H     H_    0.279451 0.580101 0.805463 0.088803
N5    N     N_R   0.468503 0.889726 0.303215 0.083150
O35   O     O_R   0.436864 0.789909 0.231693 -0.384801
O36   O     O_R   0.436789 0.982047 0.349428 -0.382780
N6    N     N_R   0.532105 0.364004 0.695691 0.083544
O37   O     O_R   0.562756 0.439072 0.775804 -0.392062
O38   O     O_R   0.564686 0.303770 0.641902 -0.374510
O39   O     O_3   0.967748 0.569577 0.544860 -0.627084
C59   C     C_3   0.031717 0.623462 0.557637 0.280029
H33   H     H_    0.063373 0.567817 0.624891 0.081112
H34   H     H_    0.037575 0.776687 0.554756 0.120050
H35   H     H_    0.047512 0.562686 0.500176 0.057065
O40   O     O_3   0.032519 0.070733 0.455894 -0.628997
C60   C     C_3   0.968232 0.121890 0.442221 0.280000
H36   H     H_    0.937128 0.064635 0.374976 0.078933
H37   H     H_    0.961725 0.274842 0.444745 0.124906
H38   H     H_    0.952372 0.060551 0.499519 0.056855

loop_
_geom_bond_atom_site_label_1
_geom_bond_atom_site_label_2
_geom_bond_distance
_ccdc_geom_bond_type
C40   C44   1.400856 A    
C20   H10   1.082966 S    
C19   H9    1.083078 S    
O1    C3    1.321194 A    
C59   H35   1.108836 S    
O2    C4    1.320929 A    
O34   C58   1.411466 S    
C16   C48   1.410853 A    
C2    O7    1.333138 A    
C46   N6    1.442076 S    
O25   C53   1.410657 S    
C15   C47   1.410417 A    
O33   C57   1.411740 S    
C21   C23   1.422680 A    
O14   V4    2.014558 S    
O5    C3    1.333146 A    
O13   V3    2.013908 S    
C5    C9    1.494231 S    
O18   V4    2.005991 S    
C6    C10   1.494363 S    
C45   N5    1.442155 S    
C7    H1    1.082310 S    
C10   C12   1.342915 D    
C58   H30   1.112379 S    
N3    O30   1.301662 A    
C60   H36   1.109900 S    
C49   O18   1.323039 A    
O14   C50   1.337816 A    
C39   C41   1.414801 A    
C40   C42   1.413788 A    
C55   H21   1.112296 S    
C24   C28   1.430081 A    
C27   C29   1.422766 A    
C43   C45   1.399076 A    
C32   H12   1.077888 S    
C44   C46   1.399183 A    
O11   V4    2.023621 S    
C17   O39   1.389784 S    
O19   V4    1.755416 S    
O11   C51   1.318591 A    
C48   O34   1.385218 S    
C31   C33   1.394286 A    
C5    N1    1.436102 S    
C32   C34   1.395361 A    
O27   C55   1.411301 S    
C14   C20   1.394544 A    
C17   C25   1.422974 A    
C15   C45   1.411537 A    
O12   V3    2.023417 S    
C58   H32   1.109018 S    
O15   V3    2.018923 S    
C26   C34   1.417481 A    
C22   C24   1.422197 A    
C42   C48   1.426530 A    
O6    V2    2.014472 S    
C13   C52   1.470386 S    
C23   C25   1.426991 A    
O26   C54   1.410557 S    
C24   C26   1.426323 A    
C50   O17   1.322787 A    
O28   C56   1.411741 S    
C60   H37   1.111278 S    
N4    O32   1.301369 A    
C30   C42   1.430700 A    
C28   C30   1.422545 A    
C35   C37   1.394852 A    
C11   H5    1.083494 S    
O17   V3    2.005614 S    
C36   C38   1.396916 A    
C59   H33   1.109938 S    
C7    C50   1.491279 S    
C29   C31   1.406899 A    
N1    O21   1.300838 A    
N6    O37   1.300717 A    
O5    V1    2.013815 S    
C3    C12   1.479287 S    
C43   H13   1.084382 S    
C38   H8    1.084586 S    
C29   C41   1.431899 A    
C27   C35   1.423212 A    
C13   C19   1.394020 A    
O4    V2    2.019295 S    
N1    O22   1.300235 A    
C35   O27   1.382516 S    
C13   C21   1.397712 A    
O6    C4    1.333244 A    
C1    C16   1.469026 S    
C28   C36   1.423283 A    
C16   C46   1.412414 A    
O13   C49   1.337603 A    
C36   O28   1.383554 S    
C54   H19   1.114749 S    
O1    V2    2.005790 S    
N2    O24   1.300234 A    
O2    V1    2.005417 S    
C57   H29   1.108968 S    
C34   N4    1.435484 S    
N6    O38   1.301734 A    
C8    H2    1.082365 S    
C12   H6    1.083531 S    
C9    H3    1.086376 S    
C14   C22   1.398074 A    
C37   C39   1.392874 A    
N5    O35   1.300950 A    
C6    N2    1.436334 S    
C18   C26   1.422735 A    
O4    C2    1.339839 A    
O12   C52   1.318645 A    
C60   H38   1.108735 S    
O3    V1    2.018989 S    
N4    O31   1.300986 A    
C57   H28   1.113059 S    
C56   H24   1.112990 S    
C8    C49   1.491166 S    
C17   C19   1.404866 A    
C10   H4    1.086314 S    
C59   H34   1.111567 S    
O40   C60   1.413438 S    
O3    C1    1.339987 A    
C37   H7    1.084689 S    
O39   C59   1.413882 S    
C2    C15   1.467921 S    
C39   C43   1.401147 A    
C53   H17   1.107393 S    
C53   H16   1.114634 S    
O16   V4    2.019227 S    
C55   H23   1.109392 S    
C4    C11   1.479165 S    
C56   H26   1.109492 S    
C18   C20   1.405773 A    
O7    V1    2.015710 S    
C1    O8    1.333765 A    
O8    V2    2.015896 S    
N3    O29   1.302005 A    
C41   C47   1.426717 A    
O16   C52   1.330796 A    
C25   C33   1.416687 A    
C55   H22   1.112273 S    
C14   C51   1.470852 S    
C30   C32   1.406969 A    
C5    C7    1.367335 D    
C38   C40   1.393399 A    
C54   H20   1.107566 S    
C6    C8    1.367166 D    
C47   O33   1.385426 S    
C18   O40   1.389926 S    
N2    O23   1.300958 A    
C21   O25   1.382363 S    
C22   O26   1.382316 S    
C9    C11   1.342825 D    
O20   V3    1.756047 S    
C53   H15   1.112690 S    
C31   H11   1.077339 S    
O9    V2    1.756160 S    
C54   H18   1.112766 S    
N5    O36   1.301836 A    
C33   N3    1.434857 S    
C23   C27   1.430768 A    
O10   V1    1.756791 S    
C44   H14   1.084405 S    
C56   H25   1.111500 S    
O15   C51   1.331131 A    
C57   H27   1.112286 S    
C58   H31   1.113192 S    
