data_mof_unit_34143.cif
_audit_creation_date              2012-12-10T19:10:06-0500
_audit_creation_method            fapswitch 2.2
_symmetry_space_group_name_H-M    P1
_symmetry_Int_Tables_number       1
_space_group_crystal_system       triclinic
_cell_length_a                    10.912434
_cell_length_b                    10.743852
_cell_length_c                    9.617991
_cell_angle_alpha                 88.629138
_cell_angle_beta                  92.066045
_cell_angle_gamma                 88.249027
_cell_volume                      1126.01566105

loop_
_atom_site_label
_atom_site_type_symbol
_atom_type_description
_atom_site_fract_x
_atom_site_fract_y
_atom_site_fract_z
_atom_type_partial_charge
C1    C     C_R   0.495492 0.263116 0.501315 0.823846
C2    C     C_R   0.174184 0.571584 0.957930 -0.148996
C3    C     C_R   0.928175 0.567644 0.392163 0.343101
C4    C     C_R   0.871684 0.511616 0.506976 -0.145606
C5    C     C_R   0.946034 0.457453 0.617682 0.038532
C6    C     C_R   0.072237 0.458926 0.609768 -0.163172
C7    C     C_R   0.128010 0.502613 0.491576 -0.150100
C8    C     C_R   0.054978 0.550734 0.376888 -0.051331
C9    C     C_R   0.861031 0.482745 0.850987 -0.181759
C10   C     C_R   0.843589 0.437848 0.985962 -0.141064
C11   C     C_R   0.868817 0.312627 0.021097 0.346214
C12   C     C_R   0.262288 0.501181 0.496944 0.777998
C13   C     C_R   0.908574 0.231210 0.919623 -0.261062
C14   C     C_R   0.926707 0.275543 0.783971 0.307178
C15   C     C_R   0.901189 0.402355 0.748166 0.020930
C16   C     C_R   0.572233 0.059685 0.580246 0.012656
C17   C     C_R   0.482806 0.130314 0.505805 -0.114403
C18   C     C_R   0.381815 0.071128 0.441468 0.142810
C19   C     C_R   0.383614 0.938854 0.438054 0.143693
C20   C     C_R   0.487301 0.871051 0.497101 -0.132537
C21   C     C_R   0.575388 0.932456 0.574508 0.124017
C22   C     C_3   0.711958 0.926255 0.565405 -0.378968
C23   C     C_R   0.497201 0.737284 0.498507 0.833597
C24   C     C_3   0.708110 0.066806 0.575882 -0.390775
C25   C     C_R   0.451672 0.598424 0.068997 0.186105
C26   C     C_R   0.542370 0.399651 0.080862 -0.029792
C27   C     C_R   0.542724 0.397944 0.933394 0.237139
C28   C     C_R   0.454923 0.599865 0.922640 0.134934
C29   C     C_3   0.496803 0.731512 0.920738 0.190999
C30   C     C_3   0.487256 0.730547 0.077676 -0.455730
C31   C     C_R   0.737631 0.503175 0.502619 0.870794
C32   C     C_R   0.139154 0.680839 0.023967 -0.192730
C33   C     C_R   0.105653 0.676252 0.162763 -0.088990
C34   C     C_R   0.103391 0.561436 0.235167 0.119925
C35   C     C_R   0.138648 0.452060 0.168041 -0.060690
C36   C     C_R   0.178372 0.456968 0.031417 0.198426
Cu1   Cu    Cu3+1 0.499990 0.499980 0.640670 0.968781
Cu2   Cu    Cu3+1 0.500010 0.500020 0.359330 0.986959
H1    H     H_    0.201917 0.577477 0.851260 0.149901
H2    H     H_    0.929318 0.134383 0.947286 0.212053
H3    H     H_    0.759097 0.878574 0.656791 0.251394
H4    H     H_    0.742095 0.893630 0.462870 0.226212
H5    H     H_    0.747365 0.099135 0.676224 0.235015
H6    H     H_    0.739010 0.116316 0.481136 0.248230
H7    H     H_    0.577389 0.319842 0.142075 0.185323
H8    H     H_    0.138870 0.769324 0.967730 0.157522
H9    H     H_    0.430490 0.797757 0.865433 0.114520
H10   H     H_    0.575956 0.741355 0.136052 0.281581
H11   H     H_    0.410667 0.791231 0.112524 0.158907
H12   H     H_    0.078324 0.761518 0.212457 0.178145
H13   H     H_    0.136616 0.363025 0.223099 0.159605
H14   H     H_    0.127826 0.419496 0.695968 0.180591
H15   H     H_    0.848967 0.581383 0.827802 0.224683
H16   H     H_    0.811897 0.500771 0.063507 0.242905
N1    N     N_R   0.500790 0.500930 0.147930 -0.187563
N2    N     N_R   0.500790 0.500890 0.852020 -0.163933
O1    O     O_R   0.500000 0.319640 0.618810 -0.591385
O2    O     O_R   0.500010 0.319680 0.381230 -0.585485
O3    O     O_R   0.319640 0.499990 0.618790 -0.601795
O4    O     O_R   0.319650 0.500030 0.381210 -0.592719
O5    O     O_R   0.499990 0.680320 0.618770 -0.551246
O6    O     O_R   0.500000 0.680360 0.381190 -0.577396
O7    O     O_R   0.680350 0.499970 0.618790 -0.574977
O8    O     O_R   0.680360 0.500010 0.381210 -0.506794
Cl1   Cl    Cl    0.852036 0.258169 0.192685 -0.649165
Cl2   Cl    Cl    0.992010 0.172756 0.664968 -0.665466
C37   C     C_3   0.273722 0.146201 0.376387 -0.774397
H17   H     H_    0.279089 0.247215 0.393935 0.218119
H18   H     H_    0.268306 0.132163 0.262396 0.224915
H19   H     H_    0.187259 0.116646 0.422609 0.278831
C38   C     C_3   0.275626 0.873380 0.372857 -0.857494
H20   H     H_    0.285886 0.770634 0.377848 0.225474
H21   H     H_    0.191075 0.897664 0.428287 0.253320
H22   H     H_    0.262917 0.902638 0.261730 0.230556
C39   C     C_3   0.592622 0.279792 0.873830 -0.765461
H23   H     H_    0.515691 0.222621 0.836775 0.241122
H24   H     H_    0.658894 0.300588 0.792626 0.257831
H25   H     H_    0.643132 0.219867 0.953668 0.211155
Cl3   Cl    Cl    0.652359 0.745415 0.873005 -0.624391
C40   C     C_3   0.228615 0.340517 0.968345 -0.878171
H26   H     H_    0.269883 0.360170 0.866793 0.246409
H27   H     H_    0.301447 0.297218 0.038948 0.228226
H28   H     H_    0.154967 0.272929 0.953940 0.258723
Cl4   Cl    Cl    0.842168 0.666709 0.271705 -0.654360

loop_
_geom_bond_atom_site_label_1
_geom_bond_atom_site_label_2
_ccdc_geom_bond_type
C16   C21   A    
C19   C38   S    
C35   C36   A    
C26   N1    A    
C28   N2    A    
C7    C8    A    
C25   C28   A    
C26   C27   A    
C29   C30   S    
C29   H9    S    
C30   H10   S    
C28   C29   S    
C18   C19   A    
C5    C6    A    
C22   H3    S    
C2    C32   A    
C34   C35   A    
C13   H2    S    
C26   H7    S    
Cu2   O2    S    
C12   O3    A    
C2    H1    S    
C23   O6    A    
Cu2   N1    S    
C19   C20   A    
C16   C17   A    
C9    C10   A    
C16   C24   S    
C13   C14   A    
Cu1   N2    S    
C40   H28   S    
C27   C39   S    
Cu1   O7    S    
C33   C34   A    
Cu2   O8    S    
C7    C12   S    
C37   H17   S    
C31   O7    A    
C40   H27   S    
C3    C8    A    
C36   C40   S    
C38   H21   S    
C27   N2    A    
C4    C5    A    
C18   C37   S    
C37   H18   S    
C39   H23   S    
Cu1   Cu2   S    
C1    O1    A    
C29   Cl3   S    
C20   C23   S    
C17   C18   A    
C14   Cl2   S    
C8    C34   S    
C39   H24   S    
Cu1   O3    S    
Cu2   O4    S    
C30   H11   S    
C35   H13   S    
C24   H6    S    
C22   C24   S    
C9    H15   S    
C3    C4    A    
C2    C36   A    
C25   C30   S    
C32   H8    S    
C31   O8    A    
C25   N1    A    
C40   H26   S    
C38   H22   S    
Cu1   O5    S    
C6    C7    A    
C1    C17   S    
C37   H19   S    
C32   C33   A    
C33   H12   S    
C38   H20   S    
C1    O2    A    
C11   C13   A    
C22   H4    S    
C9    C15   A    
C10   H16   S    
C39   H25   S    
C5    C15   S    
C4    C31   S    
C10   C11   A    
C12   O4    A    
C23   O5    A    
C20   C21   A    
C3    Cl4   S    
C24   H5    S    
C14   C15   A    
C6    H14   S    
C21   C22   S    
Cu1   O1    S    
C11   Cl1   S    
Cu2   O6    S    
