data_mof_unit_38342.cif
_audit_creation_date              2012-12-11T15:48:57-0500
_audit_creation_method            fapswitch 2.2
_symmetry_space_group_name_H-M    P1
_symmetry_Int_Tables_number       1
_space_group_crystal_system       triclinic
_cell_length_a                    11.134991
_cell_length_b                    10.994234
_cell_length_c                    18.710572
_cell_angle_alpha                 90.48259
_cell_angle_beta                  90.156988
_cell_angle_gamma                 59.861028
_cell_volume                      1980.82730481

loop_
_atom_site_label
_atom_site_type_symbol
_atom_type_description
_atom_site_fract_x
_atom_site_fract_y
_atom_site_fract_z
_atom_type_partial_charge
C1    C     C_R   0.284134 0.625260 0.615707 0.540679
C2    C     C_R   0.590794 0.125341 0.706899 -0.135780
C3    C     C_R   0.582497 0.136487 0.780640 -0.127369
C4    C     C_R   0.628766 0.588262 0.608793 0.546150
C5    C     C_3   0.930410 0.106882 0.786944 -0.284486
C6    C     C_3   0.930487 0.100709 0.705666 -0.286508
C7    C     C_R   0.681090 0.154050 0.669539 -0.008763
C8    C     C_R   0.202014 0.658520 0.840216 0.006120
C9    C     C_R   0.235415 0.533802 0.802882 -0.028352
C10   C     C_R   0.262364 0.519827 0.729664 0.082681
C11   C     C_R   0.221751 0.757692 0.729089 -0.216594
C12   C     C_3   0.533533 0.706918 0.806030 -0.292062
C13   C     C_R   0.215850 0.761200 0.803162 -0.185810
C14   C     C_3   0.168914 0.445813 0.800819 -0.230940
C15   C     C_3   0.196475 0.428839 0.719519 0.282361
C16   C     C_R   0.630985 0.224133 0.600980 0.540305
C17   C     C_R   0.245364 0.636983 0.690859 -0.038551
C18   C     C_R   0.652354 0.657530 0.164613 0.018642
C19   C     C_R   0.746883 0.535457 0.201436 0.030290
C20   C     C_R   0.742316 0.529951 0.274363 0.040325
C21   C     C_R   0.532124 0.753803 0.277518 -0.163899
C22   C     C_R   0.535991 0.760437 0.202444 -0.171213
C23   C     C_3   0.687928 0.659414 0.817279 0.084828
C24   C     C_3   0.903177 0.452963 0.202457 -0.266082
C25   C     C_3   0.896015 0.449599 0.282860 -0.281399
C26   C     C_R   0.643133 0.642563 0.314411 0.018646
C27   C     C_R   0.634386 0.190840 0.168123 0.019059
C28   C     C_R   0.219930 0.649888 0.402564 0.552720
C29   C     C_R   0.517605 0.210327 0.205972 0.020958
C30   C     C_R   0.514278 0.221816 0.279014 0.037078
C31   C     C_R   0.729188 0.223711 0.277854 -0.153163
C32   C     C_R   0.731046 0.216028 0.203411 -0.155154
C33   C     C_3   0.448183 0.123661 0.208178 -0.269787
C34   C     C_3   0.647444 0.618493 0.683838 0.017706
C35   C     C_3   0.444224 0.137856 0.288596 -0.278645
C36   C     C_R   0.626310 0.213810 0.316433 0.022399
C37   C     C_R   0.114507 0.691945 0.189391 0.026422
C38   C     C_R   0.069746 0.812496 0.231852 0.047811
C39   C     C_R   0.082910 0.804701 0.304517 0.015175
C40   C     C_R   0.639095 0.620266 0.390722 0.550245
C41   C     C_R   0.164871 0.555396 0.296465 -0.165177
C42   C     C_R   0.152553 0.564120 0.222335 -0.177398
C43   C     C_3   0.104185 0.927081 0.226831 -0.263880
C44   C     C_3   0.115569 0.921675 0.307243 -0.273679
C45   C     C_3   0.745860 0.478201 0.720699 -0.241241
C46   C     C_R   0.144267 0.673467 0.336995 0.015398
C47   C     C_R   0.701528 0.100584 0.895539 0.530428
C48   C     C_R   0.719026 0.683311 0.891041 0.572439
C49   C     C_R   0.120947 0.704172 0.906750 0.555027
C50   C     C_R   0.672864 0.111086 0.102141 0.547109
C51   C     C_R   0.695576 0.688034 0.096606 0.541072
C52   C     C_R   0.611581 0.238660 0.392513 0.547735
C53   C     C_R   0.088100 0.712333 0.114088 0.545841
C54   C     C_3   0.724395 0.747212 0.766440 0.171290
C55   C     C_3   0.700331 0.722911 0.687759 -0.179733
C56   C     C_3   0.511248 0.683838 0.726424 -0.261700
C57   C     C_3   0.774579 0.501003 0.797580 -0.222714
C58   C     C_3   0.883291 0.821093 0.759729 -0.157280
C59   C     C_3   0.246994 0.194116 0.714829 -0.167791
C60   C     C_3   0.067998 0.496198 0.668782 -0.189748
C61   C     C_3   0.087302 0.420209 0.595820 -0.256560
C62   C     C_3   0.010646 0.522308 0.534699 -0.411677
C63   C     C_R   0.682386 0.150728 0.821394 -0.003606
C64   C     C_R   0.776694 0.174615 0.783562 -0.014269
C65   C     C_R   0.775931 0.175352 0.709074 0.008600
Cr1   Cr    Cr6+3 0.392960 0.397920 0.502240 0.991248
Cr2   Cr    Cr6+3 0.398340 0.708480 0.501250 0.989707
Cr3   Cr    Cr6+3 0.708670 0.393570 0.496460 0.983620
Cr4   Cr    Cr6+3 0.937650 0.938540 0.007610 1.003275
Cr5   Cr    Cr6+3 0.625330 0.937370 0.994520 0.998913
Cr6   Cr    Cr6+3 0.937940 0.625230 0.001190 1.008656
H1    H     H_    0.475575 0.606909 0.724126 0.133476
H2    H     H_    0.213956 0.848031 0.702147 0.141099
H3    H     H_    0.652698 0.860203 0.780405 0.109985
H4    H     H_    0.204585 0.853996 0.829939 0.139376
H5    H     H_    0.059454 0.503949 0.817119 0.187163
H6    H     H_    0.231460 0.348003 0.831846 0.125463
H7    H     H_    0.446475 0.837811 0.306517 0.119928
H8    H     H_    0.454838 0.850785 0.175104 0.116168
H9    H     H_    0.950891 0.514592 0.184394 0.177106
H10   H     H_    0.945878 0.347486 0.177028 0.121247
H11   H     H_    0.936076 0.342189 0.304126 0.129581
H12   H     H_    0.747525 0.438906 0.834126 0.114270
H13   H     H_    0.622335 0.825175 0.664107 0.079246
H14   H     H_    0.935717 0.512220 0.310474 0.140748
H15   H     H_    0.810290 0.232037 0.305072 0.129849
H16   H     H_    0.815494 0.214756 0.174403 0.120063
H17   H     H_    0.518380 0.014205 0.190068 0.169748
H18   H     H_    0.343545 0.177686 0.183168 0.127874
H19   H     H_    0.337287 0.201460 0.310290 0.131629
H20   H     H_    0.510936 0.036717 0.316394 0.138906
H21   H     H_    0.206263 0.452952 0.320523 0.138429
H22   H     H_    0.179501 0.470532 0.191007 0.120291
H23   H     H_    0.689095 0.420747 0.721762 0.134129
H24   H     H_    0.016731 0.026652 0.206974 0.140033
H25   H     H_    0.794907 0.685799 0.655192 0.139829
H26   H     H_    0.205029 0.892257 0.199497 0.138033
H27   H     H_    0.222096 0.890168 0.324979 0.162813
H28   H     H_    0.032225 0.017365 0.334128 0.126934
H29   H     H_    0.887421 0.459624 0.803457 0.144332
H30   H     H_    0.844121 0.412257 0.691385 0.133228
H31   H     H_    0.503202 0.645259 0.840939 0.131618
H32   H     H_    0.466436 0.820022 0.820357 0.112688
H33   H     H_    0.435786 0.785910 0.702136 0.135407
H34   H     H_    0.522948 0.098375 0.678235 0.175323
H35   H     H_    0.990714 0.779281 0.744547 0.151359
H36   H     H_    0.862980 0.885356 0.808284 0.165128
H37   H     H_    0.822859 0.881703 0.712707 0.107759
H38   H     H_    0.132837 0.244860 0.723184 0.094638
H39   H     H_    0.299496 0.131737 0.762988 0.106205
H40   H     H_    0.275034 0.119707 0.669138 0.124698
H41   H     H_    0.899619 0.592035 0.547359 0.174404
H42   H     H_    0.055399 0.590390 0.524067 0.175437
H43   H     H_    0.019251 0.462018 0.485178 0.137526
H44   H     H_    0.198308 0.356824 0.580476 0.226467
H45   H     H_    0.505773 0.117436 0.805182 0.151471
H46   H     H_    0.047524 0.345851 0.600047 0.133889
H47   H     H_    0.983126 0.494129 0.697030 0.138593
H48   H     H_    0.033343 0.608320 0.659317 0.139734
H49   H     H_    0.978438 0.003703 0.813026 0.159532
H50   H     H_    0.964173 0.179530 0.808342 0.123493
H51   H     H_    0.969811 0.164844 0.680292 0.124670
H52   H     H_    0.973956 0.993137 0.683035 0.135908
O1    O     O_R   0.507380 0.255700 0.581440 -0.499210
O2    O     O_R   0.837170 0.593410 0.915250 -0.515398
O3    O     O_R   0.065200 0.635530 0.931570 -0.490953
O4    O     O_R   0.280320 0.527350 0.578930 -0.501280
O5    O     O_R   0.068260 0.828890 0.091840 -0.521322
O6    O     O_R   0.798870 0.057410 0.079340 -0.507749
O7    O     O_R   0.584930 0.080350 0.076780 -0.523302
O8    O     O_R   0.626960 0.809650 0.067060 -0.509628
O9    O     O_R   0.816040 0.596610 0.076510 -0.531566
O10   O     O_R   0.045610 0.638500 0.081060 -0.516770
O11   O     O_3   0.833640 0.833710 0.001100 -0.246016
O12   O     O_R   0.524480 0.695810 0.424040 -0.503603
O13   O     O_R   0.260510 0.739590 0.584590 -0.537526
O14   O     O_R   0.532300 0.695080 0.573820 -0.516559
O15   O     O_R   0.744840 0.503500 0.576370 -0.536957
O16   O     O_R   0.699120 0.276560 0.571960 -0.515685
O17   O     O_R   0.498940 0.256500 0.419860 -0.522210
O18   O     O_R   0.272500 0.528080 0.429150 -0.517544
O19   O     O_R   0.252060 0.740380 0.423010 -0.522046
O20   O     O_3   0.864275 0.708235 0.775931 -0.610169
O21   O     O_3   0.295439 0.288996 0.700486 -0.559182
O22   O     O_R   0.736390 0.504290 0.414790 -0.522135
O23   O     O_R   0.691300 0.277290 0.422170 -0.510316
O24   O     O_3   0.499990 0.499990 0.499980 -0.276473
O25   O     O_R   0.089400 0.825690 0.930570 -0.537597
O26   O     O_R   0.818460 0.054440 0.929850 -0.504767
O27   O     O_R   0.606060 0.077150 0.915510 -0.533497
O28   O     O_R   0.646550 0.806680 0.917570 -0.517416

loop_
_geom_bond_atom_site_label_1
_geom_bond_atom_site_label_2
_ccdc_geom_bond_type
C21   C26   A    
C34   C56   S    
Cr4   O11   S    
C29   C33   S    
C27   C29   A    
C42   H22   S    
C15   C60   S    
Cr3   O15   S    
C2    C7    A    
Cr5   O27   S    
C24   H10   S    
Cr6   O11   S    
Cr1   O18   S    
C49   O3    A    
C12   C23   S    
C45   C57   S    
C8    C13   A    
C30   C35   S    
C50   O6    A    
C33   H17   S    
C22   H8    S    
C62   H43   S    
C3    H45   S    
C31   C36   A    
C47   C63   S    
C38   C39   A    
C44   H28   S    
C20   C25   S    
C10   C17   A    
C5    H50   S    
Cr5   O7    S    
C59   H39   S    
Cr1   O4    S    
C60   H48   S    
C58   H36   S    
C41   C42   A    
C14   H6    S    
C37   C42   A    
Cr6   O9    S    
C50   O7    A    
C59   H38   S    
C48   O2    A    
C54   H3    S    
C44   H27   S    
C58   O20   S    
C24   H9    S    
C6    C65   S    
C47   O26   A    
Cr4   O5    S    
C8    C9    A    
C56   H1    S    
C21   H7    S    
C61   H44   S    
C59   H40   S    
C41   C46   A    
C57   H12   S    
Cr6   O3    S    
C60   H47   S    
C1    O13   A    
C9    C10   A    
C36   C52   S    
C27   C50   S    
C37   C53   S    
C54   O20   S    
C4    O14   A    
C34   C55   S    
C31   H15   S    
C21   C22   A    
C6    H52   S    
C45   H23   S    
C43   H26   S    
C18   C51   S    
C40   O12   A    
C4    C34   S    
C5    H49   S    
C61   H46   S    
C13   H4    S    
C53   O10   A    
C24   C25   S    
C56   H33   S    
C12   H32   S    
C11   H2    S    
C51   O8    A    
C18   C19   A    
C57   H29   S    
C4    O15   A    
C15   O21   S    
C5    C64   S    
C60   C61   S    
C58   H35   S    
C14   H5    S    
Cr2   O12   S    
C9    C14   S    
C12   H31   S    
C37   C38   A    
C53   O5    A    
C33   H18   S    
C7    C65   A    
C43   H24   S    
C31   C32   A    
C47   O27   A    
C52   O17   A    
C28   C46   S    
C25   H14   S    
C62   H41   S    
C34   C45   S    
Cr1   O24   S    
C12   C56   S    
Cr3   O24   S    
C45   H30   S    
C62   H42   S    
C39   C46   A    
C40   O22   A    
C7    C16   S    
C59   O21   S    
C43   C44   S    
Cr2   O24   S    
C25   H11   S    
Cr1   O1    S    
C16   O16   A    
C28   O19   A    
C6    H51   S    
Cr3   O23   S    
C23   C54   S    
C23   C57   S    
C54   C55   S    
C11   C17   A    
C52   O23   A    
C23   C48   S    
C27   C32   A    
C18   C22   A    
C19   C24   S    
Cr5   O28   S    
C1    O4    A    
C55   H25   S    
Cr6   O10   S    
C51   O9    A    
C39   C44   S    
C3    C63   A    
C2    H34   S    
C1    C17   S    
C30   C36   A    
C10   C15   S    
Cr4   O26   S    
C64   C65   A    
C19   C20   A    
Cr2   O13   S    
C16   O1    A    
C38   C43   S    
C11   C13   A    
C26   C40   S    
C5    C6    S    
C20   C26   A    
Cr5   O8    S    
C33   C35   S    
C2    C3    A    
C58   H37   S    
C61   C62   S    
Cr2   O14   S    
C29   C30   A    
C63   C64   A    
C35   H19   S    
C32   H16   S    
C41   H21   S    
Cr1   O17   S    
C49   O25   A    
Cr4   O6    S    
C48   O28   A    
Cr5   O11   S    
Cr4   O25   S    
C14   C15   S    
Cr6   O2    S    
Cr3   O16   S    
C28   O18   A    
C55   H13   S    
Cr2   O19   S    
C8    C49   S    
Cr3   O22   S    
C35   H20   S    
