data_mof_unit_63585.cif
_audit_creation_date              2012-10-26T21:24:27-0400
_audit_creation_method            fapswitch 2.2
_symmetry_space_group_name_H-M    P1
_symmetry_Int_Tables_number       1
_space_group_crystal_system       triclinic
_cell_length_a                    14.342859
_cell_length_b                    10.84511
_cell_length_c                    9.563883
_cell_angle_alpha                 89.977544
_cell_angle_beta                  89.661813
_cell_angle_gamma                 90.266068
_cell_volume                      1487.61880187

loop_
_atom_site_label
_atom_site_type_symbol
_atom_type_description
_atom_site_fract_x
_atom_site_fract_y
_atom_site_fract_z
_atom_type_partial_charge
C1    C     C_R   0.501600 0.262354 0.499799 0.589434
C2    C     C_3   0.438163 0.070834 0.743587 0.328018
C3    C     C_R   0.581135 0.515332 0.072630 0.146700
C4    C     C_R   0.331106 0.499947 0.500359 0.567421
C5    C     C_R   0.422248 0.469126 0.075481 0.057033
C6    C     C_R   0.422235 0.468028 0.927380 0.508469
C7    C     C_R   0.580969 0.516065 0.925591 0.010030
C8    C     C_3   0.647390 0.622072 0.917718 0.313805
C9    C     C_3   0.647597 0.621611 0.076645 0.734751
C10   C     C_R   0.500903 0.737626 0.500018 0.586868
C11   C     C_R   0.668891 0.500160 0.499647 0.539830
C12   C     C_1   0.771212 0.500283 0.499114 0.032384
C13   C     C_1   0.228773 0.500020 0.500926 0.052094
C14   C     C_1   0.143354 0.500108 0.500815 0.029171
C15   C     C_1   0.042698 0.500221 0.500304 0.053683
C16   C     C_1   0.957279 0.500295 0.499775 0.051911
C17   C     C_1   0.856626 0.500327 0.499250 0.021919
C18   C     C_R   0.506101 0.063671 0.624748 -0.093501
C19   C     C_R   0.509918 0.129218 0.499107 0.042764
C20   C     C_R   0.525229 0.063685 0.373690 0.367097
C21   C     C_R   0.523930 0.935270 0.374660 -0.075160
C22   C     C_R   0.508591 0.870741 0.500096 -0.010909
C23   C     C_R   0.505645 0.936629 0.625356 -0.006376
C24   C     C_3   0.437450 0.930673 0.744127 0.341022
Cu1   Cu    Cu3+1 0.500000 0.499980 0.640670 1.136293
Cu2   Cu    Cu3+1 0.500000 0.500020 0.359330 1.098573
F1    F     F_    0.536712 0.122284 0.249226 -0.596128
F2    F     F_    0.606734 0.726686 0.862522 -0.606819
F3    F     F_    0.733026 0.590071 0.132478 -0.614469
F4    F     F_    0.609904 0.726579 0.135596 -0.568415
F5    F     F_    0.352545 0.880831 0.704208 -0.546773
F6    F     F_    0.353707 0.120912 0.703529 -0.525055
F7    F     F_    0.342838 0.433378 0.862261 -0.576134
H1    H     H_    0.530767 0.887251 0.276227 0.234968
H2    H     H_    0.468249 0.112997 0.839238 0.119423
H3    H     H_    0.466727 0.889184 0.840482 0.165500
H4    H     H_    0.358907 0.445128 0.131008 0.157834
H5    H     H_    0.715289 0.597695 0.868697 0.118520
N1    N     N_R   0.500540 0.500930 0.147930 -0.270184
N2    N     N_R   0.500540 0.500890 0.852020 -0.215268
O1    O     O_R   0.500000 0.319640 0.618810 -0.488424
O2    O     O_R   0.500010 0.319680 0.381230 -0.440007
O3    O     O_R   0.376050 0.499980 0.618820 -0.389110
O4    O     O_R   0.376060 0.500020 0.381230 -0.526697
O5    O     O_R   0.499990 0.680320 0.618770 -0.429613
O6    O     O_R   0.500000 0.680360 0.381190 -0.470707
O7    O     O_R   0.623940 0.499980 0.618770 -0.517768
O8    O     O_R   0.623950 0.500020 0.381180 -0.437999

loop_
_geom_bond_atom_site_label_1
_geom_bond_atom_site_label_2
_ccdc_geom_bond_type
C2    H2    S    
C10   O6    A    
C23   C24   S    
C3    C9    S    
C20   F1    S    
Cu2   O8    S    
C2    C18   S    
Cu1   O7    S    
C11   O7    A    
C19   C20   A    
C6    F7    S    
C9    F3    S    
C7    N2    A    
Cu1   O3    S    
C10   O5    A    
C24   F5    S    
C3    N1    A    
C7    C8    S    
C21   C22   A    
C10   C22   S    
C12   C17   T    
C11   O8    A    
C24   H3    S    
C8    H5    S    
C9    F4    S    
C1    O1    A    
C4    O3    A    
C3    C7    A    
C5    N1    A    
Cu1   N2    S    
C2    C24   S    
C5    C6    A    
C8    F2    S    
C6    N2    A    
Cu2   N1    S    
C1    C19   S    
C5    H4    S    
Cu2   O6    S    
Cu2   O4    S    
C18   C23   A    
Cu1   O5    S    
C1    O2    A    
C20   C21   A    
Cu2   O2    S    
C2    F6    S    
C18   C19   A    
Cu1   O1    S    
C4    C13   S    
C14   C15   S    
C16   C17   S    
C21   H1    S    
C4    O4    A    
Cu1   Cu2   S    
C13   C14   T    
C22   C23   A    
C15   C16   T    
C11   C12   S    
C8    C9    S    
