data_mof_unit_30631.cif
_audit_creation_date              2013-03-05T15:51:07-0500
_audit_creation_method            fapswitch 2.2
_symmetry_space_group_name_H-M    P1
_symmetry_Int_Tables_number       1
_space_group_crystal_system       triclinic
_cell_length_a                    10.553317
_cell_length_b                    12.06738
_cell_length_c                    12.910196
_cell_angle_alpha                 93.668848
_cell_angle_beta                  91.445506
_cell_angle_gamma                 83.8602
_cell_volume                      1631.06383229

loop_
_atom_site_label
_atom_site_type_symbol
_atom_site_description
_atom_site_fract_x
_atom_site_fract_y
_atom_site_fract_z
_atom_type_partial_charge
O1    O     O_R   0.506270 0.421700 0.658830 -0.637199
O2    O     O_R   0.493730 0.578300 0.341170 -0.637199
O3    O     O_R   0.491200 0.609310 0.646410 -0.588071
O4    O     O_R   0.508800 0.390690 0.353590 -0.588071
C1    C     C_R   0.497480 0.523045 0.700541 0.931079
C2    C     C_R   0.502520 0.476955 0.299459 0.931078
O5    O     O_R   0.693580 0.406210 0.506230 -0.664569
O6    O     O_R   0.306420 0.593790 0.493770 -0.664569
O7    O     O_R   0.678510 0.593830 0.493810 -0.593961
O8    O     O_R   0.321490 0.406170 0.506190 -0.593958
C3    C     C_R   0.742320 0.497546 0.496835 0.949530
C4    C     C_R   0.257680 0.502454 0.503165 0.949529
Zn1   Zn    Zn3+2 0.510060 0.374730 0.508290 0.981972
Zn2   Zn    Zn3+2 0.489940 0.625270 0.491710 0.981970
C5    C     C_3   0.977642 0.391235 0.488347 0.057462
C6    C     C_3   0.022358 0.608765 0.511653 0.057453
C7    C     C_3   0.049731 0.445378 0.579714 0.296904
C8    C     C_3   0.950269 0.554621 0.420286 0.296888
C9    C     C_3   0.122820 0.505890 0.503242 -0.275967
C10   C     C_3   0.877180 0.494110 0.496758 -0.275971
C11   C     C_3   0.050529 0.452716 0.410772 0.011957
C12   C     C_3   0.949470 0.547283 0.589228 0.011961
C13   C     C_R   0.504565 0.460394 0.187609 -0.243428
C14   C     C_R   0.495435 0.539605 0.812391 -0.243427
C15   C     C_R   0.540369 0.643051 0.973613 0.243442
C16   C     C_R   0.459630 0.356949 0.026387 0.243441
C17   C     C_R   0.526216 0.639379 0.865744 0.227074
C18   C     C_R   0.473783 0.360621 0.134256 0.227074
C19   C     C_R   0.469098 0.449037 0.866416 -0.191316
C20   C     C_R   0.530902 0.550963 0.133584 -0.191316
C21   C     C_R   0.480982 0.451429 0.973062 -0.042368
C22   C     C_R   0.519018 0.548571 0.026938 -0.042368
H1    H     H_    0.558778 0.624944 0.175871 0.235881
H2    H     H_    0.441223 0.375056 0.824129 0.235881
N1    N     N_R   0.523490 0.207800 0.519350 -0.127103
N2    N     N_R   0.476510 0.792200 0.480650 -0.127103
C23   C     C_R   0.397505 0.958964 0.391801 -0.217163
C24   C     C_R   0.602495 0.041036 0.608199 -0.217162
C25   C     C_R   0.401931 0.842621 0.402476 0.288323
C26   C     C_R   0.598069 0.157379 0.597524 0.288321
C27   C     C_R   0.543264 0.857130 0.547853 0.009653
C28   C     C_R   0.456736 0.142870 0.452147 0.009658
C29   C     C_R   0.536790 0.974346 0.539354 0.024805
C30   C     C_R   0.463210 0.025654 0.460646 0.024804
H3    H     H_    0.397413 0.182424 0.392539 0.169468
H4    H     H_    0.602587 0.817576 0.607461 0.169469
H5    H     H_    0.343923 0.998701 0.329360 0.190871
H6    H     H_    0.656077 0.001299 0.670640 0.190871
N3    N     N_R   0.103492 0.386944 0.668993 0.213583
O9    O     O_R   0.030093 0.335789 0.724826 -0.397532
O10   O     O_R   0.220689 0.394558 0.699514 -0.383497
N4    N     N_R   0.896508 0.613056 0.331007 0.213587
O11   O     O_R   0.969906 0.664212 0.275174 -0.397526
O12   O     O_R   0.779311 0.605440 0.300485 -0.383499
C31   C     C_3   0.947180 0.269631 0.479619 -0.328216
C32   C     C_3   0.066784 0.186395 0.472514 -0.810294
H7    H     H_    0.116094 0.191706 0.398564 0.254455
H8    H     H_    0.133601 0.201660 0.538344 0.294245
H9    H     H_    0.039449 0.100298 0.475129 0.241648
H10   H     H_    0.894375 0.254308 0.549307 0.233037
H11   H     H_    0.884431 0.255895 0.410771 0.222788
C33   C     C_3   0.052819 0.730369 0.520378 -0.328215
C34   C     C_3   0.933214 0.813604 0.527493 -0.810283
H12   H     H_    0.866373 0.798320 0.461684 0.294236
H13   H     H_    0.883934 0.808313 0.601461 0.254452
H14   H     H_    0.960544 0.899700 0.524846 0.241651
H15   H     H_    0.115577 0.744106 0.589220 0.222787
H16   H     H_    0.105614 0.745692 0.450684 0.233039
C35   C     C_3   0.116562 0.407958 0.309660 -0.374348
C36   C     C_3   0.024938 0.360490 0.229439 -0.680185
H17   H     H_    0.986714 0.286055 0.257436 0.247438
H18   H     H_    0.944653 0.423889 0.211737 0.282438
H19   H     H_    0.076702 0.334820 0.156532 0.278429
H20   H     H_    0.160318 0.477098 0.276197 0.215057
H21   H     H_    0.194540 0.342354 0.327128 0.229876
C37   C     C_3   0.883437 0.592045 0.690339 -0.374339
C38   C     C_3   0.975064 0.639504 0.770563 -0.680196
H22   H     H_    0.055330 0.576091 0.788280 0.282446
H23   H     H_    0.013316 0.713923 0.742561 0.247436
H24   H     H_    0.923293 0.665195 0.843463 0.278431
H25   H     H_    0.805467 0.657655 0.672869 0.229880
H26   H     H_    0.839671 0.522909 0.723799 0.215051
N5    N     N_R   0.454406 0.263787 0.188214 0.225333
O13   O     O_R   0.344229 0.224442 0.182034 -0.394968
O14   O     O_R   0.552743 0.202321 0.223774 -0.342822
N6    N     N_R   0.545593 0.736213 0.811786 0.225334
O15   O     O_R   0.655769 0.775559 0.817966 -0.394971
O16   O     O_R   0.447255 0.797679 0.776226 -0.342821
N7    N     N_R   0.575557 0.742974 0.028244 0.216009
O17   O     O_R   0.502503 0.836425 0.022765 -0.278329
O18   O     O_R   0.686640 0.743044 0.074316 -0.309768
N8    N     N_R   0.424442 0.257026 0.971756 0.216009
O19   O     O_R   0.497495 0.163575 0.977235 -0.278328
O20   O     O_R   0.313359 0.256957 0.925683 -0.309769
C39   C     C_3   0.667908 0.224959 0.679592 -0.398217
C40   C     C_3   0.788353 0.163628 0.726906 -0.833958
H27   H     H_    0.763338 0.104437 0.783588 0.287662
H28   H     H_    0.849183 0.118215 0.665605 0.259267
H29   H     H_    0.843781 0.225029 0.770438 0.305657
H30   H     H_    0.698983 0.298841 0.646851 0.248905
H31   H     H_    0.601791 0.252067 0.743823 0.239035
C41   C     C_3   0.332092 0.775041 0.320408 -0.398216
C42   C     C_3   0.211649 0.836372 0.273093 -0.833960
H32   H     H_    0.150818 0.881787 0.334392 0.259265
H33   H     H_    0.236665 0.895562 0.216410 0.287664
H34   H     H_    0.156220 0.774971 0.229561 0.305656
H35   H     H_    0.398209 0.747931 0.256177 0.239035
H36   H     H_    0.301016 0.701159 0.353149 0.248904

loop_
_geom_bond_atom_site_label_1
_geom_bond_atom_site_label_2
_geom_bond_distance
_ccdc_geom_bond_type
C24   C26   1.415164 A    
C31   C32   1.527537 S    
C34   H13   1.107441 S    
C8    C11   1.534846 S    
C39   C40   1.534280 S    
C14   C17   1.412743 A    
C12   C37   1.535093 S    
O7    Zn2   1.985453 S    
C8    N4    1.460512 S    
C38   H22   1.108777 S    
O5    C3    1.278919 A    
C28   C30   1.419966 A    
C33   H15   1.109490 S    
O1    C1    1.299313 A    
C9    C11   1.542613 S    
Zn1   N1    2.018175 S    
Zn2   N2    2.018175 S    
N6    O16   1.301079 A    
C16   N8    1.436328 S    
C40   H29   1.108992 S    
C32   H7    1.107433 S    
O4    Zn1   2.018277 S    
N1    C28   1.364988 A    
C14   C19   1.389431 A    
N5    O13   1.300882 A    
N3    O10   1.299427 A    
C40   H28   1.110684 S    
O6    Zn2   2.014268 S    
C27   H4    1.082015 S    
C41   H36   1.094926 S    
C36   H17   1.107518 S    
N7    O18   1.301174 A    
C24   H6    1.080744 S    
C15   C22   1.409915 A    
C34   H14   1.110371 S    
C16   C21   1.409915 A    
C31   H10   1.105809 S    
C18   N5    1.433531 S    
C19   C21   1.378097 A    
C27   C29   1.419966 A    
N2    C27   1.364989 A    
O2    C2    1.299314 A    
C6    C33   1.532103 S    
N4    O12   1.299428 A    
C38   H23   1.107522 S    
C5    C10   1.544018 S    
C3    C10   1.419406 S    
C41   C42   1.534280 S    
C13   C20   1.389431 A    
C35   H20   1.111129 S    
C37   C38   1.525681 S    
O4    C2    1.285473 A    
C7    N3    1.460511 S    
C39   H30   1.094925 S    
C19   H2    1.080424 S    
C11   C35   1.535093 S    
C28   H3    1.082016 S    
C5    C31   1.532104 S    
C17   N6    1.433531 S    
C29   C30   1.398825 A    
C33   C34   1.527538 S    
C21   C22   1.414675 A    
C5    C11   1.549572 S    
O6    C4    1.278919 A    
C40   H27   1.110118 S    
C36   H19   1.110298 S    
N8    O20   1.301174 A    
C41   H35   1.107772 S    
C42   H33   1.110118 S    
C13   C18   1.412742 A    
O7    C3    1.281451 A    
O3    Zn2   2.018280 S    
O8    C4    1.281452 A    
N5    O14   1.301077 A    
C10   C12   1.542613 S    
C23   H5    1.080744 S    
C26   C39   1.519685 S    
C37   H26   1.111130 S    
N4    O11   1.299247 A    
C25   C41   1.519685 S    
C38   H24   1.110300 S    
C5    C7    1.536059 S    
C6    C12   1.549571 S    
C20   H1    1.080423 S    
N6    O15   1.300884 A    
C16   C18   1.395224 A    
N2    C25   1.394379 A    
O3    C1    1.285472 A    
O8    Zn1   1.985453 S    
C37   H25   1.108572 S    
C15   C17   1.395225 A    
C15   N7    1.436327 S    
C7    C12   1.534846 S    
C32   H9    1.110363 S    
C33   H16   1.105810 S    
C23   C30   1.383897 A    
N1    C26   1.394381 A    
C24   C29   1.383897 A    
C23   C25   1.415164 A    
C20   C22   1.378097 A    
C1    C14   1.445435 S    
C6    C9    1.544017 S    
C2    C13   1.445435 S    
C31   H11   1.109488 S    
C4    C9    1.419406 S    
N8    O19   1.300984 A    
C7    C9    1.534287 S    
C32   H8    1.109486 S    
C35   H21   1.108571 S    
C42   H34   1.108992 S    
C8    C10   1.534284 S    
C35   C36   1.525682 S    
O2    Zn2   1.989510 S    
C34   H12   1.109494 S    
O5    Zn1   2.014266 S    
O1    Zn1   1.989513 S    
C6    C8    1.536060 S    
N3    O9    1.299248 A    
C42   H32   1.110684 S    
C36   H18   1.108773 S    
N7    O17   1.300985 A    
C39   H31   1.107772 S    
