data_mof_unit_11150.cif
_audit_creation_date              2012-12-11T17:36:10-0500
_audit_creation_method            fapswitch 2.2
_symmetry_space_group_name_H-M    P1
_symmetry_Int_Tables_number       1
_space_group_crystal_system       triclinic
_cell_length_a                    25.749743
_cell_length_b                    6.967459
_cell_length_c                    21.786553
_cell_angle_alpha                 89.939569
_cell_angle_beta                  95.962659
_cell_angle_gamma                 90.068487
_cell_volume                      3887.58007602

loop_
_atom_site_label
_atom_site_type_symbol
_atom_type_description
_atom_site_fract_x
_atom_site_fract_y
_atom_site_fract_z
_atom_type_partial_charge
O1    O     O_R   0.208650 0.594520 0.175450 -0.526460
O2    O     O_R   0.791350 0.405480 0.824550 -0.538769
O3    O     O_R   0.291350 0.094520 0.324550 -0.526736
O4    O     O_R   0.708650 0.905480 0.675450 -0.538663
O5    O     O_R   0.192980 0.260780 0.300160 -0.530486
O6    O     O_R   0.807020 0.739220 0.699840 -0.520813
O7    O     O_R   0.307020 0.760780 0.199840 -0.529006
O8    O     O_R   0.692980 0.239220 0.800160 -0.520714
C1    C     C_R   0.178700 0.432044 0.317991 0.762839
C2    C     C_R   0.819762 0.568469 0.679795 0.760727
C3    C     C_R   0.321439 0.932287 0.182206 0.761926
C4    C     C_R   0.680269 0.068167 0.820216 0.760941
O9    O     O_R   0.202550 0.264660 0.174420 -0.546791
O10   O     O_R   0.797450 0.735340 0.825580 -0.535702
O11   O     O_R   0.297450 0.764660 0.325580 -0.547236
O12   O     O_R   0.702550 0.235340 0.674420 -0.535721
O13   O     O_R   0.300990 0.096480 0.197920 -0.534029
O14   O     O_R   0.699010 0.903520 0.802080 -0.543652
O15   O     O_R   0.199010 0.596480 0.302080 -0.533912
O16   O     O_R   0.800990 0.403520 0.697920 -0.543381
C5    C     C_R   0.191379 0.432563 0.151006 0.775015
C6    C     C_R   0.810415 0.566481 0.847518 0.766791
C7    C     C_R   0.308537 0.932467 0.349056 0.772215
C8    C     C_R   0.689538 0.066470 0.652517 0.766667
O17   O     O_3   0.282290 0.427760 0.257860 -0.358100
O18   O     O_3   0.717710 0.572240 0.742140 -0.370961
O19   O     O_3   0.217710 0.927760 0.242140 -0.358369
O20   O     O_3   0.782290 0.072240 0.757860 -0.370911
V1    V     V_3+5 0.244010 0.152080 0.248540 1.501923
V2    V     V_3+5 0.755990 0.847920 0.751460 1.450095
V3    V     V_3+5 0.255990 0.652080 0.251460 1.503845
V4    V     V_3+5 0.744010 0.347920 0.748540 1.450087
C9    C     C_R   0.655044 0.060149 0.593646 -0.235171
C10   C     C_R   0.341611 0.927025 0.408875 -0.221701
C11   C     C_R   0.844809 0.560131 0.906444 -0.234978
C12   C     C_R   0.158126 0.427614 0.091319 -0.223661
C13   C     C_R   0.646560 0.149003 0.484999 0.505334
C14   C     C_R   0.360852 0.745707 0.503781 0.522597
C15   C     C_R   0.853147 0.648560 0.015074 0.505213
C16   C     C_R   0.138866 0.249483 0.996025 0.526815
C17   C     C_R   0.676418 0.129644 0.541811 -0.306795
C18   C     C_R   0.326838 0.797782 0.452583 -0.366061
C19   C     C_R   0.823363 0.629271 0.958213 -0.306980
C20   C     C_R   0.172932 0.300294 0.047219 -0.364834
C21   C     C_R   0.601338 0.003788 0.588409 0.465617
C22   C     C_R   0.391135 0.014852 0.418068 0.492374
C23   C     C_R   0.898499 0.504121 0.911793 0.466337
C24   C     C_R   0.108556 0.514999 0.082372 0.492305
C25   C     C_R   0.571588 0.006693 0.528896 -0.076328
C26   C     C_R   0.430492 0.937261 0.463237 -0.109436
C27   C     C_R   0.928154 0.506942 0.971344 -0.076253
C28   C     C_R   0.069153 0.437908 0.037119 -0.109820
C29   C     C_R   0.593144 0.096052 0.478675 -0.219584
C30   C     C_R   0.413869 0.804587 0.507522 -0.198631
C31   C     C_R   0.906550 0.595898 0.021505 -0.219695
C32   C     C_R   0.085752 0.306196 0.992677 -0.198939
C33   C     C_R   0.519574 0.930408 0.518988 -0.109957
C34   C     C_R   0.485366 0.984991 0.466200 -0.161354
C35   C     C_R   0.980124 0.430851 0.981327 -0.107982
C36   C     C_R   0.014297 0.485315 0.034145 -0.160670
C37   C     C_R   0.509065 0.063059 0.415716 0.406466
C38   C     C_R   0.503385 0.778283 0.555453 0.438391
C39   C     C_R   0.990570 0.563092 0.084572 0.405311
C40   C     C_R   0.996212 0.278571 0.944994 0.437324
C41   C     C_R   0.561059 0.127803 0.422937 0.365689
C42   C     C_R   0.450812 0.726437 0.553196 0.386808
C43   C     C_R   0.938581 0.627548 0.077279 0.365309
C44   C     C_R   0.048798 0.226803 0.947280 0.385815
H1    H     H_    0.288655 0.730722 0.445699 0.141443
H2    H     H_    0.716648 0.178070 0.545986 0.175474
H3    H     H_    0.211315 0.234780 0.053430 0.142927
H4    H     H_    0.783144 0.677501 0.953943 0.175656
C45   C     C_R   0.444585 0.837097 0.100878 0.382366
C46   C     C_R   0.575095 0.218698 0.921985 0.423008
C47   C     C_R   0.055226 0.341447 0.399167 0.380858
C48   C     C_R   0.924868 0.721379 0.577902 0.421663
C49   C     C_R   0.405717 0.813790 0.141702 0.076624
C50   C     C_R   0.621321 0.226947 0.892077 0.088944
C51   C     C_R   0.093989 0.316641 0.358392 0.062630
C52   C     C_R   0.878656 0.728647 0.607871 0.089942
C53   C     C_R   0.362959 0.942973 0.139129 -0.190481
C54   C     C_R   0.638860 0.060568 0.863851 -0.232719
C55   C     C_R   0.137357 0.443060 0.361301 -0.186137
C56   C     C_R   0.861219 0.561822 0.636177 -0.232928
C57   C     C_R   0.359453 0.088723 0.094101 -0.277706
C58   C     C_R   0.619161 0.884312 0.882354 -0.272928
C59   C     C_R   0.141720 0.587634 0.406628 -0.287608
C60   C     C_R   0.881001 0.386035 0.617680 -0.273907
H5    H     H_    0.327162 0.188482 0.092342 0.144719
H6    H     H_    0.632595 0.753371 0.863438 0.197108
H7    H     H_    0.176173 0.677355 0.409652 0.134594
H8    H     H_    0.867531 0.254755 0.636489 0.197253
C61   C     C_R   0.396808 0.106987 0.051223 0.432630
C62   C     C_R   0.585594 0.877548 0.929342 0.440417
C63   C     C_R   0.103195 0.613913 0.448025 0.441806
C64   C     C_R   0.914560 0.380129 0.570672 0.441653
C65   C     C_R   0.440686 0.986350 0.056813 -0.110008
C66   C     C_R   0.558592 0.042598 0.943651 -0.157043
C67   C     C_R   0.059539 0.490992 0.443108 -0.113010
C68   C     C_R   0.941535 0.545596 0.556346 -0.157792
C69   C     C_1   0.481737 0.013151 0.016389 0.073629
C70   C     C_1   0.516336 0.030368 0.983026 0.062199
C71   C     C_1   0.018437 0.517610 0.483546 0.079342
C72   C     C_1   0.983784 0.534170 0.516887 0.063860
O21   O     O_3   0.581257 0.209138 0.372494 -0.513483
C73   C     C_3   0.565121 0.402562 0.367551 -0.099807
H9    H     H_    0.579798 0.485597 0.409386 0.097016
H10   H     H_    0.521899 0.415173 0.358941 0.141993
H11   H     H_    0.581928 0.468468 0.327664 0.158245
O22   O     O_3   0.437116 0.579947 0.591421 -0.513765
C74   C     C_3   0.434781 0.654387 0.651294 -0.103552
H12   H     H_    0.409079 0.782956 0.650922 0.103033
H13   H     H_    0.474339 0.689513 0.673707 0.137387
H14   H     H_    0.417969 0.543016 0.679834 0.135731
O23   O     O_3   0.918309 0.708148 0.127712 -0.513618
C75   C     C_3   0.934518 0.901565 0.132861 -0.099729
H15   H     H_    0.919822 0.985207 0.091139 0.097091
H16   H     H_    0.977746 0.914326 0.141430 0.142241
H17   H     H_    0.917770 0.966681 0.172847 0.158458
O24   O     O_3   0.062599 0.078345 0.909950 -0.515647
C76   C     C_3   0.062269 0.145947 0.848796 -0.100283
H18   H     H_    0.083274 0.285204 0.846326 0.096147
H19   H     H_    0.021772 0.159252 0.826295 0.143034
H20   H     H_    0.082670 0.039574 0.822049 0.136375
O25   O     O_3   0.399710 0.174573 0.382806 -0.521439
C77   C     C_3   0.396200 0.339782 0.419463 -0.133731
H21   H     H_    0.427408 0.342708 0.458822 0.129486
H22   H     H_    0.357029 0.351119 0.436528 0.137805
H23   H     H_    0.401569 0.468246 0.390634 0.152292
O26   O     O_3   0.573300 0.995799 0.639813 -0.556299
C78   C     C_3   0.594871 0.867372 0.685663 -0.114678
H24   H     H_    0.617592 0.948737 0.722648 0.093389
H25   H     H_    0.618542 0.750466 0.667625 0.152710
H26   H     H_    0.562532 0.798002 0.707255 0.142704
O27   O     O_3   0.100060 0.674115 0.117802 -0.520962
C79   C     C_3   0.103493 0.839934 0.081265 -0.133104
H27   H     H_    0.072174 0.843247 0.042033 0.129061
H28   H     H_    0.142594 0.851861 0.064020 0.136001
H29   H     H_    0.098242 0.967920 0.110246 0.152924
O28   O     O_3   0.926636 0.496603 0.860474 -0.556319
C80   C     C_3   0.905143 0.368251 0.814599 -0.116183
H30   H     H_    0.882416 0.449574 0.777593 0.093947
H31   H     H_    0.881496 0.250884 0.832603 0.153302
H32   H     H_    0.937531 0.299595 0.793032 0.140820
O29   O     O_3   0.669526 0.231196 0.436687 -0.530278
C81   C     C_3   0.700504 0.091518 0.411086 -0.144477
H33   H     H_    0.715949 0.153666 0.369740 0.157148
H34   H     H_    0.677133 0.962249 0.395846 0.138335
H35   H     H_    0.734556 0.050175 0.444074 0.130124
O30   O     O_3   0.344134 0.613935 0.545216 -0.524465
C82   C     C_3   0.304666 0.696651 0.576979 -0.227307
H36   H     H_    0.315482 0.843005 0.594579 0.119110
H37   H     H_    0.299073 0.605458 0.617538 0.156161
H38   H     H_    0.266894 0.700499 0.547372 0.124071
O31   O     O_3   0.830134 0.730467 0.063313 -0.530277
C83   C     C_3   0.799067 0.590565 0.088876 -0.144026
H39   H     H_    0.783585 0.652477 0.130174 0.157085
H40   H     H_    0.822374 0.461316 0.104183 0.138368
H41   H     H_    0.765038 0.549239 0.055837 0.130266
O32   O     O_3   0.156145 0.122584 0.953736 -0.523374
C84   C     C_3   0.191166 0.218851 0.918589 -0.232036
H42   H     H_    0.173762 0.352648 0.897354 0.124271
H43   H     H_    0.200309 0.123132 0.880519 0.153385
H44   H     H_    0.228474 0.251918 0.946886 0.113416
O33   O     O_3   0.484538 0.057330 0.356291 -0.508462
C85   C     C_3   0.494090 0.877211 0.330356 -0.105557
H45   H     H_    0.471984 0.762146 0.351762 0.104906
H46   H     H_    0.536482 0.841649 0.334236 0.108831
H47   H     H_    0.480448 0.883318 0.280511 0.195596
O34   O     O_3   0.539333 0.663142 0.589569 -0.544502
C86   C     C_3   0.559364 0.528520 0.549902 -0.222774
H48   H     H_    0.582537 0.600274 0.516170 0.118432
H49   H     H_    0.527742 0.439430 0.525482 0.136129
H50   H     H_    0.586089 0.430713 0.578143 0.176761
O35   O     O_3   0.015036 0.557156 0.144017 -0.508576
C87   C     C_3   0.005114 0.377326 0.170090 -0.103122
H51   H     H_    0.027383 0.262106 0.149159 0.105912
H52   H     H_    0.962700 0.341601 0.165754 0.108014
H53   H     H_    0.018290 0.384002 0.220042 0.197649
O36   O     O_3   0.960109 0.163023 0.911240 -0.546541
C88   C     C_3   0.940133 0.028884 0.951238 -0.225903
H54   H     H_    0.917016 0.101037 0.984854 0.119794
H55   H     H_    0.971775 0.940291 0.975786 0.136400
H56   H     H_    0.913361 0.930584 0.923247 0.177039
O37   O     O_3   0.488905 0.723657 0.107692 -0.551057
C89   C     C_3   0.481304 0.565562 0.067415 -0.115169
H57   H     H_    0.473914 0.611328 0.018337 0.153297
H58   H     H_    0.448916 0.473459 0.080155 0.180247
H59   H     H_    0.517282 0.477102 0.071863 0.173984
O38   O     O_3   0.548655 0.381873 0.935222 -0.512761
C90   C     C_3   0.515220 0.432380 0.882252 -0.135053
H60   H     H_    0.487259 0.314613 0.867940 0.099011
H61   H     H_    0.537935 0.473414 0.843460 0.120325
H62   H     H_    0.491858 0.559020 0.893357 0.158371
O39   O     O_3   0.010133 0.231747 0.391756 -0.548028
C91   C     C_3   0.016019 0.072343 0.431809 -0.124704
H63   H     H_    0.028359 0.114363 0.480447 0.145127
H64   H     H_    0.043860 0.967717 0.415409 0.169618
H65   H     H_    0.977828 0.998369 0.431179 0.179719
O40   O     O_3   0.950926 0.885282 0.564199 -0.513032
C92   C     C_3   0.984922 0.936034 0.616665 -0.134600
H66   H     H_    0.013141 0.818795 0.630482 0.102644
H67   H     H_    0.962686 0.976129 0.655920 0.118637
H68   H     H_    0.007978 0.063321 0.605161 0.158833
I1    I     I_    0.415663 0.585448 0.207684 -0.379076
I2    I     I_    0.678169 0.435194 0.922593 -0.450500
I3    I     I_    0.083549 0.088696 0.292493 -0.393714
I4    I     I_    0.821752 0.936630 0.577538 -0.449823
O41   O     O_3   0.394046 0.250410 0.006468 -0.555337
C93   C     C_3   0.343083 0.269314 0.976345 -0.286093
H69   H     H_    0.319057 0.362737 0.003473 0.139656
H70   H     H_    0.323737 0.127838 0.966584 0.132029
H71   H     H_    0.345669 0.341093 0.931295 0.159793
O42   O     O_3   0.580277 0.710759 0.961757 -0.514329
C94   C     C_3   0.609753 0.725873 0.020016 -0.099158
H72   H     H_    0.591338 0.826704 0.050723 0.132941
H73   H     H_    0.650865 0.770018 0.015914 0.129084
H74   H     H_    0.610953 0.582789 0.042487 0.172706
O43   O     O_3   0.106357 0.750769 0.495275 -0.553120
C95   C     C_3   0.143144 0.897894 0.488920 -0.288346
H75   H     H_    0.138160 0.963771 0.442136 0.149982
H76   H     H_    0.183512 0.843691 0.500499 0.135819
H77   H     H_    0.136772 0.013263 0.522366 0.161105
O44   O     O_3   0.919304 0.214460 0.537630 -0.513979
C96   C     C_3   0.889030 0.231729 0.479936 -0.104097
H78   H     H_    0.907396 0.332249 0.448963 0.133890
H79   H     H_    0.848231 0.277637 0.484932 0.130236
H80   H     H_    0.886842 0.089055 0.457280 0.170792

loop_
_geom_bond_atom_site_label_1
_geom_bond_atom_site_label_2
_ccdc_geom_bond_type
O17   V3    S    
C55   C59   A    
C86   H48   S    
C60   C64   A    
O1    C5    A    
O33   C85   S    
C59   H7    S    
O19   V1    S    
C9    C21   A    
C92   H66   S    
C24   O27   S    
C67   C71   S    
C74   H12   S    
C10   C18   A    
C68   C72   S    
C52   C56   A    
C78   H26   S    
C11   C23   A    
O44   C96   S    
C95   H76   S    
O29   C81   S    
C33   C34   A    
C25   C33   A    
O27   C79   S    
C46   C66   A    
C5    C12   S    
C27   C31   A    
C88   H54   S    
C3    C53   S    
O7    C3    A    
C6    C11   S    
C86   H49   S    
C35   C40   A    
C77   H21   S    
C36   C39   A    
C40   C44   A    
O9    V1    S    
C83   H39   S    
C14   C18   A    
C21   O26   S    
C80   H31   S    
C93   H69   S    
C85   H47   S    
O4    C8    A    
C63   C67   A    
O34   C86   S    
C62   C66   A    
C25   C29   A    
O23   C75   S    
O1    V3    S    
C96   H80   S    
O13   V1    S    
C75   H15   S    
C20   H3    S    
O2    V4    S    
C82   H38   S    
C2    C56   S    
O3    V1    S    
C43   O23   S    
O22   C74   S    
C76   H20   S    
C58   C62   A    
C46   O38   S    
O3    C7    A    
C1    O15   A    
C87   H53   S    
C15   C31   A    
C60   H8    S    
C2    O16   A    
O40   C92   S    
C16   C32   A    
C59   C63   A    
C23   O28   S    
O2    C6    A    
C63   O43   S    
C82   H36   S    
C10   C22   A    
C21   C25   A    
C11   C19   A    
C81   H34   S    
C46   C50   A    
C13   C29   A    
C34   C37   A    
O11   C7    A    
O15   V3    S    
C35   C36   A    
O12   C8    A    
C85   H46   S    
C92   H67   S    
C57   C61   A    
O10   V2    S    
C79   H29   S    
C41   O21   S    
C95   H75   S    
C84   H43   S    
O41   C93   S    
O31   C83   S    
O5    V1    S    
C88   H55   S    
C40   O36   S    
O17   V1    S    
C38   O34   S    
C86   H50   S    
C39   C43   A    
C62   O42   S    
O7    V3    S    
C38   C42   A    
O19   V3    S    
C90   H60   S    
O8    V4    S    
C69   C70   T    
C56   C60   A    
C48   C68   A    
O20   V4    S    
O28   C80   S    
C79   H28   S    
C75   H16   S    
C58   H6    S    
C80   H32   S    
O43   C95   S    
C57   H5    S    
O42   C94   S    
C91   H63   S    
C15   C19   A    
C77   H23   S    
C64   O44   S    
C54   C58   A    
C18   H1    S    
C15   O31   S    
C26   C34   A    
C45   C65   A    
C94   H72   S    
C50   I2    S    
O38   C90   S    
O5    C1    A    
C49   I1    S    
C81   H35   S    
C32   C44   A    
C50   C54   A    
C45   O37   S    
O35   C87   S    
C14   C30   A    
C16   C20   A    
O8    C4    A    
C7    C10   S    
C65   C69   S    
C47   C67   A    
C96   H78   S    
O9    C5    A    
C74   H13   S    
C26   C30   A    
C42   O22   S    
O11   V3    S    
C76   H18   S    
O18   V4    S    
C1    C55   S    
O14   V2    S    
C91   H64   S    
C87   H51   S    
O6    V2    S    
O18   V2    S    
C93   H70   S    
C48   O40   S    
C85   H45   S    
C92   H68   S    
C12   C20   A    
C27   C35   A    
C33   C38   A    
C89   H58   S    
C78   H24   S    
C4    C54   S    
C61   C65   A    
C84   H42   S    
C84   H44   S    
C29   C41   A    
O36   C88   S    
C81   H33   S    
O16   V4    S    
C88   H56   S    
C19   H4    S    
C3    O13   A    
C77   H22   S    
C94   H74   S    
C52   I4    S    
O30   C82   S    
C16   O32   S    
C83   H41   S    
C48   C52   A    
C79   H27   S    
C78   H25   S    
O6    C2    A    
C22   O25   S    
C23   C27   A    
C39   O35   S    
C30   C42   A    
O12   V4    S    
C93   H71   S    
O21   C73   S    
C22   C26   A    
C8    C9    S    
C75   H17   S    
C9    C17   A    
O32   C84   S    
O10   C6    A    
C89   H59   S    
C83   H40   S    
O26   C78   S    
C90   H62   S    
C31   C43   A    
C66   C70   S    
C80   H30   S    
C90   H61   S    
C61   O41   S    
O37   C89   S    
O25   C77   S    
C73   H10   S    
C51   I3    S    
C64   C68   A    
C87   H52   S    
C96   H79   S    
O20   V2    S    
C12   C24   A    
C74   H14   S    
C37   O33   S    
C82   H37   S    
C13   C17   A    
O4    V2    S    
C76   H19   S    
C94   H73   S    
O39   C91   S    
C51   C55   A    
C37   C41   A    
C24   C28   A    
C44   O24   S    
C28   C36   A    
C49   C53   A    
C73   H9    S    
C4    O14   A    
C71   C72   T    
C45   C49   A    
O24   C76   S    
C17   H2    S    
C13   O29   S    
C89   H57   S    
C47   C51   A    
C14   O30   S    
C95   H77   S    
C53   C57   A    
C28   C32   A    
C91   H65   S    
C73   H11   S    
C47   O39   S    
