data_mof_unit_12921.cif
_audit_creation_date              2012-10-26T20:17:39-0400
_audit_creation_method            fapswitch 2.2
_symmetry_space_group_name_H-M    P1
_symmetry_Int_Tables_number       1
_space_group_crystal_system       triclinic
_cell_length_a                    27.785793
_cell_length_b                    8.667669
_cell_length_c                    7.473978
_cell_angle_alpha                 103.28153
_cell_angle_beta                  94.723027
_cell_angle_gamma                 93.03811
_cell_volume                      1741.1188538

loop_
_atom_site_label
_atom_site_type_symbol
_atom_type_description
_atom_site_fract_x
_atom_site_fract_y
_atom_site_fract_z
_atom_type_partial_charge
C1    C     C_R   0.498503 0.199603 0.452928 0.540276
C2    C     C_R   0.868576 0.358312 0.448560 0.027776
C3    C     C_R   0.354613 0.497621 0.504782 -0.020493
C4    C     C_R   0.645387 0.502386 0.495220 -0.020490
C5    C     C_R   0.970775 0.353461 0.457586 0.019651
C6    C     C_R   0.029226 0.646567 0.542423 0.019652
C7    C     C_R   0.977951 0.647633 0.536143 0.020538
C8    C     C_R   0.022050 0.352395 0.463874 0.020538
C9    C     C_R   0.949077 0.501075 0.494233 0.036802
C10   C     C_R   0.050924 0.498953 0.505780 0.036802
C11   C     C_R   0.940091 0.211410 0.415293 -0.143734
C12   C     C_R   0.501497 0.800397 0.547072 0.540275
C13   C     C_R   0.059910 0.788618 0.584703 -0.143730
C14   C     C_R   0.890147 0.214205 0.411326 -0.105927
C15   C     C_R   0.109854 0.785824 0.588669 -0.105926
C16   C     C_R   0.407523 0.499207 0.501499 0.547213
C17   C     C_R   0.592477 0.500794 0.498501 0.547210
C18   C     C_R   0.045772 0.209223 0.429893 -0.142922
C19   C     C_R   0.954229 0.790805 0.570136 -0.142925
C20   C     C_2   0.497839 0.031335 0.426760 -0.140174
C21   C     C_2   0.502161 0.968665 0.573240 -0.140174
C22   C     C_R   0.174988 0.354641 0.477912 0.441972
C23   C     C_R   0.102194 0.497889 0.510803 -0.025400
C24   C     C_R   0.825013 0.645386 0.522106 0.441999
C25   C     C_R   0.181869 0.638028 0.552786 0.422203
C26   C     C_R   0.818132 0.361999 0.447218 0.422169
C27   C     C_R   0.283939 0.526558 0.676187 -0.108684
C28   C     C_R   0.716061 0.473387 0.323814 -0.108689
C29   C     C_R   0.333999 0.527319 0.673621 -0.151174
C30   C     C_R   0.666000 0.472615 0.326377 -0.151176
C31   C     C_R   0.324281 0.466105 0.338519 -0.135610
C32   C     C_R   0.675719 0.533984 0.661490 -0.135615
C33   C     C_R   0.273748 0.464240 0.340402 0.305904
C34   C     C_R   0.897807 0.502139 0.489209 -0.025401
C35   C     C_R   0.726253 0.535855 0.659610 0.305899
C36   C     C_R   0.253842 0.494963 0.510524 0.286334
C37   C     C_R   0.746159 0.505063 0.489484 0.286314
C38   C     C_R   0.124397 0.353004 0.474678 0.025876
C39   C     C_R   0.875604 0.647023 0.525341 0.025872
C40   C     C_R   0.095815 0.209941 0.435199 -0.112465
C41   C     C_R   0.904187 0.790087 0.564831 -0.112468
C42   C     C_R   0.131425 0.641716 0.551444 0.027776
Cu1   Cu    Cu3+1 0.505380 0.517380 0.684380 1.067810
Cu2   Cu    Cu3+1 0.494620 0.482620 0.315620 1.067810
H1    H     H_    0.339757 0.442734 0.207402 0.119621
H2    H     H_    0.131573 0.898043 0.621215 0.177078
H3    H     H_    0.953186 0.094669 0.383841 0.107347
H4    H     H_    0.046815 0.905361 0.616143 0.107341
H5    H     H_    0.026964 0.093158 0.398238 0.104208
H6    H     H_    0.973037 0.906870 0.601804 0.104213
H7    H     H_    0.493815 0.958807 0.286053 0.151598
H8    H     H_    0.506185 0.041193 0.713947 0.151598
H9    H     H_    0.436411 0.298986 0.005137 0.326279
H10   H     H_    0.563589 0.701014 0.994863 0.326277
H11   H     H_    0.262715 0.413021 0.072451 0.317480
H12   H     H_    0.660243 0.557416 0.792610 0.119621
H13   H     H_    0.737285 0.587155 0.927566 0.317500
H14   H     H_    0.112026 0.096942 0.407243 0.164613
H15   H     H_    0.887975 0.903085 0.592796 0.164616
H16   H     H_    0.643492 0.447861 0.196222 0.156053
H17   H     H_    0.356506 0.552006 0.803770 0.156058
H18   H     H_    0.731606 0.449145 0.192958 0.139400
H19   H     H_    0.268393 0.550746 0.807039 0.139363
H20   H     H_    0.868428 0.101986 0.378771 0.177081
N1    N     N_R   0.202449 0.495851 0.515196 -0.372853
N2    N     N_R   0.797552 0.504176 0.484815 -0.372858
N3    N     N_2   0.486510 0.456430 0.038510 0.090208
N4    N     N_2   0.513490 0.543570 0.961490 0.090209
O1    O     O_R   0.503500 0.286120 0.619780 -0.461751
O2    O     O_2   0.803377 0.783563 0.556267 -0.452045
O3    O     O_2   0.789855 0.224803 0.410413 -0.460760
O4    O     O_2   0.210146 0.775224 0.589585 -0.460740
O5    O     O_3   0.453594 0.354118 0.924093 -0.590537
O6    O     O_3   0.546406 0.645882 0.075907 -0.590531
O7    O     O_3   0.243104 0.434056 0.179293 -0.658097
O8    O     O_3   0.756897 0.566110 0.820726 -0.658088
O9    O     O_R   0.496500 0.713880 0.380220 -0.461751
O10   O     O_R   0.494410 0.256780 0.308360 -0.521860
O11   O     O_R   0.505590 0.743220 0.691640 -0.521860
O12   O     O_R   0.434810 0.514700 0.655690 -0.461841
O13   O     O_R   0.565190 0.485300 0.344310 -0.461840
O14   O     O_R   0.425720 0.485350 0.344280 -0.529891
O15   O     O_R   0.574280 0.514650 0.655720 -0.529891
O16   O     O_2   0.196624 0.216464 0.443754 -0.452063

loop_
_geom_bond_atom_site_label_1
_geom_bond_atom_site_label_2
_ccdc_geom_bond_type
C26   O3    S    
C27   C29   A    
Cu1   O15   S    
C11   H3    S    
C24   C39   A    
C24   O2    S    
C39   C41   A    
C23   C42   A    
H13   O8    S    
Cu2   O9    S    
C35   C37   A    
C5    C11   A    
C20   H7    S    
Cu2   O14   S    
C11   C14   A    
N4    O6    S    
C22   C38   A    
C12   O11   A    
C33   C36   A    
C3    C29   A    
C18   C40   A    
H10   O6    S    
C33   O7    S    
Cu1   N4    S    
C30   H16   S    
C31   C33   A    
N3    O5    S    
C24   N2    A    
H11   O7    S    
C2    C34   A    
Cu1   O1    S    
C37   N2    S    
C1    O10   A    
C29   H17   S    
C35   O8    S    
C40   H14   S    
N3    N4    D    
C26   N2    A    
C32   C35   A    
C25   N1    A    
C41   H15   S    
Cu2   O13   S    
C36   N1    S    
Cu1   O12   S    
C12   C21   S    
C8    C18   A    
C34   C39   A    
C16   O12   A    
C22   O16   S    
Cu1   Cu2   S    
C22   N1    A    
C5    C9    A    
C5    C8    A    
C14   H20   S    
C12   O9    A    
C16   O14   A    
C2    C26   A    
C25   O4    S    
C3    C31   A    
C4    C32   A    
C27   H19   S    
C4    C17   S    
C7    C19   A    
C13   C15   A    
C9    C34   A    
C10   C23   A    
C7    C9    A    
C1    C20   S    
H9    O5    S    
C15   C42   A    
C25   C42   A    
C6    C10   A    
C13   H4    S    
C6    C7    A    
C27   C36   A    
C23   C38   A    
C28   C30   A    
C6    C13   A    
C38   C40   A    
C19   H6    S    
C28   C37   A    
Cu2   O10   S    
C17   O13   A    
C2    C14   A    
C1    O1    A    
C20   C21   D    
C8    C10   A    
C31   H1    S    
Cu2   N3    S    
C15   H2    S    
C17   O15   A    
Cu1   O11   S    
C32   H12   S    
C21   H8    S    
C4    C30   A    
C3    C16   S    
C19   C41   A    
C18   H5    S    
C28   H18   S    
