data_mof_unit_19771.cif
_audit_creation_date              2012-12-11T14:17:41-0500
_audit_creation_method            fapswitch 2.2
_symmetry_space_group_name_H-M    P1
_symmetry_Int_Tables_number       1
_space_group_crystal_system       triclinic
_cell_length_a                    6.983097
_cell_length_b                    13.893181
_cell_length_c                    20.319209
_cell_angle_alpha                 101.992407
_cell_angle_beta                  90.260418
_cell_angle_gamma                 90.443659
_cell_volume                      1928.1977588

loop_
_atom_site_label
_atom_site_type_symbol
_atom_type_description
_atom_site_fract_x
_atom_site_fract_y
_atom_site_fract_z
_atom_type_partial_charge
O1    O     O_R   0.506860 0.599390 0.449240 -0.538106
O2    O     O_R   0.180220 0.594600 0.586780 -0.554057
O3    O     O_R   0.004500 0.400610 0.550760 -0.543891
C1    C     C_R   0.348658 0.615725 0.613884 0.699476
O4    O     O_R   0.177490 0.611290 0.451970 -0.546050
O5    O     O_R   0.001750 0.417420 0.414990 -0.547809
C2    C     C_R   0.346026 0.637024 0.435064 0.749613
O6    O     O_R   0.509610 0.582580 0.585010 -0.496410
O7    O     O_3   0.337420 0.436370 0.488020 -0.385866
V1    V     V_3+5 0.064680 0.511800 0.502220 1.502673
O8    O     O_R   0.671710 0.405400 0.413220 -0.547047
C3    C     C_R   0.839934 0.388217 0.385874 0.721172
O9    O     O_R   0.674440 0.388710 0.548030 -0.545309
C4    C     C_R   0.843020 0.362818 0.564949 0.701477
V2    V     V_3+5 0.564010 0.488200 0.497780 1.516694
O10   O     O_3   0.841140 0.563630 0.511980 -0.348616
C5    C     C_R   0.850262 0.114078 0.609933 -0.138427
H1    H     H_    0.843495 0.166084 0.517639 0.129197
H2    H     H_    0.839515 0.988598 0.691760 0.177083
H3    H     H_    0.841878 0.037670 0.584020 0.157142
C6    C     C_R   0.851188 0.285818 0.604294 -0.069009
C7    C     C_R   0.883302 0.305687 0.928781 -0.343892
C8    C     C_R   0.925608 0.381221 0.895207 0.385488
C9    C     C_R   0.937411 0.359016 0.824371 0.363167
C10   C     C_R   0.890295 0.263152 0.786360 -0.093293
C11   C     C_R   0.867558 0.186391 0.822360 -0.000822
C12   C     C_R   0.871737 0.239820 0.714349 0.108387
C13   C     C_R   0.859206 0.139460 0.680506 0.114093
C14   C     C_R   0.851108 0.065120 0.717222 -0.185561
C15   C     C_R   0.850283 0.088171 0.787001 -0.146946
C16   C     C_R   0.856513 0.312022 0.674592 -0.225128
C17   C     C_R   0.849616 0.186865 0.572045 -0.134897
C18   C     C_R   0.865806 0.209296 0.893391 -0.118817
H4    H     H_    0.839643 0.388950 0.696390 0.153379
H5    H     H_    0.872527 0.319682 0.982981 0.133323
H6    H     H_    0.836757 0.027974 0.813089 0.113791
C19   C     C_2   0.995707 0.279607 0.289100 -0.125979
C20   C     C_2   0.845070 0.334144 0.315666 -0.265469
H7    H     H_    0.123067 0.278700 0.319847 0.162441
H8    H     H_    0.721293 0.343090 0.285489 0.137328
C21   C     C_2   0.002400 0.219132 0.219064 -0.198006
C22   C     C_2   0.849608 0.178296 0.181833 -0.129634
H9    H     H_    0.144593 0.203176 0.198596 0.178602
C23   C     C_2   0.209787 0.789749 0.785118 -0.160558
C24   C     C_2   0.359162 0.844878 0.812718 -0.277153
H10   H     H_    0.083403 0.788631 0.815656 0.136280
H11   H     H_    0.483169 0.854008 0.782741 0.189542
C25   C     C_2   0.202731 0.729137 0.715111 -0.195238
C26   C     C_2   0.358970 0.681315 0.682650 0.226725
C27   C     C_R   0.263306 0.881453 0.389278 -0.172747
H12   H     H_    0.219880 0.954436 0.414020 0.183001
C28   C     C_R   0.351001 0.717025 0.398197 -0.094237
C29   C     C_R   0.409477 0.691992 0.074189 -0.183686
C30   C     C_R   0.426139 0.618289 0.110577 -0.144529
C31   C     C_R   0.405625 0.639576 0.180182 -0.156464
C32   C     C_R   0.360244 0.735763 0.215396 0.085511
C33   C     C_R   0.330089 0.809550 0.177078 0.044863
C34   C     C_R   0.342742 0.760734 0.287096 0.074231
C35   C     C_R   0.283962 0.857047 0.318682 0.045729
C36   C     C_R   0.241656 0.926681 0.279186 0.018138
C37   C     C_R   0.268786 0.903370 0.209759 -0.233032
C38   C     C_R   0.377502 0.692337 0.328505 -0.224875
C39   C     C_R   0.297280 0.813081 0.429472 -0.038884
C40   C     C_R   0.361556 0.787512 0.106479 -0.059424
H13   H     H_    0.418878 0.617621 0.308091 0.097227
H14   H     H_    0.433891 0.674428 0.020386 0.099967
H15   H     H_    0.423140 0.578345 0.204467 0.112815
H16   H     H_    0.457099 0.543897 0.084707 0.122014
H17   H     H_    0.237768 0.959277 0.181271 0.131514
O11   O     O_R   0.203230 0.917310 0.915020 -0.539898
O12   O     O_R   0.535500 0.888690 0.048040 -0.537747
O13   O     O_R   0.711080 0.082610 0.085000 -0.524971
C41   C     C_R   0.367153 0.864318 0.066386 0.693991
O14   O     O_R   0.532630 0.905370 0.913230 -0.556339
O15   O     O_R   0.708190 0.099410 0.949230 -0.544469
C42   C     C_R   0.364555 0.893776 0.884451 0.701852
O16   O     O_R   0.206120 0.900510 0.050790 -0.543612
O17   O     O_3   0.375360 0.063570 0.011990 -0.363561
V3    V     V_3+5 0.648170 0.988200 0.997780 1.451317
O18   O     O_R   0.038240 0.111390 0.951940 -0.545240
C43   C     C_R   0.870123 0.133529 0.932816 0.726781
O19   O     O_R   0.041120 0.094710 0.086750 -0.541750
C44   C     C_R   0.871427 0.115497 0.113453 0.696463
V4    V     V_3+5 0.148810 0.011930 0.002180 1.451956
O20   O     O_3   0.871750 0.936430 0.988010 -0.381230
C45   C     C_2   0.651193 0.187282 0.208631 0.761647
O21   O     O_2   0.525611 0.220686 0.177897 -0.580159
O22   O     O_R   0.607730 0.156912 0.268199 -0.647277
H18   H     H_    0.469848 0.170737 0.281882 0.313278
C46   C     C_2   0.006731 0.717124 0.685998 0.849568
O23   O     O_2   0.922867 0.788999 0.675097 -0.521856
O24   O     O_R   0.913196 0.625830 0.673007 -0.621228
H19   H     H_    0.990269 0.572241 0.687543 0.223796
O25   O     O_3   0.539487 0.697785 0.711717 -0.525786
C47   C     C_3   0.567947 0.638654 0.759892 0.159088
H20   H     H_    0.645236 0.571431 0.735359 0.150507
H21   H     H_    0.431912 0.613977 0.779646 0.056612
C48   C     C_3   0.683349 0.697799 0.819980 -0.327027
H22   H     H_    0.747842 0.764702 0.807025 0.216714
H23   H     H_    0.585267 0.721060 0.863031 0.172792
C49   C     C_3   0.842580 0.639933 0.844120 -0.742957
H24   H     H_    0.780397 0.574230 0.857982 0.286723
H25   H     H_    0.913049 0.685344 0.889310 0.220437
H26   H     H_    0.951742 0.618511 0.804623 0.244260
C50   C     C_2   0.275383 0.844608 0.503821 0.759776
O26   O     O_2   0.355286 0.799890 0.541839 -0.562649
O27   O     O_R   0.166708 0.927538 0.530627 -0.667131
H27   H     H_    0.164022 0.942006 0.581633 0.304216
C51   C     C_2   0.153899 0.022114 0.308633 0.714556
O28   O     O_2   0.244939 0.084749 0.347809 -0.572965
O29   O     O_R   0.962819 0.037889 0.293928 -0.645138
H28   H     H_    0.912125 0.100749 0.322750 0.330846
O30   O     O_3   0.001551 0.433070 0.793909 -0.584950
C52   C     C_3   0.197455 0.418711 0.778852 0.077865
H29   H     H_    0.235872 0.463228 0.741267 0.098161
H30   H     H_    0.229413 0.340763 0.754752 0.129825
C53   C     C_3   0.319706 0.453675 0.842064 -0.319938
H31   H     H_    0.314561 0.535020 0.858189 0.194972
H32   H     H_    0.270496 0.421722 0.884419 0.209724
C54   C     C_3   0.521575 0.419069 0.830539 -0.864001
H33   H     H_    0.525196 0.337441 0.821356 0.240834
H34   H     H_    0.600365 0.449698 0.877447 0.254269
H35   H     H_    0.585781 0.444106 0.787287 0.233745
O31   O     O_3   0.946970 0.479791 0.927531 -0.576213
C55   C     C_3   0.021998 0.495742 0.993747 0.056754
H36   H     H_    0.123800 0.558679 0.999255 0.149272
H37   H     H_    0.107675 0.433371 0.004397 0.103883
C56   C     C_3   0.860745 0.525101 0.044572 -0.311256
H38   H     H_    0.785106 0.589639 0.032832 0.209557
H39   H     H_    0.755465 0.463964 0.040563 0.182860
C57   C     C_3   0.936903 0.551893 0.116584 -0.794642
H40   H     H_    0.027557 0.491987 0.127990 0.229499
H41   H     H_    0.815394 0.563461 0.152295 0.234052
H42   H     H_    0.021417 0.621262 0.123900 0.249328

loop_
_geom_bond_atom_site_label_1
_geom_bond_atom_site_label_2
_ccdc_geom_bond_type
C34   C38   A    
C31   C32   A    
C49   H24   S    
C21   C22   D    
O29   H28   S    
O18   V4    S    
C57   H42   S    
C56   H38   S    
O12   V3    S    
C52   H29   S    
C47   C48   S    
C29   C30   A    
C54   H33   S    
C7    H5    S    
C50   O27   S    
C19   C20   D    
O14   C42   A    
C24   C42   S    
C27   C35   A    
C4    C6    S    
C13   C14   A    
C9    O30   S    
C2    C28   S    
O13   V3    S    
C53   H32   S    
O5    C3    A    
C29   C40   A    
C45   O22   S    
C30   H16   S    
V2    O10   S    
C5    H3    S    
C32   C33   A    
C36   C51   S    
O8    V2    S    
C47   H20   S    
C54   H34   S    
C55   C56   S    
C40   C41   S    
C22   C45   S    
C26   O25   S    
C39   C50   S    
O11   V4    S    
O7    V1    S    
C54   H35   S    
C1    O6    A    
C35   C36   A    
C49   H25   S    
C25   C46   S    
O9    C4    A    
C3    C20   S    
C27   C39   A    
C21   H9    S    
C23   H10   S    
C24   H11   S    
C6    C17   A    
C12   C16   A    
O13   C44   A    
C9    C10   A    
C53   C54   S    
O12   C41   A    
O17   V3    S    
O15   C43   A    
O6    V2    S    
O16   V4    S    
C10   C11   A    
C36   C37   A    
O2    C1    A    
C14   C15   A    
C6    C16   A    
C11   C18   A    
C46   O24   S    
O27   H27   S    
C27   H12   S    
C16   H4    S    
V4    O20   S    
C29   H14   S    
O3    C4    A    
O1    V2    S    
C25   C26   D    
C48   H22   S    
C49   H26   S    
O19   V4    S    
O14   V3    S    
O9    V2    S    
O11   C42   A    
C55   H36   S    
H1    C17   S    
C57   H40   S    
O2    V1    S    
C56   C57   S    
V3    O20   S    
C23   C24   D    
C45   O21   D    
C33   C40   A    
O4    C2    A    
O30   C52   S    
C37   H17   S    
C7    C18   A    
C30   C31   A    
C38   H13   S    
O1    C2    A    
C5    C13   A    
C22   C44   S    
O18   C43   A    
C57   H41   S    
C28   C39   A    
C56   H39   S    
O5    V1    S    
C52   H30   S    
O8    C3    A    
C47   H21   S    
C33   C37   A    
C8    O31   S    
C10   C12   A    
C48   C49   S    
C50   O26   D    
C48   H23   S    
C15   H6    S    
C1    C26   S    
C51   O29   S    
C34   C35   A    
C31   H15   S    
C19   H7    S    
O3    V1    S    
V1    O10   S    
C53   H31   S    
C20   H8    S    
C46   O23   D    
O15   V3    S    
O24   H19   S    
C32   C34   A    
C19   C21   S    
O25   C47   S    
C52   C53   S    
C8    C9    A    
O17   V4    S    
O4    V1    S    
O22   H18   S    
O19   C44   A    
C12   C13   A    
C55   H37   S    
C5    C17   A    
C41   O16   A    
C7    C8    A    
C28   C38   A    
C51   O28   D    
C18   C43   S    
C23   C25   S    
O7    V2    S    
O31   C55   S    
C11   C15   A    
H2    C14   S    
