data_mof_unit_12370.cif
_audit_creation_date              2013-03-05T15:40:34-0500
_audit_creation_method            fapswitch 2.2
_symmetry_space_group_name_H-M    P1
_symmetry_Int_Tables_number       1
_space_group_crystal_system       triclinic
_cell_length_a                    14.953877
_cell_length_b                    8.7215
_cell_length_c                    7.441434
_cell_angle_alpha                 102.53908
_cell_angle_beta                  93.813454
_cell_angle_gamma                 92.292416
_cell_volume                      943.78980747

loop_
_atom_site_label
_atom_site_type_symbol
_atom_site_description
_atom_site_fract_x
_atom_site_fract_y
_atom_site_fract_z
_atom_type_partial_charge
O1    O     O_R   0.506510 0.286130 0.619770 -0.535795
O2    O     O_R   0.493490 0.713870 0.380230 -0.535795
O3    O     O_R   0.489600 0.256770 0.308360 -0.599844
O4    O     O_R   0.510400 0.743230 0.691640 -0.599843
C1    C     C_R   0.494123 0.200350 0.454692 0.801803
C2    C     C_R   0.505877 0.799650 0.545308 0.801802
O5    O     O_R   0.378710 0.514640 0.655720 -0.587032
O6    O     O_R   0.621290 0.485360 0.344280 -0.587032
O7    O     O_R   0.361800 0.485290 0.344300 -0.566396
O8    O     O_R   0.638200 0.514710 0.655700 -0.566397
C3    C     C_R   0.329124 0.499778 0.503084 0.796374
C4    C     C_R   0.670876 0.500222 0.496916 0.796375
Cu1   Cu    Cu3+1 0.510010 0.517380 0.684380 1.010852
Cu2   Cu    Cu3+1 0.489990 0.482620 0.315620 1.010852
C5    C     C_R   0.818387 0.639839 0.570212 -0.174251
C6    C     C_R   0.181613 0.360162 0.429785 -0.174258
C7    C     C_R   0.766991 0.502062 0.490209 -0.067054
C8    C     C_R   0.233009 0.497939 0.509790 -0.067051
C9    C     C_R   0.807029 0.365113 0.409717 -0.141905
C10   C     C_R   0.192971 0.634889 0.590275 -0.141904
C11   C     C_R   0.900217 0.362882 0.415571 0.062604
C12   C     C_R   0.099782 0.637121 0.584416 0.062594
C13   C     C_R   0.953101 0.501779 0.495871 0.017384
C14   C     C_R   0.046899 0.498225 0.504116 0.017387
C15   C     C_R   0.911990 0.643838 0.568000 0.005707
C16   C     C_R   0.088010 0.356166 0.431987 0.005715
C17   C     C_R   0.940830 0.222519 0.347244 -0.158470
C18   C     C_R   0.059170 0.777486 0.652735 -0.158459
C19   C     C_R   0.034323 0.216041 0.359067 0.347711
C20   C     C_R   0.965676 0.783965 0.640908 0.347707
H1    H     H_    0.784319 0.741903 0.635805 0.178862
H2    H     H_    0.215681 0.258095 0.364198 0.178860
H3    H     H_    0.765540 0.259096 0.349531 0.148385
H4    H     H_    0.234460 0.740906 0.650460 0.148383
H5    H     H_    0.899423 0.115929 0.290245 0.205609
H6    H     H_    0.100578 0.884076 0.709728 0.205622
C21   C     C_2   0.481013 0.033227 0.434484 0.175298
C22   C     C_2   0.518987 0.966773 0.565516 0.175303
N1    N     N_2   0.474890 0.456420 0.038520 -0.191427
N2    N     N_2   0.525110 0.543580 0.961480 -0.191427
H7    H     H_    0.430451 0.378202 0.948882 0.233723
H8    H     H_    0.569549 0.621798 0.051118 0.233722
N3    N     N_R   0.072833 0.065780 0.304542 0.126329
O9    O     O_R   0.033071 0.958233 0.170985 -0.322334
O10   O     O_R   0.136314 0.025112 0.410155 -0.388213
N4    N     N_R   0.927167 0.934229 0.695407 0.126342
O11   O     O_R   0.966944 0.041802 0.828903 -0.322327
O12   O     O_R   0.863672 0.974871 0.589809 -0.388223
O13   O     O_3   0.426032 0.944862 0.287528 -0.717981
H9    H     H_    0.397975 0.015614 0.215098 0.340044
O14   O     O_3   0.573968 0.055138 0.712472 -0.717979
H10   H     H_    0.602028 0.984385 0.784899 0.340042

loop_
_geom_bond_atom_site_label_1
_geom_bond_atom_site_label_2
_geom_bond_distance
_ccdc_geom_bond_type
C4    C7    1.441033 S    
O7    Cu2   1.943339 S    
C2    C22   1.436519 S    
C3    C8    1.441032 S    
C5    H1    1.082061 S    
C21   C22   1.344315 D    
C1    C21   1.436520 S    
C6    H2    1.082061 S    
C21   O13   1.389088 S    
O6    C4    1.293484 A    
N3    O9    1.301193 A    
C10   H4    1.085258 S    
C18   C20   1.399176 A    
C11   C17   1.398665 A    
N1    H7    1.029124 S    
C12   C18   1.398662 A    
Cu1   Cu2   2.689588 S    
C19   N3    1.440221 S    
O5    C3    1.293485 A    
N3    O10   1.301282 A    
O2    C2    1.289427 A    
O3    Cu2   1.958495 S    
O8    C4    1.291424 A    
O1    C1    1.289427 A    
C6    C8    1.394158 A    
C9    C11   1.392354 A    
C10   C12   1.392357 A    
C8    C10   1.392156 A    
O7    C3    1.291423 A    
C11   C13   1.412838 A    
C6    C16   1.400039 A    
O2    Cu2   1.966909 S    
C12   C14   1.412835 A    
C5    C15   1.400039 A    
C17   C19   1.399174 A    
C13   C14   1.401782 A    
C7    C9    1.392157 A    
O14   H10   0.991141 S    
N1    N2    1.292792 D    
N4    O12   1.301262 A    
O5    Cu1   1.959465 S    
C13   C15   1.420262 A    
O1    Cu1   1.966909 S    
C18   H6    1.084121 S    
C16   C19   1.417080 A    
O4    C2    1.287624 A    
O13   H9    0.991137 S    
C9    H3    1.085259 S    
O4    Cu1   1.958495 S    
C5    C7    1.394158 A    
N4    O11   1.301133 A    
C15   C20   1.417082 A    
Cu1   N2    2.021009 S    
O6    Cu2   1.959465 S    
C22   O14   1.389089 S    
C17   H5    1.084123 S    
Cu2   N1    2.021009 S    
C20   N4    1.440221 S    
C14   C16   1.420261 A    
N2    H8    1.029124 S    
O3    C1    1.287624 A    
O8    Cu1   1.943339 S    
