data_mof_unit_8848.cif
_audit_creation_date              2013-03-05T16:47:25-0500
_audit_creation_method            fapswitch 2.2
_symmetry_space_group_name_H-M    P1
_symmetry_Int_Tables_number       1
_space_group_crystal_system       triclinic
_cell_length_a                    10.752472
_cell_length_b                    8.901925
_cell_length_c                    8.325911
_cell_angle_alpha                 89.999964
_cell_angle_beta                  91.057372
_cell_angle_gamma                 90.000015
_cell_volume                      796.801341758

loop_
_atom_site_label
_atom_site_type_symbol
_atom_site_description
_atom_site_fract_x
_atom_site_fract_y
_atom_site_fract_z
_atom_type_partial_charge
O1    O     O_R   0.500000 0.285340 0.636850 -0.611202
O2    O     O_R   0.500000 0.285340 0.363150 -0.611201
C1    C     C_R   0.500000 0.218945 0.500000 0.856525
O3    O     O_R   0.314790 0.499970 0.636880 -0.564205
O4    O     O_R   0.314790 0.499970 0.363120 -0.556549
O5    O     O_R   0.685210 0.499970 0.636880 -0.556550
O6    O     O_R   0.685210 0.499970 0.363120 -0.564204
N1    N     N_1   0.500000 0.500030 0.073640 0.059415
N2    N     N_1   0.500000 0.500030 0.926360 0.059414
C2    C     C_R   0.258535 0.486923 0.498874 0.976620
C3    C     C_R   0.741465 0.486923 0.501126 0.976619
Zn1   Zn    Zn3+2 0.500000 0.499990 0.682780 1.161052
Zn2   Zn    Zn3+2 0.500000 0.499990 0.317220 1.161052
O7    O     O_R   0.500000 0.714650 0.636900 -0.599477
O8    O     O_R   0.500000 0.714650 0.363100 -0.599477
C4    C     C_R   0.500000 0.781010 0.500000 0.968071
C5    C     C_1   0.500000 0.065452 0.500000 -0.079926
C6    C     C_3   0.075012 0.396878 0.653624 -0.067898
C7    C     C_3   0.067962 0.377088 0.358120 -0.039910
C8    C     C_3   0.932038 0.377088 0.641880 -0.039911
C9    C     C_3   0.924988 0.396877 0.346376 -0.067900
H1    H     H_    0.115084 0.281025 0.652544 0.157202
H2    H     H_    0.083082 0.257834 0.395424 0.145460
H3    H     H_    0.916918 0.257834 0.604576 0.145460
H4    H     H_    0.884916 0.281024 0.347457 0.157202
C10   C     C_1   0.500000 0.934516 0.500000 -0.066783
C11   C     C_3   0.070674 0.644102 0.487396 1.032498
C12   C     C_3   0.929326 0.644102 0.512603 1.032498
C13   C     C_3   0.121908 0.479277 0.498024 -0.471383
C14   C     C_3   0.878092 0.479276 0.501976 -0.471382
N3    N     N_R   0.119184 0.463218 0.804460 0.305074
O9    O     O_R   0.211018 0.396911 0.879281 -0.293384
O10   O     O_R   0.085424 0.596584 0.849761 -0.147365
N4    N     N_R   0.129224 0.388348 0.204288 0.291552
O11   O     O_R   0.185753 0.270038 0.149634 -0.309345
O12   O     O_R   0.150268 0.518515 0.140235 -0.177228
N5    N     N_R   0.870776 0.388348 0.795712 0.291552
O13   O     O_R   0.814251 0.270036 0.850370 -0.309344
O14   O     O_R   0.849731 0.518514 0.859765 -0.177229
N6    N     N_R   0.880816 0.463217 0.195540 0.305074
O15   O     O_R   0.788982 0.396911 0.120720 -0.293384
O16   O     O_R   0.914576 0.596583 0.150238 -0.147365
F1    F     F_    0.129085 0.736410 0.599650 -0.581559
F2    F     F_    0.096253 0.708361 0.340721 -0.548311
F3    F     F_    0.903747 0.708361 0.659278 -0.548311
F4    F     F_    0.870914 0.736409 0.400349 -0.581559

loop_
_geom_bond_atom_site_label_1
_geom_bond_atom_site_label_2
_geom_bond_distance
_ccdc_geom_bond_type
C7    H2    1.117144 S    
N3    O10   1.299447 A    
N1    Zn2   2.028025 S    
O3    Zn1   2.020865 S    
C9    C14   1.579484 S    
O4    Zn2   2.034717 S    
N3    O9    1.299541 A    
O5    C3    1.296967 A    
N6    O16   1.299448 A    
O2    C1    1.283577 A    
O4    C2    1.296967 A    
N5    O14   1.297196 A    
C6    C13   1.579483 S    
C8    C14   1.579827 S    
O6    C3    1.293824 A    
C8    N5    1.454476 S    
O1    Zn1   1.948689 S    
C2    C13   1.470544 S    
C12   F4    1.386197 S    
N5    O13   1.302284 A    
C9    N6    1.459269 S    
C5    C10   1.165585 T    
C12   C14   1.569194 S    
N6    O15   1.299541 A    
C7    C9    1.548687 S    
Zn1   O7    1.948694 S    
C1    C5    1.366380 S    
N4    O12   1.297197 A    
Zn2   O8    1.948694 S    
O5    Zn1   2.034716 S    
N2    Zn1   2.028025 S    
O7    C4    1.283804 A    
C12   F3    1.380797 S    
C11   C13   1.569195 S    
O3    C2    1.293824 A    
O8    C4    1.283804 A    
C7    C13   1.579827 S    
C11   F1    1.386196 S    
O6    Zn2   2.020864 S    
C6    C8    1.548685 S    
N4    O11   1.302284 A    
C11   C12   1.538087 S    
O2    Zn2   1.948688 S    
C9    H4    1.117807 S    
C6    N3    1.459269 S    
C6    H1    1.117808 S    
C11   F2    1.380797 S    
C7    N4    1.454476 S    
C8    H3    1.117143 S    
C3    C14   1.470543 S    
N1    N2    1.226239 T    
O1    C1    1.283577 A    
C4    C10   1.366493 S    
