data_mof_unit_22370.cif
_audit_creation_date              2012-10-26T19:30:38-0400
_audit_creation_method            fapswitch 2.2
_symmetry_space_group_name_H-M    P1
_symmetry_Int_Tables_number       1
_space_group_crystal_system       triclinic
_cell_length_a                    19.344113
_cell_length_b                    10.657962
_cell_length_c                    9.442625
_cell_angle_alpha                 89.649754
_cell_angle_beta                  90.588455
_cell_angle_gamma                 88.832172
_cell_volume                      1946.22892137

loop_
_atom_site_label
_atom_site_type_symbol
_atom_type_description
_atom_site_fract_x
_atom_site_fract_y
_atom_site_fract_z
_atom_type_partial_charge
C1    C     C_R   0.499071 0.259889 0.500435 0.605242
C2    C     C_3   0.560041 0.043300 0.446220 -0.108247
C3    C     C_3   0.554719 0.553452 0.051850 0.021611
C4    C     C_3   0.445317 0.446434 0.948100 0.011220
C5    C     C_3   0.501019 0.613670 0.948531 -0.029161
C6    C     C_3   0.498916 0.386339 0.051491 -0.026657
C7    C     C_3   0.553003 0.440462 0.952602 0.101906
C8    C     C_3   0.446928 0.559368 0.047362 0.098786
C9    C     C_R   0.367901 0.500027 0.499525 0.588023
C10   C     C_R   0.632104 0.499958 0.500468 0.586581
C11   C     C_R   0.257234 0.394173 0.552596 -0.003650
C12   C     C_R   0.501318 0.740128 0.499600 0.604854
C13   C     C_R   0.742784 0.605444 0.446492 -0.013352
C14   C     C_R   0.184698 0.394904 0.550862 -0.068509
C15   C     C_R   0.815320 0.604630 0.447997 -0.068302
C16   C     C_R   0.146505 0.497555 0.495930 -0.002838
C17   C     C_R   0.853519 0.502211 0.503451 -0.000748
C18   C     C_R   0.181403 0.600804 0.441835 -0.126867
C19   C     C_R   0.818627 0.399276 0.558314 -0.124907
C20   C     C_R   0.253547 0.604480 0.444367 0.026221
C21   C     C_R   0.746479 0.395678 0.556117 0.027163
C22   C     C_R   0.292090 0.499821 0.498821 0.023342
C23   C     C_3   0.493684 0.039322 0.633290 -0.013932
C24   C     C_R   0.707922 0.500122 0.501116 0.023349
C25   C     C_R   0.929851 0.501375 0.502053 0.356085
C26   C     C_R   0.070172 0.498331 0.497169 0.355525
C27   C     C_2   0.295648 0.281520 0.608676 0.259297
C28   C     C_2   0.704389 0.717866 0.389736 0.275784
C29   C     C_2   0.613305 0.367490 0.896508 0.303510
C30   C     C_2   0.385531 0.629471 0.103274 0.278415
C31   C     C_2   0.285229 0.722106 0.393526 0.239885
C32   C     C_2   0.714834 0.278324 0.607912 0.246999
C33   C     C_2   0.615729 0.915757 0.665544 0.302814
C34   C     C_3   0.507454 0.960926 0.367210 -0.024629
C35   C     C_2   0.385893 0.083182 0.332885 0.238639
C36   C     C_2   0.482649 0.083867 0.781845 0.231625
C37   C     C_2   0.516000 0.918670 0.217233 0.274454
C38   C     C_3   0.554178 0.957939 0.578558 0.007676
C39   C     C_3   0.446970 0.042055 0.421814 -0.029056
C40   C     C_3   0.502157 0.876542 0.498859 0.007004
C41   C     C_3   0.498805 0.123538 0.501397 0.006924
C42   C     C_3   0.441054 0.956996 0.554293 -0.157911
Cu1   Cu    Cu3+1 0.500020 0.499990 0.643150 1.020061
Cu2   Cu    Cu3+1 0.499980 0.500010 0.356850 1.024864
H1    H     H_    0.152224 0.681011 0.400300 0.140653
H2    H     H_    0.745643 0.211652 0.670419 0.125832
H3    H     H_    0.649080 0.985285 0.712085 0.158340
H4    H     H_    0.353571 0.013046 0.284464 0.128743
H5    H     H_    0.436836 0.139598 0.806447 0.112636
H6    H     H_    0.474213 0.871924 0.163411 0.085988
H7    H     H_    0.392583 0.921389 0.600230 0.177101
H8    H     H_    0.608517 0.079278 0.400671 0.198480
H9    H     H_    0.501366 0.709461 0.901728 0.157842
H10   H     H_    0.498548 0.290561 0.098330 0.163720
H11   H     H_    0.600678 0.598055 0.099798 0.162106
H12   H     H_    0.847819 0.319257 0.600281 0.140892
H13   H     H_    0.399401 0.401737 0.900080 0.143426
H14   H     H_    0.351588 0.275647 0.605844 0.117356
H15   H     H_    0.648455 0.723900 0.392721 0.134137
H16   H     H_    0.604716 0.282520 0.837045 0.165186
H17   H     H_    0.392687 0.712663 0.166296 0.120368
H18   H     H_    0.157812 0.314644 0.592219 0.194157
H19   H     H_    0.842205 0.684639 0.406022 0.193668
H20   H     H_    0.254584 0.788792 0.330709 0.121469
N1    N     N_R   0.033142 0.597929 0.444381 -0.205732
N2    N     N_R   0.966882 0.401771 0.554826 -0.205395
N3    N     N_R   0.964401 0.599407 0.446660 -0.208855
N4    N     N_R   0.035622 0.400291 0.552543 -0.209503
N5    N     N_3   0.500050 0.499970 0.858290 -0.277703
N6    N     N_3   0.499950 0.500030 0.141710 -0.278529
O1    O     O_R   0.500030 0.316850 0.620870 -0.533067
O2    O     O_2   0.734981 0.806378 0.339119 -0.468958
O3    O     O_2   0.672103 0.402230 0.918738 -0.489826
O4    O     O_2   0.327236 0.593770 0.077591 -0.492609
O5    O     O_2   0.344448 0.748661 0.424374 -0.557840
O6    O     O_2   0.655439 0.251992 0.578328 -0.551946
O7    O     O_2   0.628729 0.804451 0.684653 -0.494253
O8    O     O_2   0.372165 0.194281 0.314198 -0.495570
O9    O     O_2   0.524685 0.058183 0.875236 -0.492154
O10   O     O_2   0.569823 0.937092 0.154931 -0.437736
O11   O     O_R   0.499970 0.683150 0.379130 -0.531574
O12   O     O_R   0.500000 0.316860 0.379090 -0.463778
O13   O     O_R   0.500000 0.683140 0.620910 -0.465658
O14   O     O_R   0.400160 0.499980 0.620930 -0.525319
O15   O     O_R   0.599840 0.500020 0.379070 -0.522352
O16   O     O_R   0.400130 0.499990 0.379150 -0.442084
O17   O     O_R   0.599870 0.500010 0.620850 -0.441449
O18   O     O_2   0.265070 0.192658 0.658538 -0.499306

loop_
_geom_bond_atom_site_label_1
_geom_bond_atom_site_label_2
_ccdc_geom_bond_type
C19   H12   S    
N2    N4    A    
C10   O15   A    
C7    C29   S    
C34   C37   S    
Cu1   O13   S    
C25   N3    A    
C4    C8    S    
C39   C41   S    
C1    O1    A    
C23   C42   S    
C34   C40   S    
C5    H9    S    
C19   C21   A    
C3    C7    S    
Cu2   O12   S    
C30   O4    D    
C11   C14   A    
C9    C22   S    
C29   O3    D    
C2    C41   S    
C14   H18   S    
C15   C17   A    
C5    N5    S    
C3    H11   S    
N1    N3    A    
C4    H13   S    
C13   C28   S    
Cu2   N6    S    
C42   H7    S    
C8    C30   S    
C2    C34   S    
C40   C42   S    
Cu1   N5    S    
Cu1   O14   S    
C28   O2    D    
C6    H10   S    
Cu2   O16   S    
C35   H4    S    
C4    N5    S    
C21   C32   S    
C39   C42   S    
C16   C26   S    
C37   O10   D    
C10   O17   A    
C34   C39   S    
C3    N6    S    
C4    C6    S    
Cu2   O11   S    
C10   C24   S    
C1    O12   A    
C27   H14   S    
C13   C24   A    
C12   C40   S    
C35   C39   S    
Cu1   Cu2   S    
C7    N5    S    
C9    O16   A    
C2    C38   S    
C31   O5    D    
C29   H16   S    
C11   C27   S    
C2    H8    S    
C1    C41   S    
C20   C22   A    
C13   C15   A    
C33   H3    S    
C14   C16   A    
C21   C24   A    
Cu2   O15   S    
C18   H1    S    
C28   H15   S    
C6    N6    S    
Cu1   O1    S    
C11   C22   A    
C26   N1    A    
C32   H2    S    
C31   H20   S    
C25   N2    A    
C17   C25   S    
C3    C5    S    
C36   O9    D    
C32   O6    D    
C5    C8    S    
C6    C7    S    
C23   C38   S    
C35   O8    D    
C8    N6    S    
C33   C38   S    
C23   C41   S    
Cu1   O17   S    
C26   N4    A    
C38   C40   S    
C37   H6    S    
C33   O7    D    
C17   C19   A    
C12   O11   A    
C18   C20   A    
C27   O18   D    
C9    O14   A    
C12   O13   A    
C16   C18   A    
C23   C36   S    
C30   H17   S    
C15   H19   S    
C36   H5    S    
C20   C31   S    
