data_mof_unit_59222.cif
_audit_creation_date              2012-12-10T17:11:01-0500
_audit_creation_method            fapswitch 2.2
_symmetry_space_group_name_H-M    P1
_symmetry_Int_Tables_number       1
_space_group_crystal_system       triclinic
_cell_length_a                    11.665021
_cell_length_b                    12.998261
_cell_length_c                    13.417292
_cell_angle_alpha                 91.739789
_cell_angle_beta                  76.318559
_cell_angle_gamma                 99.781461
_cell_volume                      1947.83477493

loop_
_atom_site_label
_atom_site_type_symbol
_atom_type_description
_atom_site_fract_x
_atom_site_fract_y
_atom_site_fract_z
_atom_type_partial_charge
C1    C     C_R   0.520937 0.700852 0.501164 0.785000
C2    C     C_R   0.446000 0.504261 0.976949 0.108291
C3    C     C_R   0.475156 0.534919 0.872177 0.081411
C4    C     C_R   0.535128 0.528532 0.034728 -0.022527
C5    C     C_R   0.641869 0.598931 0.992197 0.042143
C6    C     C_R   0.661637 0.639054 0.893355 -0.189002
C7    C     C_R   0.579886 0.607340 0.834100 -0.198790
C8    C     C_R   0.524277 0.483595 0.131952 0.312864
C9    C     C_R   0.706285 0.598108 0.151309 0.376735
C10   C     C_R   0.396428 0.495202 0.809002 -0.110096
C11   C     C_R   0.468201 0.185840 0.494806 -0.049951
C12   C     C_R   0.436262 0.498838 0.696263 0.788431
C13   C     C_R   0.533285 0.814241 0.501079 -0.050016
C14   C     C_R   0.651305 0.984412 0.512595 -0.221382
C15   C     C_R   0.640153 0.876307 0.512603 -0.211754
C16   C     C_R   0.437472 0.860959 0.489566 -0.271480
C17   C     C_R   0.447575 0.968993 0.490319 0.176360
C18   C     C_R   0.555335 0.031184 0.501933 0.177106
C19   C     C_R   0.565080 0.139178 0.503616 -0.275125
C20   C     C_R   0.361369 0.123782 0.483124 -0.194913
C21   C     C_R   0.351280 0.015751 0.480485 -0.219267
C22   C     C_R   0.947124 0.600895 0.591037 -0.339707
C23   C     C_R   0.479460 0.299168 0.497713 0.805880
C24   C     C_R   0.828051 0.591008 0.582497 0.081290
C25   C     C_R   0.856546 0.455970 0.461048 0.048153
C26   C     C_R   0.977304 0.463533 0.466625 0.067687
C27   C     C_R   0.022864 0.536751 0.532923 0.068301
C28   C     C_R   0.143374 0.543921 0.539002 0.017937
C29   C     C_R   0.172684 0.410267 0.416054 0.101883
C30   C     C_R   0.053453 0.400113 0.407733 -0.344559
C31   C     C_R   0.564256 0.506782 0.304123 0.858691
C32   C     C_R   0.727701 0.630140 0.049279 -0.299970
C33   C     C_R   0.602865 0.526084 0.193261 -0.249115
C34   C     C_R   0.281376 0.442416 0.854053 -0.183776
C35   C     C_R   0.245905 0.426272 0.959458 -0.184044
C36   C     C_R   0.326975 0.455985 0.020475 -0.134775
Cu1   Cu    Cu3+1 0.386470 0.492430 0.492410 0.943005
Cu2   Cu    Cu3+1 0.613530 0.507570 0.507590 0.944771
H1    H     H_    0.285669 0.158594 0.475887 0.150869
H2    H     H_    0.734349 0.031267 0.521645 0.133619
H3    H     H_    0.268264 0.968905 0.471366 0.133500
H4    H     H_    0.714952 0.841428 0.522018 0.154165
H5    H     H_    0.354673 0.813490 0.480561 0.153145
H6    H     H_    0.179362 0.599561 0.590095 0.119945
H7    H     H_    0.230789 0.361156 0.370463 0.136680
H8    H     H_    0.979680 0.658499 0.642295 0.134795
H9    H     H_    0.021228 0.343170 0.355763 0.135053
H10   H     H_    0.770941 0.641737 0.626417 0.114485
H11   H     H_    0.741219 0.694951 0.861294 0.133485
H12   H     H_    0.820419 0.400120 0.410198 0.117805
H13   H     H_    0.809499 0.683013 0.016123 0.156761
H14   H     H_    0.218860 0.412790 0.807606 0.157733
H15   H     H_    0.292072 0.445291 0.101991 0.193454
H16   H     H_    0.155563 0.388633 0.994002 0.145763
H17   H     H_    0.597214 0.644011 0.759684 0.146515
H18   H     H_    0.647913 0.186619 0.512573 0.152448
N1    N     N_R   0.215880 0.481050 0.481000 -0.182405
N2    N     N_R   0.784100 0.518950 0.519000 -0.180699
O1    O     O_R   0.419710 0.645650 0.494620 -0.592585
O2    O     O_R   0.611450 0.658430 0.507430 -0.602058
O3    O     O_R   0.357340 0.490460 0.641450 -0.583628
O4    O     O_R   0.549080 0.503250 0.654260 -0.578848
O5    O     O_R   0.388550 0.341570 0.492570 -0.596181
O6    O     O_R   0.580290 0.354350 0.505380 -0.591516
O7    O     O_R   0.450920 0.496750 0.345740 -0.551278
O8    O     O_R   0.642660 0.509540 0.358550 -0.548956
O9    O     O_3   0.789055 0.633522 0.208594 -0.555532
C37   C     C_3   0.777419 0.736612 0.240117 0.103365
H19   H     H_    0.684467 0.740728 0.284224 0.128332
H20   H     H_    0.801285 0.790827 0.172936 0.128123
C38   C     C_3   0.862306 0.772762 0.309304 -0.766764
H21   H     H_    0.956035 0.770571 0.267116 0.242050
H22   H     H_    0.854496 0.853994 0.334352 0.188679
H23   H     H_    0.839909 0.721087 0.378014 0.262362
O10   O     O_3   0.436972 0.398481 0.168740 -0.623287
C39   C     C_3   0.489521 0.307281 0.156548 0.059670
H24   H     H_    0.565939 0.314843 0.194397 0.127632
H25   H     H_    0.521634 0.291152 0.073463 0.148232
C40   C     C_3   0.395512 0.215313 0.206276 -0.332826
H26   H     H_    0.359003 0.233220 0.287941 0.217646
H27   H     H_    0.320846 0.203274 0.166534 0.215359
C41   C     C_3   0.448531 0.115201 0.201334 -0.913419
H28   H     H_    0.485299 0.095144 0.120318 0.253310
H29   H     H_    0.377631 0.050006 0.237321 0.258726
H30   H     H_    0.520813 0.124712 0.243624 0.260586

loop_
_geom_bond_atom_site_label_1
_geom_bond_atom_site_label_2
_ccdc_geom_bond_type
C19   H18   S    
C31   O8    A    
C14   C18   A    
C35   C36   A    
C39   C40   S    
C7    H17   S    
C4    C8    A    
C28   N1    A    
C11   C19   A    
C26   C27   A    
C29   C30   A    
C39   H25   S    
C18   C19   A    
C3    C7    A    
C1    O1    A    
C5    C6    A    
C34   C35   A    
C25   H12   S    
C36   H15   S    
C9    C32   A    
Cu2   N2    S    
Cu2   O8    S    
C16   C17   A    
Cu1   O7    S    
C31   C33   S    
C5    C32   A    
C23   O5    A    
Cu2   O2    S    
C35   H16   S    
C9    C33   A    
Cu1   O5    S    
Cu2   O6    S    
C11   C20   A    
O9    C37   S    
C24   H10   S    
C30   H9    S    
C39   H24   S    
C1    O2    A    
C38   H22   S    
C20   H1    S    
C37   H19   S    
C25   C26   A    
C28   H6    S    
C8    O10   S    
C17   C21   A    
C29   H7    S    
C2    C4    A    
O10   C39   S    
C9    O9    S    
C32   H13   S    
Cu1   Cu2   S    
C40   C41   S    
C12   O4    A    
C17   C18   A    
C10   C34   A    
C16   H5    S    
Cu1   O1    S    
C10   C12   S    
C21   H3    S    
C37   H20   S    
C23   O6    A    
C22   H8    S    
C29   N1    A    
C26   C30   A    
C41   H29   S    
C22   C27   A    
C13   C15   A    
C22   C24   A    
C1    C13   S    
C25   N2    A    
C40   H27   S    
C2    C36   A    
C31   O7    A    
C15   H4    S    
C4    C5    A    
C38   H23   S    
Cu1   O3    S    
C6    C7    A    
C41   H30   S    
C34   H14   S    
C2    C3    A    
C38   H21   S    
C3    C10   A    
C12   O3    A    
C37   C38   S    
C11   C23   S    
C8    C33   A    
C6    H11   S    
C14   H2    S    
C40   H26   S    
C20   C21   A    
C24   N2    A    
C41   H28   S    
C13   C16   A    
C27   C28   A    
C14   C15   A    
Cu1   N1    S    
Cu2   O4    S    
