data_mof_unit_43319.cif
_audit_creation_date              2012-12-10T17:21:19-0500
_audit_creation_method            fapswitch 2.2
_symmetry_space_group_name_H-M    P1
_symmetry_Int_Tables_number       1
_space_group_crystal_system       triclinic
_cell_length_a                    9.638369
_cell_length_b                    10.900677
_cell_length_c                    13.882578
_cell_angle_alpha                 94.734769
_cell_angle_beta                  84.959483
_cell_angle_gamma                 90.63971
_cell_volume                      1447.95959836

loop_
_atom_site_label
_atom_site_type_symbol
_atom_type_description
_atom_site_fract_x
_atom_site_fract_y
_atom_site_fract_z
_atom_type_partial_charge
C1    C     C_R   0.498515 0.737411 0.511776 0.803337
C2    C     C_1   0.463130 0.496264 0.785566 -0.188502
C3    C     C_R   0.239100 0.878912 0.577849 -0.283922
C4    C     C_R   0.110222 0.928121 0.562166 0.358511
C5    C     C_R   0.108919 0.035105 0.513343 0.428967
C6    C     C_R   0.230999 0.103273 0.500199 -0.237419
C7    C     C_R   0.362088 0.058559 0.520620 -0.021201
C8    C     C_R   0.364851 0.935287 0.544000 0.054665
C9    C     C_R   0.493152 0.872124 0.531901 -0.167944
C10   C     C_R   0.616300 0.939967 0.534169 -0.200926
C11   C     C_R   0.612715 0.067680 0.539166 0.385309
C12   C     C_R   0.477386 0.499910 0.682710 0.797076
C13   C     C_R   0.489993 0.128175 0.518924 -0.200119
C14   C     C_R   0.866122 0.354572 0.358046 -0.124668
C15   C     C_R   0.937253 0.305357 0.274009 -0.359391
C16   C     C_R   0.080834 0.309493 0.264325 0.336349
C17   C     C_R   0.152548 0.354760 0.344527 0.402397
C18   C     C_R   0.081584 0.429839 0.425311 0.089452
C19   C     C_R   0.931701 0.429397 0.428307 0.166740
C20   C     C_R   0.918454 0.564269 0.569930 -0.016545
C21   C     C_R   0.065724 0.562779 0.570676 -0.044802
C22   C     C_R   0.497555 0.261959 0.504290 0.812379
C23   C     C_R   0.522539 0.500335 0.317341 0.852133
C24   C     C_1   0.535193 0.502441 0.214430 -0.157665
C25   C     C_2   0.546561 0.509223 0.024538 -0.235546
C26   C     C_2   0.432736 0.487975 0.976044 0.298165
C27   C     C_1   0.449315 0.492409 0.872097 -0.034169
C28   C     C_1   0.542578 0.505171 0.127864 0.013226
Cu1   Cu    Cu3+1 0.359340 0.500010 0.500010 0.980047
Cu2   Cu    Cu3+1 0.640660 0.499990 0.499990 0.962661
H1    H     H_    0.758791 0.331445 0.363965 0.222238
H2    H     H_    0.879973 0.258154 0.218124 0.165909
H3    H     H_    0.113584 0.612829 0.629560 0.107953
H4    H     H_    0.645824 0.530558 0.985935 0.137141
H5    H     H_    0.714804 0.894180 0.536969 0.210820
H6    H     H_    0.240787 0.797008 0.616497 0.152536
H7    H     H_    0.216047 0.187644 0.470339 0.238179
H8    H     H_    0.857150 0.617312 0.627452 0.133133
N1    N     N_R   0.852210 0.498790 0.499090 -0.184260
N2    N     N_R   0.148080 0.498710 0.499060 -0.173005
O1    O     O_R   0.381190 0.680360 0.500010 -0.581416
O2    O     O_R   0.618760 0.680340 0.500000 -0.575622
O3    O     O_R   0.364420 0.499990 0.637850 -0.585290
O4    O     O_R   0.601990 0.499960 0.637840 -0.584292
O5    O     O_R   0.381240 0.319660 0.500000 -0.535179
O6    O     O_R   0.618810 0.319640 0.499990 -0.579454
O7    O     O_R   0.398010 0.500040 0.362160 -0.512455
O8    O     O_R   0.635580 0.500010 0.362150 -0.603353
N3    N     N_2   0.300704 0.457367 0.024729 -0.386738
H9    H     H_    0.284498 0.487213 0.097250 0.277661
C29   C     C_3   0.177803 0.462847 0.972305 -0.647754
H10   H     H_    0.085026 0.434290 0.018502 0.224718
H11   H     H_    0.187986 0.398919 0.905514 0.239587
H12   H     H_    0.161856 0.558339 0.953135 0.216518
O9    O     O_3   0.154600 0.259275 0.180587 -0.734488
H13   H     H_    0.088824 0.232564 0.131798 0.334313
O10   O     O_3   0.284920 0.311591 0.347426 -0.709313
H14   H     H_    0.308663 0.243974 0.296672 0.349150
O11   O     O_3   0.985870 0.874221 0.593152 -0.750664
H15   H     H_    0.005013 0.811067 0.637495 0.306278
O12   O     O_3   0.989964 0.078133 0.479714 -0.683465
H16   H     H_    0.923780 0.008464 0.472743 0.376192
O13   O     O_3   0.729796 0.130192 0.565821 -0.670571
H17   H     H_    0.698527 0.196458 0.616027 0.336398

loop_
_geom_bond_atom_site_label_1
_geom_bond_atom_site_label_2
_ccdc_geom_bond_type
C13   C22   S    
C23   C24   S    
Cu1   Cu2   S    
C20   H8    S    
C9    C10   A    
C14   H1    S    
C7    C8    A    
O12   H16   S    
C7    C13   A    
C25   H4    S    
O9    H13   S    
C29   H12   S    
C2    C12   S    
N3    C29   S    
C17   C18   A    
O10   H14   S    
C6    H7    S    
C5    O12   S    
O11   H15   S    
C12   O4    A    
C2    C27   T    
Cu1   O3    S    
C25   C28   S    
C11   C13   A    
Cu2   O4    S    
C26   C27   S    
C6    C7    A    
C21   N2    A    
C19   N1    A    
C3    H6    S    
Cu1   O7    S    
C4    C5    A    
C4    O11   S    
Cu2   O8    S    
C22   O6    A    
Cu2   N1    S    
C3    C8    A    
C12   O3    A    
C11   O13   S    
C5    C6    A    
C10   H5    S    
C16   O9    S    
Cu1   O5    S    
C21   H3    S    
C10   C11   A    
C29   H10   S    
C1    C9    S    
C24   C28   T    
C1    O2    A    
C15   H2    S    
C22   O5    A    
C23   O7    A    
C20   C21   A    
Cu1   N2    S    
C18   C19   A    
C26   N3    S    
C1    O1    A    
N3    H9    S    
C20   N1    A    
C18   N2    A    
C14   C15   A    
C16   C17   A    
C23   O8    A    
Cu1   O1    S    
C25   C26   D    
O13   H17   S    
C14   C19   A    
Cu2   O6    S    
Cu2   O2    S    
C3    C4    A    
C15   C16   A    
C17   O10   S    
C8    C9    A    
C29   H11   S    
