data_mof_unit_43149.cif
_audit_creation_date              2013-03-05T15:47:03-0500
_audit_creation_method            fapswitch 2.2
_symmetry_space_group_name_H-M    P1
_symmetry_Int_Tables_number       1
_space_group_crystal_system       triclinic
_cell_length_a                    8.281904
_cell_length_b                    17.435708
_cell_length_c                    19.187105
_cell_angle_alpha                 99.137143
_cell_angle_beta                  94.491614
_cell_angle_gamma                 97.459961
_cell_volume                      2698.43907611

loop_
_atom_site_label
_atom_site_type_symbol
_atom_site_description
_atom_site_fract_x
_atom_site_fract_y
_atom_site_fract_z
_atom_type_partial_charge
P1    P     P_3+3 0.992230 0.679190 0.566750 0.447736
O1    O     O_2   0.166667 0.691630 0.546720 -0.378858
O2    O     O_3   0.893830 0.593690 0.541700 -0.410139
O3    O     O_3   0.390350 0.644650 0.417800 -0.388314
O4    O     O_2   0.273565 0.777875 0.450706 -0.396415
O5    O     O_3   0.034714 0.687418 0.658700 -0.571900
O6    O     O_3   0.480548 0.777912 0.355446 -0.547937
H1    H     H_    0.279127 0.702219 0.301625 0.172440
C1    C     C_3   0.432761 0.748933 0.228899 -1.026521
H2    H     H_    0.370909 0.801613 0.227742 0.276751
H3    H     H_    0.564809 0.764405 0.223133 0.257183
P2    P     P_3+3 0.339610 0.439630 0.337240 0.461552
P3    P     P_3+3 0.930367 0.604005 0.289188 0.431891
O7    O     O_2   0.171750 0.463380 0.328050 -0.352469
O8    O     O_3   0.965290 0.605410 0.380210 -0.380603
O9    O     O_2   0.061087 0.560449 0.252827 -0.389261
O10   O     O_3   0.299174 0.337449 0.311275 -0.588125
O11   O     O_3   0.974188 0.700821 0.274849 -0.532036
C2    C     C_3   0.903299 0.749148 0.326142 0.406780
H4    H     H_    0.964317 0.750158 0.380045 0.134385
H5    H     H_    0.770099 0.728777 0.324899 0.063384
C3    C     C_3   0.925539 0.832685 0.311165 -0.929277
H6    H     H_    0.057983 0.855282 0.313711 0.265129
H7    H     H_    0.865865 0.834224 0.257620 0.254113
C4    C     C_3   0.666298 0.302355 0.303439 0.681504
H8    H     H_    0.602253 0.348012 0.331538 0.096933
C5    C     C_3   0.563561 0.221084 0.294746 -1.036109
H9    H     H_    0.522116 0.209227 0.346028 0.264336
H10   H     H_    0.455418 0.217348 0.255764 0.243198
H11   H     H_    0.637133 0.174911 0.274565 0.248964
Ba1   Ba    Ba6+2 0.162080 0.538580 0.468810 1.530506
C6    C     C_3   0.898979 0.709040 0.691714 0.362320
H12   H     H_    0.784943 0.672947 0.664779 0.137762
H13   H     H_    0.892684 0.772095 0.691252 0.047604
C7    C     C_3   0.917035 0.696125 0.768329 -0.908974
H14   H     H_    0.920701 0.632979 0.770072 0.256256
H15   H     H_    0.811682 0.714691 0.795658 0.231016
H16   H     H_    0.031765 0.731168 0.796587 0.249004
C8    C     C_3   0.224979 0.302636 0.363756 0.434565
H17   H     H_    0.131970 0.336828 0.385923 0.133865
H18   H     H_    0.319259 0.298294 0.406845 0.102345
C9    C     C_3   0.140238 0.220466 0.330476 -0.992531
H19   H     H_    0.048133 0.223941 0.286254 0.281006
H20   H     H_    0.078506 0.191140 0.370173 0.230362
H21   H     H_    0.229372 0.183005 0.309553 0.252709
P4    P     P_3+3 0.818060 0.320800 0.433200 0.457899
O12   O     O_2   0.643630 0.308330 0.453260 -0.383317
O13   O     O_3   0.916470 0.406310 0.458240 -0.412165
O14   O     O_3   0.419940 0.355340 0.582140 -0.354056
O15   O     O_3   0.818279 0.300919 0.340443 -0.582869
P5    P     P_3+3 0.873188 0.394215 0.712652 0.445245
O16   O     O_3   0.383960 0.539280 0.585630 -0.391955
O17   O     O_3   0.845010 0.394580 0.619730 -0.416622
O18   O     O_2   0.748279 0.443072 0.747336 -0.371132
O19   O     O_3   0.808369 0.299309 0.727747 -0.508329
Ba2   Ba    Ba6+2 0.648090 0.461410 0.531130 1.520677
P6    P     P_3+3 0.435982 0.746494 0.435188 0.441234
C10   C     C_3   0.411779 0.718950 0.298303 0.507621
H22   H     H_    0.475060 0.666529 0.297583 0.055038
H23   H     H_    0.377655 0.702566 0.183695 0.240219
O20   O     O_3   0.426330 0.460710 0.414310 -0.394194
C11   C     C_3   0.465658 0.706448 0.661426 0.405808
H24   H     H_    0.523972 0.691482 0.611746 0.069230
H25   H     H_    0.331899 0.695716 0.651108 0.166778
C12   C     C_3   0.516357 0.793256 0.691619 -1.067075
H26   H     H_    0.640672 0.803731 0.720304 0.259301
H27   H     H_    0.517608 0.828326 0.648298 0.225883
H28   H     H_    0.429450 0.813602 0.729336 0.277317
P7    P     P_3+3 0.465380 0.562029 0.677142 0.443624
O21   O     O_2   0.638540 0.536570 0.671920 -0.342620
O22   O     O_3   0.512764 0.662254 0.712002 -0.583338
H29   H     H_    0.869125 0.871018 0.351386 0.235956
C13   C     C_3   0.849193 0.245518 0.671588 0.569651
H30   H     H_    0.767407 0.244892 0.622723 0.150474
H31   H     H_    0.978413 0.260117 0.660813 -0.055804
C14   C     C_3   0.826523 0.163832 0.690951 -1.014992
H32   H     H_    0.697297 0.146868 0.700605 0.288186
H33   H     H_    0.857976 0.120604 0.647031 0.227899
H34   H     H_    0.907767 0.162831 0.739579 0.249866
P8    P     P_3+3 0.380308 0.253339 0.573663 0.453478
C15   C     C_3   0.317834 0.250725 0.702303 0.403539
H35   H     H_    0.210160 0.203875 0.691765 0.048370
O23   O     O_2   0.501849 0.218049 0.525066 -0.394712
O24   O     O_3   0.436173 0.230325 0.656834 -0.495421
H36   H     H_    0.278795 0.308179 0.696183 0.059858
H37   H     H_    0.295272 0.272100 0.815085 0.201401
C16   C     C_3   0.389247 0.257558 0.778837 -0.905096
H38   H     H_    0.495961 0.304909 0.790922 0.288584
H39   H     H_    0.429102 0.201179 0.787767 0.251928
C17   C     C_2   0.741417 0.732047 0.501363 -0.451425
C18   C     C_3   0.607392 0.783665 0.506741 0.185850
C19   C     C_2   0.678828 0.867711 0.504706 -0.243238
C20   C     C_2   0.838407 0.893762 0.528001 0.046595
C21   C     C_2   0.941594 0.835615 0.553970 0.059579
C22   C     C_1   0.885706 0.758236 0.537829 0.208595
C23   C     C_R   0.096813 0.140341 0.531829 -0.287463
C24   C     C_R   0.167683 0.218436 0.535956 0.218769
C25   C     C_R   0.919709 0.248949 0.477119 0.338094
C26   C     C_R   0.847643 0.169810 0.472378 -0.289116
C27   C     C_R   0.934161 0.114731 0.500973 0.125602
C28   C     C_2   0.909868 0.979087 0.534360 -0.174899
C29   C     C_2   0.855165 0.030647 0.494987 -0.157962
C30   C     C_R   0.078653 0.271905 0.509359 -0.521774
H40   H     H_    0.749031 0.010961 0.456425 0.139971
H41   H     H_    0.171342 0.100297 0.551284 0.138765
H42   H     H_    0.013585 0.999801 0.573537 0.137016
H43   H     H_    0.596860 0.907843 0.490712 0.156102
H44   H     H_    0.725505 0.150996 0.445732 0.161861
H45   H     H_    0.724581 0.678067 0.462807 0.168137
H46   H     H_    0.137749 0.330786 0.509224 0.152636
C31   C     C_R   0.618379 0.527968 0.301225 -0.483229
C32   C     C_R   0.461434 0.489091 0.276547 0.325858
C33   C     C_R   0.404546 0.482165 0.204592 -0.255825
C34   C     C_R   0.503845 0.515364 0.157390 0.057697
C35   C     C_R   0.662624 0.553869 0.183310 -0.281869
C36   C     C_R   0.720327 0.558851 0.254734 0.245414
C37   C     C_R   0.469419 0.573575 0.046416 -0.356262
C38   C     C_R   0.420763 0.567365 0.973198 0.561295
C39   C     C_R   0.340959 0.494678 0.934268 0.021717
C40   C     C_R   0.313197 0.430111 0.969604 -0.246923
C41   C     C_R   0.364312 0.436847 0.041900 -0.164682
C42   C     C_R   0.444431 0.508440 0.080950 0.129687
C43   C     C_R   0.132818 0.445215 0.827425 -0.298348
C44   C     C_R   0.086816 0.435000 0.754100 0.172493
C45   C     C_R   0.351833 0.506158 0.737930 0.289668
C46   C     C_R   0.398778 0.515439 0.810740 -0.215448
C47   C     C_R   0.290442 0.484619 0.856428 0.090582
C48   C     C_R   0.202076 0.462272 0.710710 -0.214890
H47   H     H_    0.518266 0.546989 0.831457 0.146241
H48   H     H_    0.524734 0.629740 0.076876 0.142157
H49   H     H_    0.283235 0.451197 0.185610 0.150716
H50   H     H_    0.254424 0.373638 0.940747 0.148083
H51   H     H_    0.344043 0.385498 0.067022 0.129062
H52   H     H_    0.045457 0.424421 0.861789 0.157888
H53   H     H_    0.742726 0.578113 0.147781 0.151485
H54   H     H_    0.663699 0.531690 0.356287 0.175096
N1    N     N_2   0.060372 0.863555 0.613541 -0.111980
H55   H     H_    0.022876 0.905491 0.650552 0.152037
C49   C     C_3   0.224686 0.886604 0.596534 -0.834155
H56   H     H_    0.225859 0.925571 0.556011 0.240654
H57   H     H_    0.279710 0.834089 0.576795 0.288672
H58   H     H_    0.301528 0.918329 0.645170 0.225336
O25   O     O_3   0.432784 0.633478 0.940885 -0.664382
C50   C     C_3   0.595611 0.673108 0.948644 0.163912
H59   H     H_    0.632312 0.676865 0.894686 0.139383
H60   H     H_    0.688111 0.642631 0.974626 0.083496
C51   C     C_3   0.601875 0.756675 0.988943 -0.263267
H61   H     H_    0.517123 0.787947 0.959868 0.214616
H62   H     H_    0.561515 0.754911 0.042588 0.198436
C52   C     C_3   0.774503 0.802074 0.996528 -0.995784
H63   H     H_    0.860719 0.772790 0.026907 0.273905
H64   H     H_    0.774841 0.862542 0.025460 0.272083
H65   H     H_    0.816575 0.805732 0.943412 0.268298
N2    N     N_2   0.160235 0.453706 0.638068 -0.116300
H66   H     H_    0.120441 0.396895 0.614011 0.152050
C53   C     C_3   0.067082 0.513151 0.620567 -0.445219
H67   H     H_    0.005821 0.491077 0.567469 0.280594
H68   H     H_    0.145945 0.569013 0.623105 0.221860
H69   H     H_    0.974670 0.526679 0.657867 0.209825
N3    N     N_2   0.691763 0.321606 0.233467 -0.155030
H70   H     H_    0.679638 0.274593 0.192322 0.165264
C54   C     C_3   0.831289 0.379455 0.229567 -0.810713
H71   H     H_    0.812150 0.405600 0.181015 0.231118
H72   H     H_    0.943995 0.351205 0.227153 0.262233
H73   H     H_    0.848270 0.426474 0.276799 0.266201

loop_
_geom_bond_atom_site_label_1
_geom_bond_atom_site_label_2
_geom_bond_distance
_ccdc_geom_bond_type
O5    C6    1.397428 S    
C16   H38   1.110903 S    
C20   C21   1.524851 S    
P8    C24   1.837671 S    
C5    H10   1.109176 S    
C13   H30   1.110543 S    
Ba1   O20   2.899219 S    
C51   H61   1.111693 S    
C14   H34   1.110615 S    
P2    C32   1.842508 S    
Ba1   O16   2.782318 S    
P8    O24   1.748607 S    
C34   C35   1.410510 A    
C17   C22   1.323605 D    
C8    H18   1.110434 S    
P5    O19   1.748203 S    
C26   H44   1.082488 S    
N1    C49   1.445357 S    
C28   C29   1.360874 D    
P3    O11   1.749573 S    
C30   H46   1.078931 S    
C53   H67   1.089632 S    
C51   H62   1.110576 S    
C14   H33   1.108926 S    
O11   C2    1.406715 S    
P8    O23   1.544950 D    
C49   H58   1.110601 S    
C31   H54   1.082147 S    
O25   C50   1.418460 S    
P1    Ba1   3.371490 S    
P1    O1    1.521146 D    
O10   C8    1.397907 S    
P7    O22   1.750631 S    
C4    O15   1.401027 S    
C11   H25   1.096099 S    
O16   P7    1.794141 S    
H1    C10   1.108946 S    
C38   C39   1.416138 A    
C31   C32   1.395005 A    
C12   H27   1.107262 S    
C52   H65   1.111132 S    
P2    O10   1.752564 S    
C45   C48   1.386271 A    
C31   C36   1.396785 A    
Ba1   Ba2   4.539271 S    
C33   H49   1.083027 S    
C1    H2    1.110591 S    
O7    Ba1   2.820681 S    
O6    C10   1.405554 S    
N2    C53   1.435209 S    
C48   N2    1.389177 S    
C44   C48   1.400982 A    
P4    C25   1.867156 S    
P7    C45   1.867750 S    
C5    H11   1.111144 S    
P5    C44   1.881940 S    
C13   H31   1.110617 S    
C21   C22   1.346510 D    
C9    H20   1.104427 S    
C50   C51   1.529659 S    
C3    H29   1.111004 S    
C32   C33   1.404648 A    
C15   H35   1.110634 S    
C8    C9    1.526779 S    
C54   H72   1.111275 S    
P4    O13   1.585430 S    
C43   H52   1.082689 S    
P1    O5    1.751068 S    
O3    Ba1   2.812302 S    
C6    C7    1.521003 S    
C43   C44   1.405363 A    
C2    C3    1.519707 S    
C14   H32   1.110612 S    
C50   H60   1.117045 S    
C38   O25   1.389228 S    
C20   C28   1.510244 S    
C8    H17   1.104395 S    
H37   C16   1.110743 S    
C46   H47   1.080502 S    
C10   H22   1.109844 S    
O1    Ba1   2.838135 S    
P1    O2    1.585279 S    
C9    H21   1.105010 S    
N3    C54   1.446757 S    
O3    P6    1.739293 S    
O2    Ba1   2.903272 S    
C37   C42   1.403956 A    
C11   H24   1.111661 S    
C54   H73   1.107821 S    
O2    Ba2   2.840868 S    
C19   H43   1.084895 S    
C43   C47   1.420467 A    
C26   C27   1.421672 A    
P1    C22   1.862174 S    
C12   H28   1.110834 S    
C23   C24   1.398497 A    
C7    H16   1.110620 S    
C4    N3    1.459004 S    
C27   C29   1.508718 S    
N2    H66   1.024226 S    
Ba2   O20   2.781725 S    
C24   C30   1.394238 A    
C39   C40   1.406967 A    
C29   H40   1.084897 S    
C37   H48   1.081773 S    
C1    H3    1.110327 S    
C41   C42   1.403512 A    
C15   C16   1.520030 S    
P2    O7    1.506488 D    
C12   H26   1.107599 S    
Ba2   O21   2.820811 S    
Ba1   O13   2.840096 S    
P3    O8    1.743502 S    
P2    Ba1   3.371631 S    
C45   C46   1.398491 A    
C13   C14   1.520302 S    
C3    H7    1.110466 S    
C4    C5    1.532767 S    
C9    H19   1.110156 S    
C51   C52   1.526016 S    
C18   C19   1.515130 S    
C15   O24   1.405010 S    
C40   C41   1.400199 A    
C23   H41   1.079989 S    
C33   C34   1.411086 A    
O17   Ba2   2.756040 S    
C28   H42   1.079544 S    
O13   Ba2   2.904121 S    
P4    O12   1.521324 D    
C1    C10   1.520058 S    
P6    C18   1.869061 S    
C11   C12   1.523541 S    
C7    H15   1.110024 S    
C40   H50   1.083138 S    
C53   H69   1.110247 S    
C50   H59   1.110934 S    
C49   H56   1.110618 S    
O8    Ba1   2.755396 S    
C54   H71   1.109615 S    
O14   Ba2   2.811696 S    
N1    H55   1.031476 S    
P4    O15   1.758516 S    
C52   H63   1.110983 S    
O14   P8    1.745067 S    
O4    P6    1.549032 D    
C1    H23   1.110682 S    
C41   H51   1.082959 S    
C6    H12   1.104983 S    
P5    O18   1.547680 D    
C2    H4    1.111485 S    
C16   H39   1.110628 S    
C4    H8    1.106277 S    
C25   C30   1.390205 A    
C37   C38   1.414000 A    
N3    H70   1.032429 S    
P2    O20   1.558880 S    
C49   H57   1.102162 S    
C17   C18   1.516754 S    
C35   H53   1.083073 S    
C46   C47   1.417686 A    
C23   C27   1.414014 A    
C34   C42   1.491004 S    
C53   H68   1.091964 S    
C19   C20   1.356423 D    
C11   O22   1.394236 S    
C52   H64   1.110333 S    
P7    O21   1.561214 D    
P3    C36   1.838962 S    
O19   C13   1.404792 S    
O16   Ba2   2.898381 S    
C25   C26   1.416434 A    
P3    O9    1.548875 D    
P4    Ba2   3.371950 S    
C5    H9    1.108060 S    
C21   N1    1.426200 S    
C3    H6    1.110880 S    
C7    H14   1.111057 S    
C17   H45   1.086828 S    
P5    O17   1.781026 S    
O6    P6    1.754816 S    
C15   H36   1.112367 S    
C35   C36   1.401006 A    
C6    H13   1.108787 S    
O12   Ba2   2.838452 S    
C2    H5    1.111353 S    
C39   C47   1.495427 S    
