data_mof_unit_9089.cif
_audit_creation_date              2012-12-11T14:47:54-0500
_audit_creation_method            fapswitch 2.2
_symmetry_space_group_name_H-M    P1
_symmetry_Int_Tables_number       1
_space_group_crystal_system       triclinic
_cell_length_a                    8.269027
_cell_length_b                    15.009789
_cell_length_c                    22.806664
_cell_angle_alpha                 95.778247
_cell_angle_beta                  89.326922
_cell_angle_gamma                 99.460441
_cell_volume                      2777.96043359

loop_
_atom_site_label
_atom_site_type_symbol
_atom_type_description
_atom_site_fract_x
_atom_site_fract_y
_atom_site_fract_z
_atom_type_partial_charge
Ba1   Ba    Ba6+2 0.857590 0.542650 0.472590 1.640590
Ba2   Ba    Ba6+2 0.332250 0.457420 0.527420 1.638886
C1    C     C_3   0.811246 0.865591 0.311435 0.498093
C2    C     C_R   0.127413 0.560264 0.937178 -0.027598
C3    C     C_R   0.074443 0.557661 0.877937 0.594789
C4    C     C_3   0.241633 0.752185 0.311930 0.324843
C5    C     C_R   0.940433 0.403633 0.880674 0.571417
C6    C     C_R   0.988441 0.405029 0.940128 -0.015544
C7    C     C_R   0.083173 0.483562 0.968408 -0.052341
C8    C     C_R   0.223735 0.638030 0.966051 -0.074591
C9    C     C_R   0.275247 0.639361 0.024413 -0.086702
C10   C     C_R   0.230580 0.563372 0.056261 -0.019648
C11   C     C_R   0.133720 0.485345 0.028194 -0.052515
C12   C     C_3   0.736500 0.779264 0.338201 0.324882
C13   C     C_R   0.944497 0.328846 0.971852 -0.075492
C14   C     C_R   0.993268 0.330780 0.030520 -0.074267
C15   C     C_R   0.088117 0.408859 0.059527 -0.031386
C16   C     C_3   0.222773 0.767753 0.247189 0.466477
C17   C     C_R   0.138260 0.411924 0.119038 0.592429
C18   C     C_R   0.279257 0.564371 0.115675 0.563446
C19   C     C_2   0.784014 0.434925 0.768111 -0.091105
C20   C     C_3   0.754019 0.408074 0.703106 -0.057940
C21   C     C_1   0.006008 0.513379 0.685221 0.034363
C22   C     C_2   0.053765 0.514315 0.741196 -0.104299
C23   C     C_3   0.480933 0.315000 0.349610 0.293777
C24   C     C_2   0.935485 0.476015 0.787153 0.191804
C25   C     C_R   0.432913 0.530152 0.230377 -0.101339
C26   C     C_R   0.470019 0.541251 0.290788 -0.007260
C27   C     C_R   0.193073 0.475506 0.313248 0.044430
C28   C     C_3   0.231560 0.735583 0.597018 0.317108
C29   C     C_R   0.152449 0.466027 0.252690 -0.102531
C30   C     C_R   0.272053 0.494448 0.210120 0.191126
C31   C     C_2   0.863432 0.467921 0.664770 -0.282953
C32   C     C_R   0.754981 0.235227 0.528909 -0.280995
C33   C     C_R   0.847617 0.173499 0.546632 0.013917
C34   C     C_3   0.482260 0.287793 0.283583 -0.377384
C35   C     C_R   0.789319 0.079645 0.535991 -0.143121
C36   C     C_R   0.628688 0.047982 0.512575 0.005456
C37   C     C_R   0.531416 0.114245 0.504338 -0.153245
C38   C     C_R   0.603061 0.204589 0.503215 0.044136
C39   C     C_R   0.433751 0.915369 0.452711 -0.020253
C40   C     C_3   0.249954 0.838141 0.610645 -0.385463
C41   C     C_R   0.361599 0.822093 0.449792 -0.018017
C42   C     C_R   0.581400 0.790123 0.509099 0.065586
C43   C     C_R   0.635322 0.883057 0.522164 -0.141099
C44   C     C_R   0.564750 0.948347 0.494976 0.020960
C45   C     C_3   0.033944 0.252016 0.686583 0.357056
C46   C     C_R   0.442718 0.760383 0.474329 -0.277841
C47   C     C_3   0.961993 0.264304 0.404982 0.302324
C48   C     C_3   0.949579 0.162106 0.390845 -0.369527
C49   C     C_3   0.715004 0.653823 0.648597 0.301078
C50   C     C_3   0.723597 0.675365 0.715207 -0.365704
C51   C     C_3   0.894041 0.144152 0.759104 -0.182660
C52   C     C_3   0.886900 0.057270 0.716600 -0.187302
C53   C     C_3   0.762567 0.979603 0.736719 -0.443808
C54   C     C_3   0.381076 0.971543 0.405795 -0.220438
C55   C     C_3   0.525490 0.020793 0.372132 -0.225602
C56   C     C_3   0.040438 0.217653 0.747297 -0.204429
C57   C     C_3   0.471971 0.045654 0.312904 -0.257705
C58   C     C_3   0.070789 0.706327 0.219046 -0.173596
C59   C     C_3   0.028294 0.733238 0.158688 -0.158868
C60   C     C_3   0.886993 0.665466 0.129611 -0.412062
C61   C     C_3   0.490563 0.214699 0.663171 0.372864
C62   C     C_3   0.437169 0.123488 0.687126 -0.385020
C63   C     C_R   0.350549 0.514553 0.331517 -0.304275
F1    F     F_    0.698386 0.891111 0.274884 -0.702919
F2    F     F_    0.212750 0.858159 0.243326 -0.714190
H1    H     H_    0.827394 0.762110 0.368447 0.061930
H2    H     H_    0.834762 0.638427 0.632546 0.011144
H3    H     H_    0.618314 0.593897 0.637902 0.080457
H4    H     H_    0.919808 0.854358 0.284756 0.123267
H5    H     H_    0.823756 0.733083 0.727291 0.128527
H6    H     H_    0.747610 0.615500 0.736364 0.074545
H7    H     H_    0.605362 0.693565 0.731922 0.135327
H8    H     H_    0.626132 0.791337 0.363847 -0.049872
H9    H     H_    0.851811 0.920807 0.346832 -0.057430
H10   H     H_    0.355229 0.326286 0.362269 0.027180
H11   H     H_    0.568954 0.379148 0.359067 0.055355
H12   H     H_    0.340551 0.861634 0.646782 0.119846
H13   H     H_    0.390415 0.225951 0.272030 0.134868
H14   H     H_    0.450945 0.343288 0.259460 0.076483
H15   H     H_    0.605876 0.274270 0.269710 0.134679
H16   H     H_    0.333797 0.752480 0.223020 0.108964
H17   H     H_    0.114024 0.319395 0.687572 0.067427
H18   H     H_    0.906184 0.259917 0.676854 -0.068743
H19   H     H_    0.041838 0.276190 0.781017 0.114943
H20   H     H_    0.156982 0.191721 0.752873 0.132458
H21   H     H_    0.626679 0.226255 0.661539 -0.075235
H22   H     H_    0.440955 0.210684 0.617772 0.079262
H23   H     H_    0.292477 0.872298 0.571087 0.065121
H24   H     H_    0.496489 0.070955 0.661382 0.068691
H25   H     H_    0.302603 0.102641 0.683220 0.144190
H26   H     H_    0.228321 0.678165 0.316012 -0.082875
H27   H     H_    0.473689 0.127653 0.734131 0.115998
H28   H     H_    0.956099 0.270672 0.053137 0.128856
H29   H     H_    0.871745 0.267157 0.951391 0.121934
H30   H     H_    0.349568 0.700659 0.044694 0.126300
H31   H     H_    0.528648 0.551150 0.199528 0.118772
H32   H     H_    0.260443 0.698229 0.943487 0.124819
H33   H     H_    0.180034 0.540828 0.753612 0.135603
H34   H     H_    0.129960 0.857548 0.624183 0.126168
H35   H     H_    0.690391 0.410066 0.798899 0.124312
H36   H     H_    0.028480 0.437087 0.239020 0.121042
H37   H     H_    0.381603 0.522899 0.377930 0.083187
H38   H     H_    0.366792 0.785123 0.326323 -0.001351
H39   H     H_    0.837220 0.458178 0.617854 0.082294
H40   H     H_    0.872621 0.033648 0.543662 0.077363
H41   H     H_    0.730776 0.903142 0.555012 0.066521
H42   H     H_    0.404307 0.096224 0.493713 0.112913
H43   H     H_    0.391964 0.688830 0.469100 0.068571
H44   H     H_    0.806572 0.306535 0.530522 0.062101
H45   H     H_    0.839975 0.280866 0.416546 0.005256
H46   H     H_    0.352964 0.716852 0.586622 -0.000506
H47   H     H_    0.148287 0.714998 0.558475 0.068895
H48   H     H_    0.799585 0.961430 0.780052 0.146676
H49   H     H_    0.638856 0.999133 0.740568 0.138251
H50   H     H_    0.756712 0.919056 0.704027 0.147769
H51   H     H_    0.850665 0.070415 0.671909 0.134690
H52   H     H_    0.009348 0.035741 0.713857 0.135046
H53   H     H_    0.905602 0.127332 0.805094 0.133668
H54   H     H_    0.778036 0.171809 0.756062 0.127912
H55   H     H_    0.435094 0.983502 0.282419 0.233721
H56   H     H_    0.047211 0.286496 0.442742 0.075730
H57   H     H_    0.367270 0.083432 0.318978 0.127825
H58   H     H_    0.575624 0.088835 0.292790 0.139259
H59   H     H_    0.584603 0.083853 0.397294 0.126911
H60   H     H_    0.619289 0.976836 0.364760 0.162533
H61   H     H_    0.307032 0.926356 0.371861 0.160790
H62   H     H_    0.294821 0.016947 0.422513 0.096725
H63   H     H_    0.919807 0.596286 0.123506 0.122747
H64   H     H_    0.775183 0.664105 0.157221 0.181964
H65   H     H_    0.859992 0.685790 0.085749 0.139596
H66   H     H_    0.991584 0.801580 0.164051 0.190294
H67   H     H_    0.868057 0.138431 0.352108 0.138275
H68   H     H_    0.136809 0.736277 0.129434 0.150579
H69   H     H_    0.092407 0.635065 0.214559 0.070327
H70   H     H_    0.964615 0.709696 0.248361 0.153195
H71   H     H_    0.898837 0.126200 0.428622 0.057207
H72   H     H_    0.073120 0.144712 0.380769 0.125485
N1    N     N_R   0.983462 0.479409 0.849514 -0.421280
N2    N     N_R   0.229660 0.490028 0.147402 -0.422352
O1    O     O_2   0.888680 0.450300 0.360330 -0.458183
O2    O     O_2   0.180956 0.178108 0.535238 -0.494397
O3    O     O_3   0.092368 0.190663 0.644376 -0.610451
O4    O     O_3   0.129270 0.451230 0.431380 -0.493629
O5    O     O_3   0.578310 0.608920 0.529980 -0.486936
O6    O     O_2   0.337770 0.279070 0.470480 -0.460331
O7    O     O_3   0.526619 0.245463 0.379441 -0.648429
O8    O     O_2   0.437637 0.460533 0.709141 -0.493721
O9    O     O_3   0.430960 0.283923 0.699325 -0.591811
O10   O     O_2   0.107630 0.625738 0.852088 -0.597372
O11   O     O_2   0.861135 0.334016 0.856629 -0.628168
O12   O     O_3   0.679085 0.729592 0.623503 -0.638933
O13   O     O_2   0.102371 0.344355 0.145247 -0.589245
O14   O     O_2   0.364426 0.632367 0.139266 -0.625596
O15   O     O_3   0.676100 0.614850 0.396630 -0.489107
O16   O     O_2   0.812719 0.560221 0.293952 -0.497578
O17   O     O_3   0.017759 0.305240 0.354605 -0.626413
O18   O     O_3   0.694095 0.710294 0.292284 -0.615323
O19   O     O_2   0.851930 0.720960 0.529560 -0.467619
O20   O     O_3   0.095720 0.661380 0.425720 -0.463371
O21   O     O_2   0.021801 0.824288 0.454064 -0.502356
O22   O     O_3   0.122907 0.790929 0.345841 -0.628698
O23   O     O_2   0.301020 0.549730 0.639710 -0.459610
O24   O     O_3   0.060450 0.548840 0.568630 -0.497553
O25   O     O_3   0.513610 0.385220 0.603380 -0.477755
O26   O     O_3   0.168784 0.694686 0.646752 -0.624196
O27   O     O_3   0.611400 0.391150 0.470030 -0.475662
O28   O     O_3   0.093990 0.338690 0.574280 -0.486856
P1    P     P_3+3 0.054670 0.423610 0.368990 1.003128
P2    P     P_3+3 0.674060 0.707690 0.546600 0.983629
P3    P     P_3+3 0.152635 0.777007 0.419901 0.916279
P4    P     P_3+3 0.135040 0.576460 0.631020 0.993566
P5    P     P_3+3 0.054132 0.219907 0.574434 0.938029
P6    P     P_3+3 0.666173 0.603660 0.319213 0.941825
P7    P     P_3+3 0.521819 0.277290 0.455318 0.943490
P8    P     P_3+3 0.533943 0.388062 0.679685 0.947449

loop_
_geom_bond_atom_site_label_1
_geom_bond_atom_site_label_2
_ccdc_geom_bond_type
C6    C7    A    
C46   H43   S    
C19   C24   D    
C25   H31   S    
C18   O14   D    
C61   H21   S    
C60   H63   S    
Ba1   O4    S    
C56   H20   S    
C51   H53   S    
C59   H66   S    
C5    C6    A    
O15   P6    S    
C43   C44   A    
Ba2   O4    S    
O7    P7    S    
C32   C38   A    
C45   H18   S    
C33   C35   A    
C22   C24   S    
C28   O26   S    
C35   H40   S    
C39   C54   S    
C50   H7    S    
Ba2   P4    S    
C28   H47   S    
C36   C37   A    
C55   C57   S    
C53   H49   S    
O24   P4    S    
C13   C14   A    
C47   H56   S    
Ba1   P1    S    
C54   C55   S    
C32   C33   A    
C7    C11   A    
Ba1   O1    S    
O4    P1    S    
O20   P3    S    
O19   P2    D    
C1    H9    S    
C34   H15   S    
C14   C15   A    
C21   C31   D    
C39   C44   A    
O28   P5    S    
C49   H3    S    
C27   P1    S    
C41   C46   A    
C58   H69   S    
C54   H62   S    
C43   H41   S    
C58   H70   S    
O26   P4    S    
C57   H55   S    
Ba1   O20   S    
C40   H12   S    
C17   N2    Am   
O18   P6    S    
C52   H52   S    
C32   H44   S    
C39   C41   A    
O12   P2    S    
Ba1   O5    S    
C59   C60   S    
C20   P8    S    
C56   H19   S    
C4    C16   S    
C61   C62   S    
C23   H11   S    
C60   H65   S    
C50   H6    S    
C48   H67   S    
Ba2   O23   S    
C55   H59   S    
C38   P7    S    
C48   H72   S    
O17   P1    S    
Ba2   O28   S    
Ba1   O27   S    
C16   F2    S    
C51   C52   S    
C45   O3    S    
Ba1   P2    S    
C49   C50   S    
C58   C59   S    
C40   H23   S    
C29   H36   S    
Ba1   O15   S    
C1    H4    S    
C61   O9    S    
C35   C36   A    
C50   H5    S    
C29   C30   A    
Ba1   O24   S    
C34   H14   S    
C41   P3    S    
C4    H26   S    
C10   C18   A    
O8    P8    D    
C16   H16   S    
O23   P4    D    
O25   P8    S    
C45   H17   S    
C4    O22   S    
O22   P3    S    
Ba2   O24   S    
C30   N2    S    
C1    C12   S    
O16   P6    D    
C47   H45   S    
C27   C63   A    
C19   H35   S    
C16   C58   S    
O6    P7    D    
C6    C13   A    
O9    P8    S    
C34   H13   S    
C23   H10   S    
C47   O17   S    
C1    F1    S    
C57   H58   S    
C62   H25   S    
C2    C8    A    
C40   H34   S    
Ba2   O27   S    
C13   H29   S    
C42   C43   A    
C59   H68   S    
C3    N1    Am   
C53   H50   S    
C57   H57   S    
O27   P7    S    
C20   C31   S    
Ba2   O25   S    
C52   C53   S    
C49   O12   S    
C14   H28   S    
C21   C22   D    
C25   C30   A    
C22   H33   S    
C33   P5    S    
C18   N2    Am   
Ba1   O19   S    
C31   H39   S    
C2    C3    A    
C3    O10   D    
C55   H60   S    
C51   C56   S    
C48   H71   S    
C26   P6    S    
C21   P4    S    
C11   C15   A    
Ba2   O5    S    
C24   N1    S    
O2    P5    D    
O1    P1    D    
C12   O18   S    
C9    H30   S    
C12   H8    S    
C52   H51   S    
C26   C63   A    
Ba2   O6    S    
C42   P2    S    
C62   H27   S    
C27   C29   A    
C51   H54   S    
C63   H37   S    
C45   C56   S    
C5    N1    Am   
C53   H48   S    
Ba1   Ba2   S    
C15   C17   A    
C4    H38   S    
C23   O7    S    
C61   H22   S    
C54   H61   S    
C8    H32   S    
O5    P2    S    
C36   C44   S    
C8    C9    A    
C23   C34   S    
C5    O11   D    
C37   C38   A    
C42   C46   A    
C37   H42   S    
O21   P3    D    
C10   C11   A    
C47   C48   S    
O3    P5    S    
C25   C26   A    
C17   O13   D    
C12   H1    S    
C28   C40   S    
C49   H2    S    
C62   H24   S    
C2    C7    A    
C19   C20   S    
C60   H64   S    
C9    C10   A    
C28   H46   S    
