data_mof_unit_22134.cif
_audit_creation_date              2012-12-10T17:52:22-0500
_audit_creation_method            fapswitch 2.2
_symmetry_space_group_name_H-M    P1
_symmetry_Int_Tables_number       1
_space_group_crystal_system       triclinic
_cell_length_a                    19.023534
_cell_length_b                    10.715051
_cell_length_c                    9.963689
_cell_angle_alpha                 92.207753
_cell_angle_beta                  91.460821
_cell_angle_gamma                 93.405954
_cell_volume                      2025.1015748

loop_
_atom_site_label
_atom_site_type_symbol
_atom_type_description
_atom_site_fract_x
_atom_site_fract_y
_atom_site_fract_z
_atom_type_partial_charge
C1    C     C_R   0.505576 0.261780 0.497597 0.900296
C2    C     C_R   0.290814 0.528562 0.498020 -0.158464
C3    C     C_R   0.931412 0.607918 0.495986 0.301999
C4    C     C_R   0.072750 0.600224 0.495918 0.291323
C5    C     C_R   0.826373 0.527165 0.611428 -0.244540
C6    C     C_R   0.754130 0.492691 0.611215 0.476684
C7    C     C_R   0.711320 0.524675 0.502084 -0.068100
C8    C     C_R   0.741479 0.585633 0.393070 -0.253678
C9    C     C_R   0.813213 0.615775 0.392509 -0.143486
C10   C     C_R   0.855603 0.587893 0.502105 0.040187
C11   C     C_R   0.597561 0.148944 0.690365 -0.259001
C12   C     C_R   0.365620 0.505266 0.498906 0.910136
C13   C     C_R   0.619621 0.099741 0.811671 0.530963
C14   C     C_R   0.596284 0.978725 0.840215 -0.112492
C15   C     C_R   0.555748 0.904494 0.745751 -0.239091
C16   C     C_R   0.537278 0.949496 0.618553 0.113891
C17   C     C_R   0.551817 0.077072 0.598864 0.052316
C18   C     C_R   0.516505 0.131232 0.492051 -0.088207
C19   C     C_R   0.481487 0.058700 0.389628 -0.174239
C20   C     C_R   0.476784 0.931455 0.397061 -0.203849
C21   C     C_R   0.503311 0.875492 0.510640 -0.088780
C22   C     C_R   0.385620 0.372828 0.121971 0.332902
C23   C     C_R   0.500889 0.740700 0.503496 0.862153
C24   C     C_R   0.322817 0.350190 0.042715 0.037998
C25   C     C_R   0.326615 0.351081 0.903080 0.342684
C26   C     C_R   0.393751 0.360818 0.848981 0.071218
C27   C     C_R   0.446451 0.434739 0.921706 -0.033415
C28   C     C_R   0.444881 0.437050 0.065558 0.071918
C29   C     C_R   0.552246 0.559063 0.078191 -0.119501
C30   C     C_R   0.552748 0.559345 0.936450 0.198295
C31   C     C_R   0.634786 0.502622 0.501181 0.883694
C32   C     C_R   0.256120 0.538612 0.619791 -0.181786
C33   C     C_R   0.184630 0.556882 0.621891 0.489843
C34   C     C_R   0.148026 0.578127 0.500003 -0.051998
C35   C     C_R   0.184020 0.574299 0.378668 -0.163290
C36   C     C_R   0.254690 0.548720 0.377567 -0.153905
H1    H     H_    0.283953 0.528778 0.714405 0.192107
H2    H     H_    0.615086 0.243847 0.669064 0.186608
H3    H     H_    0.609399 0.941812 0.936779 0.178188
H4    H     H_    0.536200 0.816033 0.780073 0.209892
H5    H     H_    0.449869 0.876778 0.315287 0.175136
H6    H     H_    0.594845 0.607141 0.137178 0.158296
H7    H     H_    0.157467 0.590636 0.284064 0.190996
H8    H     H_    0.281153 0.546342 0.282664 0.180449
H9    H     H_    0.860245 0.501846 0.693884 0.153849
H10   H     H_    0.709465 0.611503 0.308262 0.181860
H11   H     H_    0.835640 0.661155 0.306763 0.169677
H12   H     H_    0.455466 0.100396 0.305975 0.199618
N1    N     N_R   0.033782 0.572085 0.381777 -0.149765
N2    N     N_R   0.964196 0.576003 0.381738 -0.151153
N3    N     N_R   0.970353 0.641672 0.608516 -0.149979
N4    N     N_R   0.040000 0.639252 0.607893 -0.128895
N5    N     N_R   0.499340 0.498800 0.142780 -0.094427
N6    N     N_R   0.499320 0.498720 0.857170 -0.107091
O1    O     O_R   0.500000 0.316780 0.614690 -0.596600
O2    O     O_R   0.499990 0.316750 0.385360 -0.546199
O3    O     O_R   0.398140 0.500000 0.614700 -0.630296
O4    O     O_R   0.398130 0.499970 0.385370 -0.562908
O5    O     O_R   0.500010 0.683250 0.614640 -0.627023
O6    O     O_R   0.500000 0.683220 0.385310 -0.625123
O7    O     O_R   0.601870 0.500030 0.614630 -0.550597
O8    O     O_R   0.601860 0.500000 0.385300 -0.637606
Zn1   Zn    Zn3+2 0.500000 0.500020 0.653130 1.000282
Zn2   Zn    Zn3+2 0.500000 0.499980 0.346870 1.004320
O9    O     O_3   0.660908 0.169098 0.906517 -0.747368
H13   H     H_    0.670063 0.254679 0.874121 0.363830
O10   O     O_3   0.393662 0.313393 0.240184 -0.706343
H14   H     H_    0.352941 0.253984 0.253761 0.338532
I1    I     I_    0.224780 0.291268 0.126382 -0.242852
O11   O     O_3   0.268242 0.308536 0.825585 -0.680106
H15   H     H_    0.281864 0.302964 0.730156 0.344443
I2    I     I_    0.417300 0.171563 0.810430 -0.310842
O12   O     O_3   0.152505 0.549342 0.743796 -0.714512
H16   H     H_    0.108765 0.495075 0.729217 0.350502
I3    I     I_    0.643812 0.652986 0.862765 -0.354412
O13   O     O_3   0.725142 0.424879 0.713303 -0.777830
H17   H     H_    0.762522 0.410732 0.781284 0.342657

loop_
_geom_bond_atom_site_label_1
_geom_bond_atom_site_label_2
_ccdc_geom_bond_type
C16   C21   A    
C29   H6    S    
C26   I2    S    
O12   H16   S    
C31   O7    A    
C35   C36   A    
C2    C12   S    
C20   H5    S    
C27   N6    A    
C7    C8    A    
C13   O9    S    
C23   O5    A    
C30   N6    A    
C1    C18   S    
C4    N4    A    
C1    O2    A    
C34   C35   A    
C5    C6    A    
N5    Zn2   S    
N6    Zn1   S    
C15   C16   A    
C2    C32   A    
C18   C19   A    
O7    Zn1   S    
O8    Zn2   S    
C14   H3    S    
C19   C20   A    
C8    C9    A    
O1    Zn1   S    
O2    Zn2   S    
O11   H15   S    
C35   H7    S    
C9    C10   A    
C12   O4    A    
C22   C28   A    
C13   C14   A    
C31   O8    A    
C3    N2    A    
C24   I1    S    
O3    Zn1   S    
O4    Zn2   S    
C23   O6    A    
C15   H4    S    
C4    C34   S    
C7    C31   S    
O10   H14   S    
O13   H17   S    
C3    N3    A    
C19   H12   S    
C16   C17   A    
C25   C26   A    
C5    H9    S    
N3    N4    A    
C11   H2    S    
C29   C30   A    
C17   C18   A    
C26   C27   A    
C32   H1    S    
C24   C25   A    
C6    O13   S    
C12   O3    A    
C33   O12   S    
O9    H13   S    
C21   C23   S    
C22   C24   A    
C36   H8    S    
C2    C36   A    
C11   C17   A    
C28   N5    A    
C9    H11   S    
C6    C7    A    
O5    Zn1   S    
C4    N1    A    
O6    Zn2   S    
C32   C33   A    
C1    O1    A    
C5    C10   A    
C3    C10   S    
C30   I3    S    
C11   C13   A    
C29   N5    A    
C33   C34   A    
C8    H10   S    
C22   O10   S    
C20   C21   A    
N1    N2    A    
C27   C28   A    
C14   C15   A    
C25   O11   S    
