data_mof_unit_26661.cif
_audit_creation_date              2012-12-11T15:48:11-0500
_audit_creation_method            fapswitch 2.2
_symmetry_space_group_name_H-M    P1
_symmetry_Int_Tables_number       1
_space_group_crystal_system       triclinic
_cell_length_a                    6.916075
_cell_length_b                    17.696755
_cell_length_c                    19.504535
_cell_angle_alpha                 108.700103
_cell_angle_beta                  89.411853
_cell_angle_gamma                 90.464281
_cell_volume                      2261.03135165

loop_
_atom_site_label
_atom_site_type_symbol
_atom_type_description
_atom_site_fract_x
_atom_site_fract_y
_atom_site_fract_z
_atom_type_partial_charge
O1    O     O_R   0.494330 0.415710 0.413720 -0.551247
O2    O     O_R   0.819360 0.430070 0.560210 -0.559143
O3    O     O_R   0.994320 0.584290 0.586280 -0.543704
C1    C     C_R   0.650795 0.415851 0.582618 0.775721
O4    O     O_R   0.823740 0.406290 0.412670 -0.514695
O5    O     O_R   0.998730 0.560340 0.437690 -0.535211
C2    C     C_R   0.654989 0.382243 0.385363 0.751912
O6    O     O_R   0.489920 0.439660 0.562310 -0.519789
O7    O     O_3   0.662330 0.550570 0.508380 -0.365623
V1    V     V_3+5 0.935370 0.490620 0.498440 1.492723
O8    O     O_R   0.328720 0.569930 0.439790 -0.542431
C3    C     C_R   0.160679 0.584724 0.418300 0.714558
O9    O     O_R   0.324340 0.593710 0.587330 -0.528793
C4    C     C_R   0.153894 0.616757 0.615399 0.708182
V2    V     V_3+5 0.435940 0.509380 0.501560 1.508338
O10   O     O_3   0.159110 0.449430 0.491620 -0.367777
C5    C     C_R   0.296061 0.738501 0.704652 -0.070933
H1    H     H_    0.423915 0.729988 0.670515 0.170251
C6    C     C_R   0.291484 0.803561 0.768562 0.200140
C7    C     C_R   0.124739 0.817298 0.814296 -0.108591
C8    C     C_R   0.965703 0.765891 0.792404 -0.196114
H2    H     H_    0.836613 0.775504 0.826077 0.136112
C9    C     C_R   0.969797 0.701520 0.728047 -0.018904
C10   C     C_R   0.138751 0.685848 0.683636 -0.149357
C11   C     C_R   0.072482 0.599534 0.298562 -0.067432
C12   C     C_R   0.151751 0.633045 0.368112 -0.156745
C13   C     C_R   0.218583 0.712295 0.390760 -0.103638
C14   C     C_R   0.189096 0.761966 0.346798 0.018474
C15   C     C_R   0.124563 0.726645 0.274119 0.012848
C16   C     C_R   0.067647 0.644412 0.249031 0.002597
C17   C     C_R   0.217585 0.846081 0.373420 -0.104196
C18   C     C_R   0.211998 0.892100 0.326527 0.144402
C19   C     C_R   0.173226 0.855851 0.251762 0.076847
C20   C     C_R   0.117252 0.773830 0.226581 -0.099683
C21   C     C_R   0.054498 0.739065 0.153811 0.053238
C22   C     C_R   0.002465 0.657259 0.129164 0.229529
C23   C     C_R   0.008557 0.610757 0.175368 0.099499
C24   C     C_R   0.181942 0.899897 0.201861 -0.113010
C25   C     C_R   0.110917 0.866445 0.131184 -0.204600
C26   C     C_R   0.044879 0.786939 0.107379 0.185734
C27   C     C_R   0.770647 0.196274 0.880945 -0.058923
C28   C     C_R   0.626620 0.137305 0.872342 -0.111993
C29   C     C_R   0.487941 0.126720 0.818915 -0.200210
C30   C     C_R   0.488376 0.172820 0.772180 0.055283
C31   C     C_R   0.637916 0.229497 0.777189 0.040641
C32   C     C_R   0.784013 0.240599 0.831093 0.011636
C33   C     C_R   0.341050 0.162616 0.720566 -0.083528
C34   C     C_R   0.342665 0.206923 0.672219 0.162055
C35   C     C_R   0.492879 0.263547 0.674988 0.060043
C36   C     C_R   0.640020 0.275124 0.728603 -0.140947
C37   C     C_R   0.789448 0.332264 0.733831 0.044985
C38   C     C_R   0.939725 0.339902 0.784845 0.240187
C39   C     C_R   0.938264 0.294716 0.832088 0.092858
C40   C     C_R   0.501245 0.309226 0.626151 0.147904
C41   C     C_R   0.645220 0.367768 0.633311 -0.156878
C42   C     C_R   0.787484 0.379880 0.687491 0.142775
H3    H     H_    0.378310 0.081334 0.814258 0.130860
C43   C     C_R   0.791992 0.253908 0.299529 0.223437
C44   C     C_R   0.781901 0.189187 0.234519 0.164469
C45   C     C_R   0.623204 0.181861 0.186712 -0.094601
C46   C     C_R   0.475156 0.238794 0.207164 -0.157795
H4    H     H_    0.351412 0.234612 0.172514 0.147525
C47   C     C_R   0.486017 0.302871 0.271606 -0.204864
H5    H     H_    0.370441 0.346255 0.284603 0.147784
C48   C     C_R   0.644992 0.312125 0.317994 -0.074162
O11   O     O_R   0.774940 0.060470 0.937800 -0.529836
O12   O     O_R   0.440880 0.093730 0.087350 -0.537142
O13   O     O_R   0.266130 0.939630 0.062280 -0.536428
C49   C     C_R   0.609898 0.115537 0.116425 0.726753
O14   O     O_R   0.445480 0.069960 0.939820 -0.543115
O15   O     O_R   0.270770 0.915690 0.913690 -0.549260
C50   C     C_R   0.615242 0.086107 0.919481 0.718258
O16   O     O_R   0.770300 0.084410 0.086380 -0.543856
O17   O     O_3   0.602600 0.949510 0.991670 -0.379217
V3    V     V_3+5 0.329470 0.009370 0.001550 1.447373
O18   O     O_R   0.940760 0.906160 0.912560 -0.544561
C51   C     C_R   0.110966 0.884465 0.883736 0.696575
O19   O     O_R   0.936150 0.929930 0.060100 -0.547484
C52   C     C_R   0.104072 0.915075 0.081515 0.704315
V4    V     V_3+5 0.828930 0.990450 0.998310 1.432703
O20   O     O_3   0.105670 0.050490 0.008320 -0.358052
N1    N     N_3   0.972754 0.754296 0.034881 -0.615762
H6    H     H_    0.077912 0.760762 0.998214 0.216482
H7    H     H_    0.848007 0.784932 0.029826 0.238827
N2    N     N_3   0.944449 0.619198 0.055464 -0.599270
H8    H     H_    0.804884 0.595911 0.055211 0.253065
H9    H     H_    0.039554 0.572485 0.030900 0.252729
N3    N     N_3   0.957116 0.528243 0.143235 -0.683300
H10   H     H_    0.829215 0.515583 0.166438 0.257208
H11   H     H_    0.072364 0.491753 0.146495 0.255980
C53   C     C_1   0.888882 0.214148 0.945286 0.287766
N4    N     N_1   0.981666 0.227742 0.996977 -0.350422
C54   C     C_1   0.182116 0.107267 0.717195 0.297296
N5    N     N_1   0.055277 0.063381 0.714578 -0.329390
N6    N     N_3   0.187845 0.194628 0.621182 -0.692545
H12   H     H_    0.056346 0.207566 0.649291 0.241008
H13   H     H_    0.186870 0.134848 0.588440 0.253234
N7    N     N_3   0.371388 0.295718 0.566343 -0.646644
H14   H     H_    0.230912 0.311849 0.585268 0.269532
H15   H     H_    0.380172 0.236468 0.532729 0.260378
N8    N     N_3   0.927073 0.443046 0.697713 -0.615125
H16   H     H_    0.027353 0.428320 0.655160 0.248076
H17   H     H_    0.857481 0.496295 0.701843 0.238185
N9    N     N_3   0.100147 0.393315 0.788769 -0.602699
H18   H     H_    0.228552 0.360737 0.779018 0.252648
H19   H     H_    0.104766 0.434805 0.840843 0.255852
N10   N     N_3   0.456973 0.855390 0.783738 -0.657112
H20   H     H_    0.412238 0.913956 0.791954 0.235596
H21   H     H_    0.524794 0.851509 0.830084 0.241447
N11   N     N_3   0.103399 0.303955 0.878169 -0.686045
H22   H     H_    0.064383 0.334498 0.931713 0.258393
H23   H     H_    0.165842 0.248557 0.871888 0.250976
N12   N     N_3   0.950579 0.259337 0.347812 -0.638792
H24   H     H_    0.079342 0.261574 0.319953 0.253838
H25   H     H_    0.951611 0.207806 0.363023 0.251151
N13   N     N_3   0.932364 0.130615 0.220172 -0.661872
H26   H     H_    0.015894 0.133722 0.176214 0.255535
H27   H     H_    0.870713 0.073852 0.209085 0.234285
C55   C     C_1   0.796327 0.653530 0.710255 0.304828
N14   N     N_1   0.656263 0.615674 0.696424 -0.377496
C56   C     C_1   0.002534 0.517907 0.280312 0.268099
N15   N     N_1   0.947632 0.452794 0.266751 -0.375119
C57   C     C_1   0.325524 0.739490 0.458108 0.315335
N16   N     N_1   0.411188 0.760226 0.511683 -0.327881
C58   C     C_1   0.234331 0.889243 0.450274 0.313370
N17   N     N_1   0.246856 0.924483 0.511362 -0.313604
N18   N     N_3   0.234683 0.977287 0.356354 -0.657659
H28   H     H_    0.124322 0.000318 0.394179 0.240460
H29   H     H_    0.368493 0.990204 0.382133 0.242117
C59   C     C_1   0.268186 0.979032 0.220741 0.391717
N19   N     N_1   0.337256 0.041969 0.235387 -0.349733

loop_
_geom_bond_atom_site_label_1
_geom_bond_atom_site_label_2
_ccdc_geom_bond_type
C39   N11   S    
O15   V3    S    
C41   C42   A    
C47   C48   A    
C54   N5    T    
C34   N6    S    
C27   C28   A    
C23   N3    S    
N6    H12   S    
C1    O6    A    
N9    H19   S    
C57   N16   T    
N2    H8    S    
C30   C31   A    
O13   V3    S    
C12   C13   A    
N8    H16   S    
C7    C51   S    
C24   C59   S    
C18   N18   S    
C14   C15   A    
C42   N8    S    
C37   C42   A    
O5    C3    A    
C24   C25   A    
O19   V4    S    
V2    O10   S    
N13   H26   S    
C20   C21   A    
C4    C10   S    
C46   C47   A    
N11   H22   S    
O8    V2    S    
O11   C50   A    
C17   C18   A    
C44   N13   S    
C43   N12   S    
C27   C32   A    
C49   O16   A    
O1    V2    S    
O7    V1    S    
C30   C33   A    
O13   C52   A    
C44   C45   A    
N8    H17   S    
O17   V4    S    
O9    C4    A    
N10   H21   S    
N9    H18   S    
C19   C20   A    
N2    H9    S    
C5    C10   A    
O17   V3    S    
C37   C38   A    
C26   N1    S    
O18   C51   A    
C53   N4    T    
O4    C2    A    
C13   C57   S    
O19   C52   A    
V3    O20   S    
C36   C37   A    
C11   C12   A    
C31   C32   A    
C15   C20   A    
C16   C23   A    
C3    C12   S    
C45   C46   A    
O12   C49   A    
C21   C22   A    
C25   C52   S    
O2    C1    A    
C29   C30   A    
N18   H29   S    
C15   C16   A    
C2    C48   S    
C43   C48   A    
C33   C34   A    
N10   H20   S    
C28   C50   S    
C5    H1    S    
C33   C54   S    
C7    C8    A    
C56   N15   T    
O3    C4    A    
C34   C35   A    
C27   C53   S    
N3    H11   S    
N7    H14   S    
O6    V2    S    
N7    H15   S    
C8    C9    A    
C1    C41   S    
C58   N17   T    
C35   C36   A    
O12   V3    S    
C28   C29   A    
C17   C58   S    
N18   H28   S    
O2    V1    S    
O15   C51   A    
C38   C39   A    
N12   H24   S    
C11   C16   A    
C40   C41   A    
C38   N9    S    
O1    C2    A    
C14   C17   A    
O18   V4    S    
V4    O20   S    
O5    V1    S    
C55   N14   T    
N6    H13   S    
C22   N2    S    
O11   V4    S    
N1    H7    S    
C19   C24   A    
C18   C19   A    
C6    C7    A    
O9    V2    S    
C21   C26   A    
C43   C44   A    
O4    V1    S    
O3    V1    S    
V1    O10   S    
C9    C55   S    
C45   C49   S    
C32   C39   A    
C5    C6    A    
O16   V4    S    
N13   H27   S    
C59   N19   T    
O7    V2    S    
C46   H4    S    
N11   H23   S    
C29   H3    S    
C9    C10   A    
C47   H5    S    
C25   C26   A    
N3    H10   S    
O14   V3    S    
C22   C23   A    
N1    H6    S    
C13   C14   A    
C40   N7    S    
O14   C50   A    
C31   C36   A    
C8    H2    S    
C11   C56   S    
C35   C40   A    
O8    C3    A    
N12   H25   S    
C6    N10   S    
