data_mof_unit_10075.cif
_audit_creation_date              2012-12-11T17:25:10-0500
_audit_creation_method            fapswitch 2.2
_symmetry_space_group_name_H-M    P1
_symmetry_Int_Tables_number       1
_space_group_crystal_system       triclinic
_cell_length_a                    6.955231
_cell_length_b                    20.538499
_cell_length_c                    24.498285
_cell_angle_alpha                 90.06686
_cell_angle_beta                  90.459053
_cell_angle_gamma                 89.48571
_cell_volume                      3499.32473888

loop_
_atom_site_label
_atom_site_type_symbol
_atom_type_description
_atom_site_fract_x
_atom_site_fract_y
_atom_site_fract_z
_atom_type_partial_charge
O1    O     O_R   0.507280 0.423750 0.460310 -0.536156
O2    O     O_R   0.171030 0.555650 0.437630 -0.537048
O3    O     O_R   0.004080 0.576250 0.539690 -0.536282
C1    C     C_R   0.339071 0.575676 0.421789 0.723218
O4    O     O_R   0.177330 0.422980 0.453960 -0.537482
O5    O     O_R   0.010420 0.442640 0.556140 -0.535033
C2    C     C_R   0.346200 0.399130 0.443229 0.721330
O6    O     O_R   0.500930 0.557360 0.443860 -0.535339
O7    O     O_3   0.340310 0.506600 0.533500 -0.367555
V1    V     V_3+5 0.064140 0.498780 0.493780 1.426065
O8    O     O_R   0.680890 0.444350 0.562370 -0.537854
C3    C     C_R   0.850575 0.424382 0.578129 0.726408
O9    O     O_R   0.674590 0.577020 0.546040 -0.537713
C4    C     C_R   0.842720 0.600885 0.556742 0.694518
V2    V     V_3+5 0.564550 0.501220 0.506220 1.424952
O10   O     O_3   0.838250 0.493400 0.466500 -0.366820
C5    C     C_R   0.976029 0.838443 0.910918 -0.042684
C6    C     C_R   0.847468 0.661473 0.589028 -0.042983
C7    C     C_R   0.041557 0.722897 0.905283 -0.161225
C8    C     C_R   0.031998 0.780074 0.935677 -0.167382
C9    C     C_R   0.930103 0.839384 0.854892 -0.214688
C10   C     C_R   0.942035 0.781718 0.822525 0.086766
C11   C     C_R   0.998600 0.723211 0.849204 0.139179
C12   C     C_R   0.902639 0.780033 0.764823 0.057737
C13   C     C_R   0.920692 0.719880 0.735128 0.057892
C14   C     C_R   0.976845 0.663447 0.764159 -0.186673
C15   C     C_R   0.014403 0.665262 0.819856 -0.200932
C16   C     C_R   0.846394 0.836460 0.735798 -0.186585
C17   C     C_R   0.808769 0.834639 0.680103 -0.200349
C18   C     C_R   0.824638 0.776693 0.650752 0.138693
C19   C     C_R   0.881329 0.718197 0.677426 0.086789
C20   C     C_R   0.781624 0.777000 0.594676 -0.160442
C21   C     C_R   0.791297 0.719827 0.564278 -0.166810
C22   C     C_R   0.893433 0.660542 0.645051 -0.214649
H1    H     H_    0.057665 0.620560 0.840212 0.123570
H2    H     H_    0.933257 0.613951 0.662038 0.094084
H3    H     H_    0.753524 0.720990 0.521290 0.108171
H4    H     H_    0.765408 0.879334 0.659752 0.124106
H5    H     H_    0.085481 0.678272 0.925610 0.113845
H6    H     H_    0.069747 0.778904 0.978667 0.107529
H7    H     H_    0.890493 0.885988 0.837894 0.094170
H8    H     H_    0.993883 0.616596 0.745003 0.123781
H9    H     H_    0.829269 0.883305 0.754959 0.123963
H10   H     H_    0.737585 0.821616 0.574354 0.114780
H11   H     H_    0.619005 0.205255 0.792641 0.111660
C23   C     C_R   0.729910 0.269097 0.730949 -0.155713
H12   H     H_    0.587945 0.283512 0.716735 0.110931
C24   C     C_R   0.894259 0.294826 0.706324 0.136979
C25   C     C_R   0.076548 0.275206 0.725557 -0.154885
H13   H     H_    0.205174 0.294413 0.707111 0.111620
C26   C     C_R   0.094270 0.230566 0.768799 -0.155501
H14   H     H_    0.236236 0.216157 0.783017 0.110961
C27   C     C_R   0.929921 0.204851 0.793436 0.136667
C28   C     C_R   0.747633 0.224457 0.774192 -0.155792
C29   C     C_1   0.876320 0.340917 0.661351 -0.059599
C30   C     C_1   0.947862 0.158827 0.838459 -0.060501
C31   C     C_1   0.961068 0.120645 0.876254 -0.192036
C32   C     C_1   0.863127 0.379167 0.623606 -0.191004
H15   H     H_    0.698960 0.702389 0.296370 0.112462
C33   C     C_R   0.596709 0.767459 0.233367 -0.155207
H16   H     H_    0.740573 0.780283 0.220916 0.110996
C34   C     C_R   0.436085 0.795050 0.206684 0.135980
C35   C     C_R   0.251314 0.777322 0.223802 -0.155065
H17   H     H_    0.125255 0.797896 0.203834 0.112517
C36   C     C_R   0.227507 0.732831 0.266841 -0.155239
H18   H     H_    0.083643 0.720002 0.279288 0.110944
C37   C     C_R   0.388131 0.705235 0.293520 0.135927
C38   C     C_R   0.572901 0.722968 0.276406 -0.155305
C39   C     C_1   0.459838 0.841041 0.161765 -0.059039
C40   C     C_1   0.364380 0.659210 0.338415 -0.059358
C41   C     C_1   0.349009 0.620985 0.376151 -0.191825
C42   C     C_1   0.475219 0.879221 0.123997 -0.192117
C43   C     C_R   0.472834 0.161462 0.089274 -0.043289
C44   C     C_R   0.352228 0.338304 0.411215 -0.107441
C45   C     C_R   0.536808 0.276707 0.095409 -0.159803
C46   C     C_R   0.527189 0.219705 0.064820 -0.167219
C47   C     C_R   0.428572 0.160495 0.145211 -0.212604
C48   C     C_R   0.440738 0.217977 0.177796 0.084653
C49   C     C_R   0.495686 0.276329 0.151406 0.138032
C50   C     C_R   0.403358 0.219601 0.235454 0.063030
C51   C     C_R   0.421959 0.279447 0.265433 0.085878
C52   C     C_R   0.476452 0.335753 0.236631 -0.185546
C53   C     C_R   0.511878 0.334045 0.180979 -0.205321
C54   C     C_R   0.348631 0.163376 0.264134 -0.204954
C55   C     C_R   0.313493 0.164966 0.319770 -0.166700
C56   C     C_R   0.330090 0.222621 0.349760 0.038465
C57   C     C_R   0.384865 0.281018 0.323147 0.033092
C58   C     C_R   0.291385 0.222341 0.406310 0.466638
C59   C     C_R   0.297683 0.280430 0.436039 -0.244060
C60   C     C_R   0.397347 0.338665 0.355440 -0.223374
H19   H     H_    0.553941 0.378640 0.160848 0.124661
H20   H     H_    0.435981 0.385045 0.338499 0.107492
H21   H     H_    0.258757 0.280313 0.478795 0.124417
H22   H     H_    0.271888 0.120029 0.339362 0.168188
H23   H     H_    0.579511 0.321227 0.075311 0.113792
H24   H     H_    0.563730 0.220899 0.021919 0.107682
H25   H     H_    0.390361 0.113972 0.161990 0.095354
H26   H     H_    0.493953 0.382451 0.255888 0.123466
H27   H     H_    0.330963 0.116758 0.244727 0.124909
O11   O     O_R   0.323320 0.942780 0.056240 -0.535098
O12   O     O_R   0.647300 0.077050 0.046060 -0.537703
O13   O     O_R   0.813840 0.057330 0.943840 -0.535049
C61   C     C_R   0.478534 0.100946 0.056849 0.694923
O14   O     O_R   0.653250 0.944380 0.062400 -0.536704
O15   O     O_R   0.819830 0.923720 0.960300 -0.536360
C62   C     C_R   0.485181 0.924452 0.078305 0.724275
O16   O     O_R   0.317330 0.076390 0.039790 -0.536316
O17   O     O_3   0.483830 0.993470 0.966560 -0.366816
V3    V     V_3+5 0.760140 0.001210 0.006210 1.425507
O18   O     O_R   0.149290 0.922840 0.953850 -0.538121
C63   C     C_R   0.981053 0.899035 0.943195 0.694093
O19   O     O_R   0.143340 0.055500 0.937510 -0.537595
C64   C     C_R   0.973656 0.075506 0.921784 0.725497
V4    V     V_3+5 0.259690 0.998600 0.993650 1.425844
O20   O     O_3   0.986130 0.006520 0.033440 -0.366570
O21   O     O_3   0.232047 0.165998 0.431804 -0.557396
C65   C     C_3   0.387617 0.140383 0.462428 -0.266917
H28   H     H_    0.427850 0.173373 0.496635 0.141169
H29   H     H_    0.514431 0.130369 0.436124 0.142653
H30   H     H_    0.343248 0.093417 0.480510 0.168923

loop_
_geom_bond_atom_site_label_1
_geom_bond_atom_site_label_2
_ccdc_geom_bond_type
C13   C19   A    
C24   C29   S    
C49   C53   A    
C35   C36   A    
C4    C6    S    
O2    C1    A    
C7    C8    A    
C1    O6    A    
C25   C26   A    
O14   C62   A    
V4    O20   S    
C45   H23   S    
C47   C48   A    
O17   V3    S    
C14   C15   A    
C17   C18   A    
C44   C59   A    
C16   C17   A    
C65   H29   S    
O5    C3    A    
O14   V3    S    
C8    H6    S    
C48   C50   A    
O12   V3    S    
V2    O10   S    
C5    C8    A    
O21   C65   S    
C33   C34   A    
O17   V4    S    
C25   H13   S    
O18   C63   A    
O8    V2    S    
C36   C37   A    
C17   H4    S    
C47   H25   S    
C40   C41   T    
O1    V2    S    
C11   C15   A    
O7    V1    S    
O18   V4    S    
C22   H2    S    
C50   C54   A    
C3    C32   S    
O15   C63   A    
O12   C61   A    
O9    C4    A    
C52   H26   S    
C5    C63   S    
O19   V4    S    
O19   C64   A    
C51   C52   A    
C2    C44   S    
C23   C24   A    
C37   C38   A    
O11   V4    S    
C12   C13   A    
C65   H30   S    
O4    C2    A    
C56   C57   A    
C31   C64   S    
C15   H1    S    
C13   C14   A    
C55   C56   A    
C21   H3    S    
C26   H14   S    
C34   C39   S    
C33   H16   S    
C26   C27   A    
C58   O21   S    
C39   C42   T    
C7    C11   A    
C45   C46   A    
O16   V4    S    
C34   C35   A    
H15   C38   S    
C55   H22   S    
C60   H20   S    
C23   C28   A    
C20   H10   S    
C19   C22   A    
C54   C55   A    
C6    C22   A    
C51   C57   A    
O3    C4    A    
C7    H5    S    
C9    H7    S    
C24   C25   A    
C42   C62   S    
H11   C28   S    
C36   H18   S    
O6    V2    S    
O9    V2    S    
C43   C46   A    
C10   C12   A    
C29   C32   T    
C30   C31   T    
O2    V1    S    
C14   H8    S    
C27   C30   S    
O15   V3    S    
C23   H12   S    
O1    C2    A    
C54   H27   S    
C12   C16   A    
C50   C51   A    
O5    V1    S    
O8    C3    A    
C27   C28   A    
C53   H19   S    
C16   H9    S    
O11   C62   A    
C37   C40   S    
C20   C21   A    
C44   C60   A    
O7    V2    S    
O4    V1    S    
O3    V1    S    
V1    O10   S    
C65   H28   S    
C46   H24   S    
C18   C20   A    
C48   C49   A    
C18   C19   A    
C56   C58   A    
C59   H21   S    
C6    C21   A    
C5    C9    A    
V3    O20   S    
C35   H17   S    
C43   C61   S    
C58   C59   A    
C33   C38   A    
C52   C53   A    
C57   C60   A    
O13   C64   A    
C43   C47   A    
C10   C11   A    
O13   V3    S    
C61   O16   A    
C9    C10   A    
C45   C49   A    
C1    C41   S    
