data_mof_unit_12978.cif
_audit_creation_date              2012-12-11T14:42:21-0500
_audit_creation_method            fapswitch 2.2
_symmetry_space_group_name_H-M    P1
_symmetry_Int_Tables_number       1
_space_group_crystal_system       triclinic
_cell_length_a                    18.903057
_cell_length_b                    11.00549
_cell_length_c                    18.84067
_cell_angle_alpha                 90.355794
_cell_angle_beta                  89.755935
_cell_angle_gamma                 89.631784
_cell_volume                      3919.37134881

loop_
_atom_site_label
_atom_site_type_symbol
_atom_type_description
_atom_site_fract_x
_atom_site_fract_y
_atom_site_fract_z
_atom_type_partial_charge
C1    C     C_R   0.726766 0.955770 0.853681 0.548308
C2    C     C_R   0.243669 0.415887 0.925306 0.037511
C3    C     C_3   0.641377 0.758660 0.926926 -0.377486
C4    C     C_3   0.837551 0.494403 0.608679 -0.226262
C5    C     C_3   0.903400 0.412537 0.617691 -0.269109
C6    C     C_3   0.930885 0.415737 0.693917 -0.400239
C7    C     C_3   0.143175 0.229427 0.446859 -0.231775
C8    C     C_3   0.077992 0.205098 0.494302 -0.329592
C9    C     C_3   0.011253 0.185074 0.450255 -0.457684
C10   C     C_3   0.337861 0.993924 0.608568 -0.226095
C11   C     C_3   0.403601 0.911711 0.617379 -0.269022
C12   C     C_3   0.431271 0.914587 0.693542 -0.400235
C13   C     C_R   0.278521 0.971364 0.062758 0.041661
C14   C     C_3   0.643074 0.729662 0.446800 -0.231735
C15   C     C_3   0.577854 0.705428 0.494210 -0.329658
C16   C     C_3   0.511119 0.685547 0.450134 -0.457674
C17   C     C_R   0.743669 0.915886 0.925305 0.037505
C18   C     C_R   0.832811 0.420024 0.019488 -0.010874
C19   C     C_R   0.196416 0.338579 0.962066 -0.012011
C20   C     C_R   0.332810 0.920021 0.019489 -0.010884
C21   C     C_R   0.696416 0.838578 0.962065 -0.012011
C22   C     C_R   0.821696 0.409199 0.947209 -0.105618
C23   C     C_R   0.199404 0.336055 0.034933 -0.112649
C24   C     C_R   0.321695 0.909195 0.947210 -0.105603
C25   C     C_R   0.290533 0.997822 0.138289 0.564442
C26   C     C_R   0.699405 0.836053 0.034933 -0.112648
C27   C     C_R   0.754294 0.427015 0.918681 0.010305
C28   C     C_R   0.253153 0.395480 0.072439 0.016591
C29   C     C_R   0.254294 0.927013 0.918682 0.010308
C30   C     C_R   0.753153 0.895478 0.072439 0.016591
C31   C     C_R   0.480463 0.266598 0.540502 -0.150677
C32   C     C_R   0.476258 0.274947 0.468677 -0.134835
C33   C     C_R   0.980523 0.766641 0.540485 -0.150666
C34   C     C_R   0.976313 0.774975 0.468662 -0.134896
C35   C     C_R   0.499371 0.177967 0.424910 0.026114
C36   C     C_R   0.226766 0.455770 0.853681 0.548319
C37   C     C_R   0.513872 0.166742 0.570083 0.019108
C38   C     C_R   0.999380 0.677955 0.424903 0.026102
C39   C     C_R   0.013900 0.666758 0.570071 0.018983
C40   C     C_R   0.534085 0.077834 0.453800 -0.164158
C41   C     C_R   0.543049 0.073892 0.526840 -0.166334
C42   C     C_R   0.034056 0.577786 0.453796 -0.164049
C43   C     C_R   0.043035 0.573858 0.526835 -0.166411
C44   C     C_R   0.788757 0.444965 0.550538 0.007130
C45   C     C_R   0.208003 0.292007 0.480051 -0.003836
C46   C     C_R   0.288872 0.944801 0.550501 0.007065
C47   C     C_R   0.790533 0.497822 0.138289 0.564436
C48   C     C_R   0.707920 0.792154 0.480018 -0.003808
C49   C     C_R   0.794748 0.484154 0.479866 -0.012053
C50   C     C_R   0.216126 0.300139 0.554116 0.009121
C51   C     C_R   0.294813 0.984050 0.479841 -0.012058
C52   C     C_R   0.716039 0.800222 0.554085 0.009128
C53   C     C_R   0.531879 0.177887 0.852001 0.549480
C54   C     C_R   0.471991 0.178286 0.150405 0.545525
C55   C     C_R   0.031878 0.677887 0.852001 0.549438
C56   C     C_R   0.971991 0.678286 0.150405 0.545523
C57   C     C_R   0.754750 0.427108 0.425792 0.029665
C58   C     C_R   0.713070 0.502145 0.031934 -0.143392
C59   C     C_R   0.253693 0.398913 0.582390 0.018494
C60   C     C_R   0.254746 0.927110 0.425785 0.029636
C61   C     C_R   0.753673 0.898904 0.582387 0.018437
C62   C     C_R   0.703265 0.342106 0.442977 -0.157711
C63   C     C_R   0.300105 0.464612 0.539676 -0.171808
C64   C     C_R   0.203186 0.842259 0.442994 -0.157781
C65   C     C_R   0.800127 0.964552 0.539692 -0.171836
C66   C     C_R   0.693537 0.309178 0.513386 -0.160243
C67   C     C_R   0.305801 0.437051 0.468219 -0.167747
C68   C     C_R   0.193458 0.809367 0.513409 -0.160278
C69   C     C_R   0.297928 0.475593 0.962682 -0.148194
C70   C     C_R   0.805810 0.937034 0.468229 -0.167773
C71   C     C_R   0.736659 0.357760 0.566566 0.021554
C72   C     C_R   0.259537 0.353371 0.436973 0.002206
C73   C     C_R   0.236677 0.857782 0.566563 0.021457
C74   C     C_R   0.759501 0.853452 0.436962 0.002209
C75   C     C_R   0.739133 0.367153 0.851417 0.547526
C76   C     C_R   0.262189 0.361162 0.146261 0.551773
C77   C     C_R   0.239133 0.867152 0.851417 0.547616
C78   C     C_R   0.762189 0.861162 0.146261 0.551764
C79   C     C_R   0.729653 0.951527 0.649393 0.540620
C80   C     C_R   0.213071 0.002145 0.031934 -0.143392
C81   C     C_R   0.270736 0.953449 0.351740 0.540049
C82   C     C_R   0.229654 0.451532 0.649391 0.540648
C83   C     C_R   0.770743 0.453461 0.351747 0.540055
C84   C     C_R   0.533293 0.176005 0.643094 0.535038
C85   C     C_R   0.472293 0.177432 0.353667 0.530360
C86   C     C_R   0.033309 0.676009 0.643085 0.535031
C87   C     C_R   0.972292 0.677430 0.353666 0.530384
C88   C     C_R   0.726791 0.314623 0.638474 0.551561
C89   C     C_R   0.270961 0.320461 0.361868 0.543223
C90   C     C_R   0.226802 0.814651 0.638473 0.551547
C91   C     C_R   0.797928 0.975593 0.962682 -0.148193
C92   C     C_R   0.770946 0.820507 0.361869 0.543230
C93   C     C_2   0.506850 0.167000 0.925168 -0.112015
C94   C     C_2   0.507504 0.177669 0.081382 -0.105607
C95   C     C_2   0.006849 0.666999 0.925168 -0.112026
C96   C     C_2   0.007503 0.677669 0.081381 -0.105606
C97   C     C_2   0.524636 0.077743 0.044961 -0.171858
C98   C     C_2   0.536935 0.082738 0.967787 -0.152997
C99   C     C_2   0.024636 0.577744 0.044961 -0.171859
C100  C     C_2   0.036934 0.582738 0.967786 -0.152996
C101  C     C_R   0.700108 0.475055 0.960981 -0.149652
C102  C     C_R   0.778521 0.471364 0.062758 0.041660
C103  C     C_R   0.303464 0.463513 0.035925 -0.145038
C104  C     C_R   0.200108 0.975055 0.960981 -0.149664
C105  C     C_R   0.803464 0.963513 0.035925 -0.145038
C106  C     C_3   0.845691 0.583454 0.462860 -0.366760
C107  C     C_3   0.192175 0.200093 0.603316 -0.372529
C108  C     C_3   0.345752 0.083341 0.462825 -0.366722
C109  C     C_3   0.691985 0.700208 0.603259 -0.372499
C110  C     C_3   0.899264 0.362270 0.048158 -0.380257
C111  C     C_3   0.141376 0.258661 0.926927 -0.377484
C112  C     C_3   0.399263 0.862268 0.048159 -0.380259
Cr1   Cr    Cr6+3 0.769270 0.163730 0.750710 0.984475
Cr2   Cr    Cr6+3 0.385840 0.322500 0.252290 1.006494
Cr3   Cr    Cr6+3 0.114160 0.822500 0.747710 1.002526
Cr4   Cr    Cr6+3 0.885840 0.822500 0.252290 1.006492
Cr5   Cr    Cr6+3 0.230730 0.163730 0.249290 0.994699
Cr6   Cr    Cr6+3 0.269270 0.663730 0.750710 0.984445
Cr7   Cr    Cr6+3 0.730730 0.663730 0.249290 0.994703
Cr8   Cr    Cr6+3 0.612620 0.009790 0.748780 0.970093
Cr9   Cr    Cr6+3 0.387380 0.009790 0.251220 0.996390
Cr10  Cr    Cr6+3 0.112620 0.509790 0.748780 0.970107
Cr11  Cr    Cr6+3 0.887380 0.509790 0.251220 0.996426
Cr12  Cr    Cr6+3 0.614160 0.322500 0.747710 1.002513
H1    H     H_    0.530887 0.991582 0.071781 0.128439
H2    H     H_    0.344009 0.486282 0.436724 0.136600
H3    H     H_    0.153948 0.742377 0.526329 0.129520
H4    H     H_    0.844053 0.986210 0.436749 0.136591
H5    H     H_    0.512117 0.265584 0.055830 0.117471
H6    H     H_    0.471054 0.236130 0.945968 0.099277
H7    H     H_    0.012116 0.765584 0.055830 0.117472
H8    H     H_    0.971052 0.736129 0.945967 0.099276
H9    H     H_    0.647176 0.486021 0.940176 0.126778
H10   H     H_    0.346473 0.507209 0.063784 0.127065
H11   H     H_    0.147176 0.986023 0.940176 0.126778
H12   H     H_    0.572747 0.014940 0.945765 0.160179
H13   H     H_    0.846472 0.007209 0.063784 0.127066
H14   H     H_    0.670405 0.540771 0.063451 0.129892
H15   H     H_    0.334789 0.534620 0.935672 0.134340
H16   H     H_    0.170406 0.040774 0.063451 0.129894
H17   H     H_    0.834789 0.034620 0.935672 0.134348
H18   H     H_    0.863939 0.372110 0.914340 0.131840
H19   H     H_    0.160486 0.281402 0.062228 0.136327
H20   H     H_    0.363939 0.872103 0.914342 0.131869
H21   H     H_    0.660487 0.781398 0.062228 0.136327
H22   H     H_    0.459657 0.340545 0.572869 0.131886
H23   H     H_    0.030887 0.491582 0.071781 0.128440
H24   H     H_    0.449484 0.354446 0.448199 0.141414
H25   H     H_    0.959746 0.840621 0.572844 0.131920
H26   H     H_    0.949569 0.854502 0.448182 0.141397
H27   H     H_    0.552180 0.003062 0.420637 0.123277
H28   H     H_    0.572822 0.999419 0.549508 0.142837
H29   H     H_    0.052109 0.502974 0.420640 0.123330
H30   H     H_    0.072766 0.499335 0.549507 0.142846
H31   H     H_    0.842272 0.616082 0.407863 0.158101
H32   H     H_    0.835564 0.664544 0.496359 0.118296
H33   H     H_    0.898854 0.546720 0.473139 0.156493
H34   H     H_    0.072747 0.514941 0.945764 0.160180
H35   H     H_    0.229764 0.190484 0.648106 0.119532
H36   H     H_    0.138881 0.218961 0.625694 0.147353
H37   H     H_    0.191775 0.111753 0.575242 0.141084
H38   H     H_    0.342261 0.116078 0.407855 0.158065
H39   H     H_    0.335680 0.164374 0.496393 0.118289
H40   H     H_    0.398917 0.046531 0.473003 0.156547
H41   H     H_    0.729504 0.690572 0.648103 0.119537
H42   H     H_    0.638672 0.719144 0.625574 0.147289
H43   H     H_    0.691582 0.611863 0.575187 0.141052
H44   H     H_    0.925107 0.423873 0.085666 0.175915
H45   H     H_    0.671775 0.299667 0.401918 0.124272
H46   H     H_    0.885608 0.276725 0.075836 0.150203
H47   H     H_    0.938338 0.339653 0.005778 0.098346
H48   H     H_    0.095347 0.313017 0.908922 0.150984
H49   H     H_    0.165436 0.207610 0.881778 0.150836
H50   H     H_    0.119253 0.191177 0.964270 0.093162
H51   H     H_    0.425107 0.923871 0.085666 0.175917
H52   H     H_    0.385608 0.776723 0.075838 0.150203
H53   H     H_    0.438337 0.839649 0.005779 0.098342
H54   H     H_    0.595348 0.813016 0.908922 0.150989
H55   H     H_    0.665437 0.707608 0.881777 0.150823
H56   H     H_    0.330444 0.539556 0.560966 0.130723
H57   H     H_    0.619254 0.691176 0.964269 0.093161
H58   H     H_    0.934381 0.510741 0.713580 0.163748
H59   H     H_    0.895050 0.365609 0.729926 0.175073
H60   H     H_    0.983938 0.372036 0.696101 0.141696
H61   H     H_    0.892738 0.316660 0.602583 0.180283
H62   H     H_    0.945242 0.442628 0.581078 0.149948
H63   H     H_    0.855276 0.588453 0.599050 0.118599
H64   H     H_    0.807718 0.504329 0.659313 0.167147
H65   H     H_    0.997421 0.268579 0.420370 0.159811
H66   H     H_    0.019329 0.108337 0.412420 0.161773
H67   H     H_    0.171630 0.799921 0.401951 0.124291
H68   H     H_    0.966283 0.162991 0.485972 0.138141
H69   H     H_    0.086018 0.121119 0.525489 0.168562
H70   H     H_    0.068027 0.283426 0.530454 0.165628
H71   H     H_    0.122315 0.292929 0.406427 0.181388
H72   H     H_    0.159836 0.143286 0.420769 0.177667
H73   H     H_    0.434702 0.009487 0.713387 0.163965
H74   H     H_    0.395589 0.864120 0.729541 0.174860
H75   H     H_    0.484383 0.871061 0.695512 0.141458
H76   H     H_    0.392731 0.815916 0.602240 0.180124
H77   H     H_    0.445418 0.941673 0.580686 0.149845
H78   H     H_    0.830511 0.039424 0.561003 0.130760
H79   H     H_    0.355729 0.087893 0.598944 0.118555
H80   H     H_    0.308149 0.003953 0.659268 0.167178
H81   H     H_    0.497350 0.769093 0.420259 0.159846
H82   H     H_    0.519162 0.608816 0.412289 0.161773
H83   H     H_    0.466122 0.663530 0.485831 0.138120
H84   H     H_    0.585818 0.621420 0.525387 0.168520
H85   H     H_    0.567919 0.783753 0.530370 0.165567
H86   H     H_    0.622264 0.793190 0.406356 0.181371
H87   H     H_    0.659707 0.643491 0.420721 0.177663
H88   H     H_    0.654097 0.242055 0.526284 0.129430
O1    O     O_R   0.784320 0.290430 0.830510 -0.534659
O2    O     O_R   0.456080 0.282180 0.333210 -0.533875
O3    O     O_R   0.043920 0.782180 0.666790 -0.526396
O4    O     O_R   0.956080 0.782180 0.333210 -0.533895
O5    O     O_R   0.679040 0.374160 0.674430 -0.507622
O6    O     O_R   0.320960 0.374160 0.325570 -0.495842
O7    O     O_R   0.179040 0.874160 0.674430 -0.507574
O8    O     O_R   0.820960 0.874160 0.325570 -0.495837
O9    O     O_3   0.665350 0.165340 0.749070 -0.251079
O10   O     O_3   0.334650 0.165340 0.250930 -0.277799
O11   O     O_3   0.165350 0.665340 0.749070 -0.251076
O12   O     O_R   0.215680 0.290430 0.169490 -0.534175
O13   O     O_3   0.834650 0.665340 0.250930 -0.277786
O14   O     O_R   0.762640 0.040960 0.825200 -0.502568
O15   O     O_R   0.237360 0.040960 0.174800 -0.503821
O16   O     O_R   0.262640 0.540960 0.825200 -0.502589
O17   O     O_R   0.737360 0.540960 0.174800 -0.503821
O18   O     O_R   0.667400 0.923970 0.829950 -0.531691
O19   O     O_R   0.332600 0.923970 0.170050 -0.520282
O20   O     O_R   0.167400 0.423970 0.829950 -0.531689
O21   O     O_R   0.832600 0.423970 0.170050 -0.520284
O22   O     O_R   0.553960 0.081340 0.821780 -0.504918
O23   O     O_R   0.284320 0.790430 0.830510 -0.534586
O24   O     O_R   0.446040 0.081340 0.178220 -0.518481
O25   O     O_R   0.053960 0.581340 0.821780 -0.504935
O26   O     O_R   0.946040 0.581340 0.178220 -0.518484
O27   O     O_R   0.543180 0.283240 0.826740 -0.512092
O28   O     O_R   0.456820 0.283240 0.173260 -0.513945
O29   O     O_R   0.043180 0.783240 0.826740 -0.512089
O30   O     O_R   0.956820 0.783240 0.173260 -0.513947
O31   O     O_R   0.678360 0.375140 0.822710 -0.498078
O32   O     O_R   0.321640 0.375140 0.177290 -0.493044
O33   O     O_R   0.178360 0.875140 0.822710 -0.498076
O34   O     O_R   0.715680 0.790430 0.169490 -0.534181
O35   O     O_R   0.821640 0.875140 0.177290 -0.493046
O36   O     O_R   0.785050 0.289380 0.670560 -0.537176
O37   O     O_R   0.214950 0.289380 0.329440 -0.534010
O38   O     O_R   0.285050 0.789380 0.670560 -0.537159
O39   O     O_R   0.714950 0.789380 0.329440 -0.534054
O40   O     O_R   0.763320 0.039990 0.676930 -0.519283
O41   O     O_R   0.236680 0.039990 0.323070 -0.522496
O42   O     O_R   0.263320 0.539990 0.676930 -0.519307
O43   O     O_R   0.736680 0.539990 0.323070 -0.522436
O44   O     O_R   0.668130 0.922920 0.670000 -0.527028
O45   O     O_R   0.554640 0.080370 0.673500 -0.519549
O46   O     O_R   0.331870 0.922920 0.330000 -0.503147
O47   O     O_R   0.168130 0.422920 0.670000 -0.526994
O48   O     O_R   0.831870 0.422920 0.330000 -0.503152
O49   O     O_R   0.445360 0.080370 0.326500 -0.509597
O50   O     O_R   0.054640 0.580370 0.673500 -0.519537
O51   O     O_R   0.945360 0.580370 0.326500 -0.509574
O52   O     O_R   0.543920 0.282180 0.666790 -0.526360

loop_
_geom_bond_atom_site_label_1
_geom_bond_atom_site_label_2
_ccdc_geom_bond_type
C44   C49   A    
C69   H15   S    
Cr2   O32   S    
C21   C26   A    
Cr8   O9    S    
Cr9   O19   S    
C104  H11   S    
C111  H50   S    
C79   O40   A    
Cr2   O2    S    
C17   C91   A    
C59   C82   S    
Cr1   O1    S    
Cr4   O4    S    
C16   H83   S    
C23   H19   S    
Cr6   O11   S    
C53   O27   A    
Cr3   O33   S    
C97   C98   S    
C34   H26   S    
C7    C8    S    
C41   H28   S    
C20   C112  S    
C24   C29   A    
C76   O12   A    
C90   O38   A    
C81   O46   A    
C33   C39   A    
Cr1   O40   S    
C89   O37   A    
C14   H87   S    
C80   C104  A    
C50   C59   A    
C64   C68   A    
C4    H63   S    
C56   O26   A    
C76   O32   A    
C3    H54   S    
C61   C79   S    
C73   C90   S    
C38   C42   A    
C16   H82   S    
C52   C61   A    
C11   H77   S    
C5    C6    S    
C27   C75   S    
C92   O39   A    
Cr10  O25   S    
C47   O17   A    
Cr12  O52   S    
C2    C36   S    
Cr8   O45   S    
C96   C99   D    
C98   H12   S    
C77   O23   A    
C49   C57   A    
C88   O5    A    
C44   C71   A    
C111  H48   S    
C18   C102  A    
C74   C92   S    
C92   O8    A    
C91   C105  A    
C11   H76   S    
C3    H55   S    
C109  H43   S    
Cr9   O49   S    
C89   O6    A    
C86   O3    A    
C31   H22   S    
Cr5   O41   S    
C1    O18   A    
C25   O19   A    
C65   H78   S    
C107  H37   S    
Cr11  O51   S    
C51   C108  S    
C10   C46   S    
C82   O42   A    
C79   O44   A    
C57   C83   S    
C37   C84   S    
C8    H69   S    
C58   C102  A    
C5    H61   S    
Cr4   O8    S    
C9    H68   S    
Cr6   O42   S    
C10   H79   S    
C15   H84   S    
C36   O20   A    
Cr9   O46   S    
Cr11  O26   S    
Cr8   O22   S    
C110  H47   S    
C58   H14   S    
C82   O47   A    
C13   C80   A    
C36   O16   A    
C47   C102  S    
Cr11  O21   S    
C45   C72   A    
C13   C25   S    
Cr5   O10   S    
C110  H44   S    
C5    H62   S    
Cr2   O6    S    
C9    H65   S    
Cr6   O23   S    
C107  H36   S    
Cr4   O30   S    
C69   C103  A    
Cr3   O29   S    
C108  H39   S    
C63   C67   A    
C94   H5    S    
C14   H86   S    
C53   C93   S    
C32   C35   A    
C48   C74   A    
C84   O45   A    
C57   C62   A    
C42   H29   S    
C75   O31   A    
C55   C95   S    
C16   H81   S    
Cr6   O38   S    
C67   H2    S    
Cr8   O18   S    
Cr12  O27   S    
C62   C66   A    
C95   C100  D    
C8    C9    S    
C14   C48   S    
C4    C44   S    
C94   C97   D    
Cr6   O16   S    
C68   C73   A    
C80   H16   S    
C108  H38   S    
C46   C51   A    
C75   O1    A    
C17   C21   A    
C63   H56   S    
C31   C37   A    
C29   C104  A    
C6    H60   S    
C34   C38   A    
C65   C70   A    
C26   H21   S    
C19   C23   A    
Cr7   O34   S    
Cr8   O44   S    
C70   C74   A    
C9    H66   S    
Cr7   O39   S    
C88   O36   A    
C108  H40   S    
C60   C81   S    
Cr9   O10   S    
C66   C71   A    
C1    O14   A    
C12   H73   S    
Cr9   O24   S    
C22   H18   S    
C33   C34   A    
C78   O35   A    
Cr3   O3    S    
C83   O48   A    
C58   C101  A    
C23   C28   A    
Cr2   O10   S    
Cr12  O31   S    
C8    H70   S    
C3    H57   S    
C68   H3    S    
Cr1   O9    S    
C90   O7    A    
C49   C106  S    
C109  H41   S    
C96   H7    S    
Cr11  O13   S    
C110  H46   S    
C97   H1    S    
C40   C41   A    
C112  H52   S    
C6    H58   S    
C2    C69   A    
C6    H59   S    
C106  H32   S    
C22   C27   A    
C30   C105  A    
C95   H8    S    
C3    C21   S    
C86   O50   A    
C42   C43   A    
C87   O4    A    
C7    H71   S    
C93   H6    S    
C43   H30   S    
C87   O51   A    
C64   H67   S    
Cr7   O13   S    
C19   C111  S    
Cr2   O28   S    
Cr4   O35   S    
C70   H4    S    
C56   C96   S    
C62   H45   S    
C99   H23   S    
Cr12  O5    S    
Cr5   O15   S    
Cr5   O37   S    
C55   O29   A    
C13   C20   A    
C2    C19   A    
C111  H49   S    
C1    C17   S    
C103  H10   S    
C31   C32   A    
Cr10  O50   S    
C18   C110  S    
C85   O49   A    
C4    C5    S    
C7    C45   S    
Cr7   O43   S    
C107  H35   S    
C11   C12   S    
C26   C30   A    
C54   O24   A    
C32   H24   S    
C101  H9    S    
Cr11  O48   S    
Cr3   O7    S    
C106  H33   S    
Cr10  O20   S    
Cr4   O13   S    
C59   C63   A    
C99   C100  S    
C60   C64   A    
C38   C87   S    
Cr10  O11   S    
C10   C11   S    
C4    H64   S    
C18   C22   A    
C35   C40   A    
C54   O28   A    
C15   H85   S    
C33   H25   S    
C85   O2    A    
C52   C109  S    
C72   C89   S    
C35   C85   S    
C28   C103  A    
Cr1   O14   S    
C50   C107  S    
C10   H80   S    
C45   C50   A    
C24   H20   S    
C93   C98   D    
C78   O34   A    
C12   H75   S    
C25   O15   A    
Cr1   O36   S    
C77   O33   A    
C61   C65   A    
C37   C41   A    
C54   C94   S    
C55   O25   A    
C109  H42   S    
Cr7   O17   S    
C27   C101  A    
C105  H13   S    
C71   C88   S    
C30   C78   S    
C100  H34   S    
Cr10  O47   S    
C48   C52   A    
C112  H51   S    
C29   C77   S    
Cr12  O9    S    
C40   H27   S    
C106  H31   S    
C39   C43   A    
C83   O43   A    
C56   O30   A    
C12   H74   S    
C14   C15   S    
C84   O52   A    
Cr5   O12   S    
C67   C72   A    
C51   C60   A    
C39   C86   S    
C47   O21   A    
C7    H72   S    
C66   H88   S    
C53   O22   A    
C20   C24   A    
C46   C73   A    
C81   O41   A    
C15   C16   S    
Cr3   O11   S    
C112  H53   S    
C91   H17   S    
C28   C76   S    
