data_mof_unit_64201.cif
_audit_creation_date              2013-03-05T16:56:55-0500
_audit_creation_method            fapswitch 2.2
_symmetry_space_group_name_H-M    P1
_symmetry_Int_Tables_number       1
_space_group_crystal_system       triclinic
_cell_length_a                    17.552386
_cell_length_b                    16.750809
_cell_length_c                    15.781288
_cell_angle_alpha                 90.000089
_cell_angle_beta                  90.261274
_cell_angle_gamma                 90.050857
_cell_volume                      4639.91160265

loop_
_atom_site_label
_atom_site_type_symbol
_atom_site_description
_atom_site_fract_x
_atom_site_fract_y
_atom_site_fract_z
_atom_type_partial_charge
O1    O     O_R   0.389130 0.566570 0.500000 -0.592158
O2    O     O_R   0.389130 0.433430 0.500000 -0.592441
C1    C     C_R   0.353111 0.499950 0.498687 0.887923
O3    O     O_R   0.500020 0.566570 0.377150 -0.571251
O4    O     O_R   0.500020 0.433430 0.377150 -0.578723
C2    C     C_R   0.499960 0.500000 0.338038 0.901214
Zn1   Zn    Zn3+2 0.500020 0.588860 0.500000 1.109241
Zn2   Zn    Zn3+2 0.500020 0.411140 0.500000 1.101549
O5    O     O_R   0.610900 0.566520 0.500010 -0.528959
O6    O     O_R   0.610900 0.433480 0.500010 -0.542751
O7    O     O_R   0.500010 0.566510 0.622860 -0.579983
O8    O     O_R   0.500010 0.433490 0.622860 -0.573392
C3    C     C_R   0.647052 0.500051 0.498881 1.037019
C4    C     C_R   0.500069 0.500000 0.661998 0.891542
C5    C     C_3   0.457670 0.575063 0.048386 0.457933
C6    C     C_3   0.462888 0.421818 0.048419 0.458949
C7    C     C_3   0.462070 0.423755 0.949753 0.286673
C8    C     C_3   0.456968 0.573049 0.949722 0.284564
H1    H     H_    0.396905 0.566815 0.927553 0.163255
H2    H     H_    0.401743 0.425350 0.927567 0.163255
C9    C     C_1   0.501023 0.500008 0.750583 -0.073213
C10   C     C_3   0.501660 0.500027 0.082727 -0.120700
C11   C     C_3   0.503580 0.500095 0.917276 -0.144361
C12   C     C_3   0.587892 0.503338 0.952639 -0.055679
C13   C     C_3   0.585586 0.503241 0.051384 -0.697273
C14   C     C_1   0.502126 0.500038 0.825654 0.114703
C15   C     C_1   0.500939 0.500008 0.174404 0.092685
C16   C     C_1   0.500406 0.500002 0.249469 -0.080317
H3    H     H_    0.614506 0.556898 0.078207 0.219338
H4    H     H_    0.618073 0.451927 0.078214 0.216354
C17   C     C_R   0.845660 0.568438 0.449535 0.544720
C18   C     C_R   0.849274 0.428329 0.489089 0.537432
C19   C     C_R   0.767632 0.569867 0.462938 0.527793
C20   C     C_R   0.771290 0.429215 0.502758 0.531195
C21   C     C_R   0.729715 0.500062 0.489612 -0.558105
C22   C     C_R   0.885908 0.497762 0.462410 -0.391362
C23   C     C_1   0.965951 0.498150 0.455784 0.270313
C24   C     C_1   0.033561 0.498546 0.455476 -0.008934
C25   C     C_R   0.153170 0.572065 0.466776 -0.014514
C26   C     C_R   0.153332 0.426152 0.469655 -0.013614
C27   C     C_R   0.231377 0.572070 0.480544 -0.167326
C28   C     C_R   0.231512 0.426963 0.483373 -0.167295
H5    H     H_    0.261492 0.628538 0.484194 0.199624
H6    H     H_    0.261707 0.370761 0.489290 0.196510
C29   C     C_R   0.270688 0.499716 0.489057 -0.074487
C30   C     C_R   0.114183 0.498902 0.461507 0.030852
C31   C     C_R   0.450863 0.832241 0.446482 0.474971
C32   C     C_R   0.451942 0.167672 0.445260 0.475124
C33   C     C_R   0.451756 0.748026 0.447474 0.532508
C34   C     C_R   0.452809 0.251892 0.446297 0.527545
N1    N     N_R   0.500030 0.707230 0.500020 -0.268581
N2    N     N_R   0.500030 0.292770 0.500020 -0.275194
C35   C     C_R   0.548314 0.748164 0.552504 0.590795
C36   C     C_R   0.547105 0.251905 0.553832 0.590625
C37   C     C_R   0.549189 0.832385 0.553418 0.484210
C38   C     C_R   0.547970 0.167689 0.554744 0.481930
C39   C     C_R   0.500016 0.875590 0.499935 -0.389538
C40   C     C_R   0.499980 0.124403 0.499948 -0.393130
C41   C     C_1   0.499992 0.963449 0.499914 0.301586
C42   C     C_1   0.499977 0.036544 0.499914 0.301947
F1    F     F_    0.402257 0.871091 0.393590 -0.539712
F2    F     F_    0.404418 0.128740 0.391159 -0.539161
F3    F     F_    0.404032 0.707118 0.395496 -0.571083
F4    F     F_    0.406035 0.292723 0.393270 -0.567992
F5    F     F_    0.596066 0.707390 0.604487 -0.540968
F6    F     F_    0.593552 0.292733 0.607271 -0.516131
F7    F     F_    0.597794 0.871380 0.606266 -0.526307
F8    F     F_    0.595387 0.128777 0.608906 -0.521833
F9    F     F_    0.383002 0.573261 0.076850 -0.582152
F10   F     F_    0.388287 0.417913 0.076868 -0.580844
C43   C     C_1   0.501718 0.349237 0.080380 0.366781
N3    N     N_1   0.532055 0.292581 0.105428 -0.112778
C44   C     C_1   0.491475 0.650429 0.080301 0.368597
N4    N     N_1   0.517888 0.709260 0.105315 -0.104850
F11   F     F_    0.493346 0.355191 0.914535 -0.619190
F12   F     F_    0.483468 0.643832 0.914461 -0.622194
C45   C     C_1   0.628345 0.575497 0.922702 0.307515
N5    N     N_1   0.660035 0.631916 0.899296 -0.071389
C46   C     C_1   0.633172 0.434486 0.922711 0.307286
N6    N     N_1   0.668636 0.380659 0.899311 -0.067742
F13   F     F_    0.882140 0.636076 0.424865 -0.565133
F14   F     F_    0.889334 0.360196 0.503170 -0.565275
F15   F     F_    0.729501 0.639101 0.448460 -0.549354
F16   F     F_    0.737009 0.361124 0.529678 -0.520565
C47   C     C_1   0.113982 0.647648 0.459187 0.261239
N7    N     N_1   0.082584 0.708113 0.453112 -0.061870
C48   C     C_1   0.114333 0.350170 0.465147 0.264466
N8    N     N_1   0.083093 0.289388 0.461545 -0.061956

loop_
_geom_bond_atom_site_label_1
_geom_bond_atom_site_label_2
_geom_bond_distance
_ccdc_geom_bond_type
C5    C8    1.557406 S    
C9    C14   1.184784 T    
C33   F3    1.355287 S    
C34   F4    1.355290 S    
C44   N4    1.157336 T    
C48   N8    1.157266 T    
C31   C33   1.410867 A    
C45   N5    1.157544 T    
Zn1   O7    1.974703 S    
C7    C11   1.559017 S    
C20   F16   1.358153 S    
C18   C22   1.394490 A    
C4    C9    1.398001 S    
C22   C23   1.409321 S    
C3    C21   1.458943 S    
O4    C2    1.274533 A    
O7    C4    1.273850 A    
C39   C41   1.471711 S    
C40   C42   1.471711 S    
C7    H2    1.114092 S    
C20   C21   1.408580 A    
C11   C14   1.446024 S    
O5    C3    1.282188 A    
C5    C10   1.570864 S    
C2    C16   1.397794 S    
C6    C7    1.557423 S    
C33   N1    1.366454 A    
C10   C13   1.556945 S    
C34   N2    1.366466 A    
C11   C12   1.580115 S    
C17   C19   1.386986 A    
C35   F5    1.355262 S    
Zn2   N2    1.982793 S    
C32   C34   1.410931 A    
C41   C42   1.224407 T    
C27   H5    1.084554 S    
C6    C43   1.481698 S    
C28   H6    1.084582 S    
O3    Zn1   1.974357 S    
N2    C36   1.366418 A    
C35   C37   1.410910 A    
C13   H3    1.114416 S    
C5    F9    1.387676 S    
C36   C38   1.410842 A    
C8    C11   1.559029 S    
C6    F10   1.387674 S    
C12   C13   1.559034 S    
O3    C2    1.274525 A    
C8    H1    1.114093 S    
C47   N7    1.157265 T    
C1    C29   1.454005 S    
N1    C35   1.366383 A    
C28   C29   1.401430 A    
C18   C20   1.386757 A    
C26   C30   1.405161 A    
C23   C24   1.186763 T    
C31   C39   1.405511 A    
C12   C46   1.479842 S    
C32   F2    1.357421 S    
Zn2   O8    1.974702 S    
C19   F15   1.358342 S    
C25   C30   1.405403 A    
C5    C44   1.481709 S    
O8    C4    1.273854 A    
C10   C15   1.446902 S    
C37   C39   1.405548 A    
C25   C47   1.446109 S    
C26   C48   1.446213 S    
C13   H4    1.114412 S    
Zn1   O5    1.982186 S    
C6    C10   1.570869 S    
O1    Zn1   1.981545 S    
O2    Zn2   1.982196 S    
O6    C3    1.282701 A    
C31   F1    1.357425 S    
O4    Zn2   1.974358 S    
C37   F7    1.357421 S    
C32   C40   1.405539 A    
C36   F6    1.355107 S    
C18   F14   1.358794 S    
C17   F13   1.358763 S    
O2    C1    1.281742 A    
Zn1   N1    1.982793 S    
C43   N3    1.157336 T    
C38   F8    1.357429 S    
C26   C28   1.388295 A    
C19   C21   1.410166 A    
C38   C40   1.405475 A    
C24   C30   1.417868 S    
C46   N6    1.157544 T    
C12   C45   1.479839 S    
C25   C27   1.388824 A    
Zn2   O6    1.981533 S    
C15   C16   1.184696 T    
C7    F11   1.390392 S    
C27   C29   1.401309 A    
C17   C22   1.393600 A    
O1    C1    1.282206 A    
C8    F12   1.390391 S    
