data_mof_unit_35320.cif
_audit_creation_date              2013-03-05T16:05:19-0500
_audit_creation_method            fapswitch 2.2
_symmetry_space_group_name_H-M    P1
_symmetry_Int_Tables_number       1
_space_group_crystal_system       triclinic
_cell_length_a                    27.383105
_cell_length_b                    7.19635
_cell_length_c                    22.626219
_cell_angle_alpha                 90.054591
_cell_angle_beta                  101.167959
_cell_angle_gamma                 89.897967
_cell_volume                      4374.24753491

loop_
_atom_site_label
_atom_site_type_symbol
_atom_site_description
_atom_site_fract_x
_atom_site_fract_y
_atom_site_fract_z
_atom_type_partial_charge
O1    O     O_R   0.707300 0.594030 0.176840 -0.571851
O2    O     O_R   0.292700 0.405970 0.823160 -0.597785
O3    O     O_R   0.792700 0.094030 0.323160 -0.571584
O4    O     O_R   0.207300 0.905970 0.676840 -0.596666
O5    O     O_R   0.697330 0.262360 0.295660 -0.576632
O6    O     O_R   0.302670 0.737640 0.704340 -0.586667
O7    O     O_R   0.802670 0.762360 0.204340 -0.577206
O8    O     O_R   0.197330 0.237640 0.795660 -0.586773
C1    C     C_R   0.684899 0.433041 0.312196 0.998402
C2    C     C_R   0.314335 0.567466 0.686963 1.059741
C3    C     C_R   0.815128 0.932726 0.187807 0.998700
C4    C     C_R   0.185681 0.067778 0.813082 1.059448
O9    O     O_R   0.701410 0.264250 0.175600 -0.594934
O10   O     O_R   0.298590 0.735750 0.824400 -0.559335
O11   O     O_R   0.798590 0.764250 0.324400 -0.593799
O12   O     O_R   0.201410 0.235750 0.675600 -0.559587
O13   O     O_R   0.796800 0.094950 0.202240 -0.546075
O14   O     O_R   0.203200 0.905050 0.797760 -0.562427
O15   O     O_R   0.703200 0.594950 0.297760 -0.547180
O16   O     O_R   0.296800 0.405050 0.702240 -0.563052
C5    C     C_R   0.689370 0.432709 0.153684 1.031876
C6    C     C_R   0.310370 0.566850 0.846448 1.059150
C7    C     C_R   0.810647 0.932627 0.346314 1.034178
C8    C     C_R   0.189625 0.066947 0.653542 1.059853
O17   O     O_3   0.781290 0.427390 0.258880 -0.254976
O18   O     O_3   0.218710 0.572610 0.741120 -0.282441
O19   O     O_3   0.718710 0.927390 0.241120 -0.256579
O20   O     O_3   0.281290 0.072610 0.758880 -0.283401
V1    V     V_3+5 0.744190 0.152150 0.248350 1.309739
V2    V     V_3+5 0.255810 0.847850 0.751650 1.295603
V3    V     V_3+5 0.755810 0.652150 0.251650 1.310944
V4    V     V_3+5 0.244190 0.347850 0.748350 1.295492
C9    C     C_R   0.153963 0.055160 0.595551 -0.268372
C10   C     C_R   0.846841 0.936483 0.404145 -0.270143
C11   C     C_R   0.345945 0.554471 0.904482 -0.268195
C12   C     C_R   0.653213 0.436850 0.095833 -0.269384
C13   C     C_R   0.141677 0.016783 0.487528 -0.088228
C14   C     C_R   0.863703 0.857819 0.510023 -0.076842
C15   C     C_R   0.358079 0.509980 0.012227 -0.095586
C16   C     C_R   0.636592 0.359804 0.989815 -0.079025
C17   C     C_R   0.173101 0.025009 0.543551 -0.149768
C18   C     C_R   0.831835 0.860157 0.454340 -0.185138
C19   C     C_R   0.326720 0.521985 0.956254 -0.147754
C20   C     C_R   0.668414 0.361680 0.045528 -0.185015
C21   C     C_R   0.101745 0.070374 0.591489 0.293836
C22   C     C_R   0.896028 0.005944 0.409550 0.298212
C23   C     C_R   0.398174 0.569351 0.908719 0.295704
C24   C     C_R   0.603911 0.505765 0.090483 0.289150
C25   C     C_R   0.068736 0.034578 0.534988 -0.048666
C26   C     C_R   0.931507 0.978401 0.464801 -0.046131
C27   C     C_R   0.431114 0.530650 0.965051 -0.045946
C28   C     C_R   0.568488 0.478194 0.035204 -0.044180
C29   C     C_R   0.089730 0.021783 0.482390 -0.037380
C30   C     C_R   0.913337 0.915907 0.516110 -0.035468
C31   C     C_R   0.410033 0.513696 0.017451 -0.049539
C32   C     C_R   0.586828 0.416888 0.983801 -0.035470
C33   C     C_R   0.016120 0.003649 0.528893 0.031983
C34   C     C_R   0.984413 0.002256 0.470665 0.033945
C35   C     C_R   0.483795 0.500885 0.971144 0.027397
C36   C     C_R   0.515481 0.499784 0.029402 0.023437
C37   C     C_R   0.007210 0.997797 0.420028 -0.235853
C38   C     C_R   0.995584 0.947675 0.578388 -0.226319
C39   C     C_R   0.492619 0.493288 0.080003 -0.223026
C40   C     C_R   0.504507 0.447001 0.921533 -0.224660
C41   C     C_R   0.058786 0.008679 0.425232 0.536345
C42   C     C_R   0.945148 0.905950 0.572754 0.540941
C43   C     C_R   0.440938 0.492728 0.074376 0.551310
C44   C     C_R   0.555053 0.406881 0.927133 0.541667
H1    H     H_    0.794530 0.806174 0.450713 0.190929
H2    H     H_    0.212907 0.013116 0.546146 0.191172
H3    H     H_    0.705831 0.308334 0.049096 0.189950
H4    H     H_    0.286904 0.510226 0.953511 0.190173
H5    H     H_    0.158396 0.001354 0.448155 0.182709
H6    H     H_    0.849543 0.804373 0.548152 0.181753
H7    H     H_    0.341301 0.491684 0.051419 0.179446
H8    H     H_    0.650880 0.307281 0.951605 0.181408
H9    H     H_    0.986091 0.967571 0.375752 0.196107
H10   H     H_    0.018959 0.917332 0.621358 0.197209
H11   H     H_    0.513898 0.470115 0.124635 0.196582
H12   H     H_    0.481228 0.417240 0.878443 0.197156
C45   C     C_R   0.859179 0.096372 0.112190 0.397691
C46   C     C_R   0.145498 0.905019 0.891469 0.385251
C47   C     C_R   0.640636 0.598584 0.387370 0.403372
C48   C     C_R   0.354508 0.404181 0.608437 0.384617
C49   C     C_R   0.895857 0.095501 0.076813 -0.183726
C50   C     C_R   0.106399 0.892776 0.923172 -0.186189
C51   C     C_R   0.603272 0.600522 0.421776 -0.164518
C52   C     C_R   0.393629 0.391528 0.576726 -0.183977
H13   H     H_    0.898987 0.214467 0.048391 0.187816
H14   H     H_    0.105119 0.775833 0.953009 0.189233
H15   H     H_    0.600486 0.718861 0.450661 0.184521
H16   H     H_    0.394753 0.275298 0.546490 0.188265
C53   C     C_R   0.928684 0.946025 0.077584 -0.038508
C54   C     C_R   0.070417 0.032894 0.919608 -0.029237
C55   C     C_R   0.569573 0.453874 0.419750 -0.041433
C56   C     C_R   0.429730 0.530868 0.580641 -0.029045
C57   C     C_R   0.924673 0.790604 0.114960 0.388715
C58   C     C_R   0.073455 0.190877 0.883007 0.380831
C59   C     C_R   0.573586 0.298313 0.382471 0.378147
C60   C     C_R   0.426921 0.687849 0.617785 0.377387
C61   C     C_R   0.887925 0.793063 0.151022 -0.193231
C62   C     C_R   0.111791 0.199327 0.849420 -0.162550
C63   C     C_R   0.611385 0.296517 0.347952 -0.190185
C64   C     C_R   0.388523 0.697068 0.651227 -0.163132
H17   H     H_    0.885480 0.676725 0.180509 0.227772
H18   H     H_    0.113121 0.316489 0.819776 0.216239
H19   H     H_    0.613617 0.179992 0.318341 0.225790
H20   H     H_    0.387356 0.813807 0.681168 0.215506
C65   C     C_R   0.854534 0.942752 0.150095 -0.329216
C66   C     C_R   0.147631 0.057462 0.852328 -0.339057
C67   C     C_R   0.645296 0.444365 0.349570 -0.333152
C68   C     C_R   0.352463 0.556339 0.647846 -0.338838
C69   C     C_R   0.955650 0.888380 0.980619 -0.236051
C70   C     C_R   0.043514 0.088168 0.016597 -0.271330
C71   C     C_R   0.542686 0.384139 0.515925 -0.273480
C72   C     C_R   0.456370 0.596677 0.484243 -0.278525
H21   H     H_    0.920878 0.814549 0.966584 0.193052
H22   H     H_    0.078082 0.163382 0.030528 0.193229
H23   H     H_    0.576862 0.305191 0.528318 0.192918
H24   H     H_    0.422258 0.676033 0.471866 0.193958
C73   C     C_R   0.987892 0.911824 0.939684 0.407061
C74   C     C_R   0.011452 0.063453 0.057649 0.397150
C75   C     C_R   0.511105 0.405729 0.557766 0.408685
C76   C     C_R   0.487944 0.575205 0.442451 0.399289
C77   C     C_R   0.032508 0.013716 0.958188 -0.023591
C78   C     C_R   0.966872 0.961500 0.039223 -0.019010
C79   C     C_R   0.467200 0.513582 0.541362 -0.020947
C80   C     C_R   0.531883 0.467621 0.458849 -0.016433
O21   O     O_3   0.079347 0.989478 0.374244 -0.632279
C81   C     C_3   0.071392 0.155241 0.340491 -0.022409
H25   H     H_    0.086792 0.277799 0.367978 0.113307
H26   H     H_    0.031216 0.176648 0.321269 0.179331
H27   H     H_    0.091150 0.144507 0.302201 0.196024
O22   O     O_3   0.927732 0.837742 0.622031 -0.627036
C82   C     C_3   0.925852 0.984345 0.662975 -0.019190
H28   H     H_    0.903195 0.103002 0.640963 0.111392
H29   H     H_    0.963833 0.032029 0.684156 0.177116
H30   H     H_    0.907733 0.932733 0.699581 0.194146
O23   O     O_3   0.420615 0.480349 0.125686 -0.606701
C83   C     C_3   0.421254 0.292521 0.143613 -0.073408
H31   H     H_    0.459986 0.240746 0.158488 0.151764
H32   H     H_    0.400661 0.202723 0.107005 0.110669
H33   H     H_    0.402307 0.281370 0.182579 0.200101
O24   O     O_3   0.572636 0.340341 0.877706 -0.626393
C84   C     C_3   0.574982 0.488815 0.837695 -0.023717
H34   H     H_    0.598273 0.604765 0.860400 0.111990
H35   H     H_    0.537172 0.540118 0.817110 0.175726
H36   H     H_    0.592661 0.437918 0.800567 0.193972
N1    N     N_R   0.974313 0.833187 0.880038 0.266388
O25   O     O_R   0.991664 0.900927 0.834971 -0.348081
O26   O     O_R   0.941033 0.702255 0.869327 -0.312875
N2    N     N_R   0.024890 0.142523 0.117221 0.262869
O27   O     O_R   0.056982 0.277564 0.127499 -0.319073
O28   O     O_R   0.008873 0.070612 0.162639 -0.355812
N3    N     N_R   0.524818 0.320460 0.616382 0.266831
O29   O     O_R   0.508374 0.385204 0.662575 -0.341479
O30   O     O_R   0.557778 0.187745 0.625228 -0.312681
N4    N     N_R   0.474323 0.661079 0.383923 0.267421
O31   O     O_R   0.441678 0.794873 0.375274 -0.308247
O32   O     O_R   0.490368 0.595400 0.337579 -0.317553
N5    N     N_R   0.907758 0.119507 0.361966 0.219251
O33   O     O_R   0.928268 0.281524 0.374294 -0.380314
O34   O     O_R   0.897838 0.062689 0.306318 -0.422873
N6    N     N_R   0.083257 0.142750 0.642213 0.214455
O35   O     O_R   0.051892 0.280762 0.634970 -0.373974
O36   O     O_R   0.097868 0.072778 0.695732 -0.450866
N7    N     N_R   0.592062 0.619494 0.138055 0.223839
O37   O     O_R   0.571106 0.780939 0.125660 -0.366424
O38   O     O_R   0.602260 0.563354 0.193746 -0.418656
N8    N     N_R   0.416750 0.643669 0.858397 0.214641
O39   O     O_R   0.448013 0.781608 0.866321 -0.374594
O40   O     O_R   0.402259 0.575727 0.804559 -0.452097
N9    N     N_R   0.826633 0.253771 0.107515 0.222624
O41   O     O_R   0.833192 0.376322 0.150568 -0.366310
O42   O     O_R   0.801819 0.301738 0.054759 -0.438437
N10   N     N_R   0.184349 0.768020 0.902833 0.234872
O43   O     O_R   0.173482 0.594262 0.909504 -0.409523
O44   O     O_R   0.230563 0.820672 0.917282 -0.436064
N11   N     N_R   0.674098 0.753005 0.393285 0.223503
O45   O     O_R   0.668302 0.878521 0.351197 -0.360693
O46   O     O_R   0.699055 0.796009 0.446447 -0.438465
N12   N     N_R   0.315527 0.268169 0.596727 0.234868
O47   O     O_R   0.326209 0.094593 0.589099 -0.408936
O48   O     O_R   0.269338 0.321979 0.582801 -0.435236
N13   N     N_R   0.957498 0.631812 0.118107 0.251442
O49   O     O_R   0.983094 0.599399 0.076399 -0.363800
O50   O     O_R   0.959973 0.511600 0.161549 -0.320451
N14   N     N_R   0.038404 0.342665 0.878879 0.252190
O51   O     O_R   0.994705 0.320282 0.892326 -0.334885
O52   O     O_R   0.049051 0.503195 0.858177 -0.339346
N15   N     N_R   0.539816 0.142971 0.378324 0.247716
O53   O     O_R   0.551332 0.984910 0.356552 -0.339581
O54   O     O_R   0.495998 0.160896 0.391870 -0.335406
N16   N     N_R   0.462386 0.837749 0.622622 0.250804
O55   O     O_R   0.506769 0.811312 0.611582 -0.334879
O56   O     O_R   0.451610 0.999648 0.642421 -0.338240

loop_
_geom_bond_atom_site_label_1
_geom_bond_atom_site_label_2
_geom_bond_distance
_ccdc_geom_bond_type
O17   V3    1.755563 S    
C82   H30   1.109301 S    
N16   O56   1.301596 A    
C52   C56   1.400007 A    
O1    C5    1.328352 A    
C19   H4    1.083450 S    
C51   H15   1.084545 S    
C3    C65   1.501588 S    
C9    C21   1.419013 A    
O3    C7    1.328331 A    
C1    C67   1.500859 S    
C10   C18   1.393993 A    
C83   H33   1.109243 S    
C60   C64   1.410802 A    
O15   V3    1.979505 S    
C23   N8    1.437926 S    
C4    C66   1.496149 S    
N5    O33   1.301399 A    
N13   O49   1.300560 A    
C25   C33   1.438255 A    
C82   H28   1.114164 S    
N7    O38   1.301250 A    
C5    C12   1.480690 S    
C75   N3    1.443709 S    
N9    O41   1.300034 A    
C57   N13   1.445856 S    
C6    C11   1.478343 S    
C35   C40   1.406080 A    
C48   C68   1.419333 A    
C36   C39   1.408117 A    
C46   C66   1.418926 A    
O9    V1    1.996192 S    
N6    O35   1.301402 A    
C21   N6    1.437987 S    
C83   H32   1.113990 S    
C14   C18   1.386797 A    
N1    O26   1.301572 A    
O16   V4    1.979507 S    
O4    C8    1.324561 A    
C55   C59   1.417893 A    
N13   O50   1.301809 A    
O19   V1    1.757562 S    
N8    O39   1.301401 A    
C54   C58   1.419196 A    
C61   C65   1.409250 A    
O1    V3    1.983486 S    
O13   V1    1.978031 S    
C31   C43   1.405535 A    
C20   H3    1.081793 S    
O2    V4    1.983488 S    
O3    V1    1.983170 S    
C53   C78   1.487102 S    
C58   N14   1.443885 S    
C50   C54   1.399950 A    
N5    O34   1.301246 A    
C73   C77   1.417763 A    
C42   O22   1.385405 S    
C49   C53   1.398538 A    
C55   C80   1.486847 S    
C1    O15   1.334778 A    
C15   C31   1.404862 A    
C52   H16   1.084242 S    
N14   O52   1.301580 A    
C37   H9    1.077474 S    
C16   C32   1.403726 A    
C72   C79   1.402899 A    
C51   C55   1.397968 A    
O2    C6    1.324466 A    
C12   C24   1.420451 A    
C10   C22   1.420363 A    
C15   H7    1.083076 S    
C11   C19   1.394220 A    
C16   C20   1.386750 A    
C45   C49   1.400319 A    
C76   C80   1.417402 A    
C13   C29   1.404999 A    
C34   C37   1.407239 A    
O11   C7    1.326625 A    
N16   O55   1.300893 A    
C11   C23   1.418985 A    
C35   C36   1.430879 A    
O12   C8    1.329187 A    
N4    O32   1.301062 A    
C40   H12   1.078028 S    
O10   V2    1.996194 S    
C84   H35   1.112355 S    
C22   C26   1.440575 A    
C84   H34   1.114054 S    
O5    V1    1.987020 S    
N9    O42   1.300567 A    
C61   H17   1.081260 S    
C39   C43   1.396126 A    
C71   C75   1.408751 A    
C38   C42   1.395355 A    
C28   C32   1.422690 A    
N15   O53   1.301438 A    
C26   C34   1.439541 A    
C33   C38   1.406497 A    
O7    V3    1.989656 S    
C83   H31   1.112464 S    
C59   C63   1.412307 A    
C50   H14   1.084241 S    
C2    O16   1.335372 A    
N7    O37   1.301401 A    
C64   C68   1.407357 A    
C70   C77   1.403345 A    
C49   H13   1.084677 S    
O18   V4    1.755563 S    
C15   C19   1.388303 A    
C69   C78   1.403902 A    
C32   C44   1.405064 A    
C22   N5    1.437636 S    
C18   H1    1.081670 S    
C71   C80   1.403230 A    
C72   H24   1.083603 S    
C56   C79   1.486843 S    
C76   N4    1.443660 S    
N14   O51   1.300861 A    
O8    V4    1.989659 S    
C74   C78   1.416975 A    
C81   H26   1.112376 S    
N15   O54   1.300825 A    
O5    C1    1.345926 A    
C58   C62   1.411585 A    
C41   O21   1.384943 S    
C43   O23   1.384236 S    
C53   C57   1.420000 A    
O7    C3    1.345810 A    
C14   C30   1.403694 A    
C21   C25   1.438830 A    
O8    C4    1.342521 A    
C7    C10   1.480849 S    
C57   C61   1.413023 A    
O9    C5    1.326887 A    
C26   C30   1.422375 A    
C2    C68   1.495767 S    
N3    O30   1.301588 A    
C70   H22   1.083619 S    
C69   H21   1.083559 S    
N10   O43   1.301525 A    
O6    V2    1.987020 S    
N2    O28   1.301016 A    
C71   H23   1.083513 S    
N4    O31   1.301527 A    
C47   C67   1.421065 A    
C12   C20   1.393904 A    
C81   H27   1.109312 S    
C27   C35   1.437999 A    
C40   C44   1.394924 A    
C75   C79   1.417731 A    
C64   H20   1.083016 S    
C84   H36   1.109307 S    
C29   C41   1.405339 A    
O21   C81   1.410687 S    
C14   H6    1.083180 S    
C54   C77   1.486745 S    
C82   H29   1.112189 S    
C13   H5    1.083132 S    
C3    O13   1.334938 A    
C72   C76   1.407641 A    
C48   N12   1.435723 S    
C38   H10   1.077746 S    
C48   C52   1.402836 A    
C46   N10   1.435516 S    
O24   C84   1.410656 S    
C47   C51   1.400523 A    
O6    C2    1.342642 A    
C44   O24   1.385109 S    
C23   C27   1.438803 A    
O23   C83   1.410694 S    
O11   V3    1.996612 S    
O22   C82   1.410798 S    
C39   H11   1.076648 S    
C63   C67   1.409217 A    
C60   N16   1.442602 S    
O12   V4    1.996613 S    
C45   C65   1.420716 A    
C8    C9    1.478585 S    
C47   N11   1.431181 S    
C9    C17   1.394259 A    
O10   C6    1.329548 A    
N6    O36   1.301053 A    
C81   H25   1.114079 S    
O20   V2    1.757564 S    
C46   C50   1.402336 A    
N1    O25   1.300982 A    
C59   N15   1.443435 S    
C33   C34   1.430578 A    
C24   N7    1.437482 S    
N8    O40   1.301045 A    
C25   C29   1.421226 A    
C56   C60   1.418227 A    
N10   O44   1.301181 A    
C73   N1    1.443861 S    
C62   H18   1.082937 S    
C27   C31   1.421078 A    
C13   C17   1.388608 A    
N12   O48   1.301178 A    
C62   C66   1.407584 A    
O14   V2    1.978025 S    
N11   O45   1.300188 A    
C70   C74   1.407829 A    
C37   C41   1.396621 A    
C24   C28   1.440441 A    
C69   C73   1.408330 A    
N2    O27   1.301608 A    
C28   C36   1.440007 A    
C16   H8    1.083183 S    
C4    O14   1.335408 A    
N3    O29   1.301093 A    
C63   H19   1.081839 S    
C30   C42   1.404986 A    
O4    V2    1.983170 S    
N12   O47   1.301335 A    
C45   N9    1.431275 S    
C17   H2    1.083415 S    
N11   O46   1.300505 A    
C74   N2    1.443302 S    
