data_mof_unit_58924.cif
_audit_creation_date              2012-12-10T20:43:25-0500
_audit_creation_method            fapswitch 2.2
_symmetry_space_group_name_H-M    P1
_symmetry_Int_Tables_number       1
_space_group_crystal_system       triclinic
_cell_length_a                    15.745155
_cell_length_b                    10.699783
_cell_length_c                    9.847769
_cell_angle_alpha                 89.888099
_cell_angle_beta                  90.375782
_cell_angle_gamma                 89.870938
_cell_volume                      1659.00799711

loop_
_atom_site_label
_atom_site_type_symbol
_atom_type_description
_atom_site_fract_x
_atom_site_fract_y
_atom_site_fract_z
_atom_type_partial_charge
C1    C     C_R   0.498783 0.259928 0.499901 0.879718
C2    C     C_R   0.501164 0.935805 0.374074 -0.224967
C3    C     C_R   0.487928 0.871496 0.496264 -0.091065
C4    C     C_R   0.338982 0.499024 0.499485 0.902425
C5    C     C_R   0.460624 0.935992 0.610643 0.062756
C6    C     C_3   0.486784 0.927485 0.756443 -0.582498
C7    C     C_3   0.487125 0.070112 0.757236 0.316357
C8    C     C_R   0.454271 0.585746 0.070645 0.202313
C9    C     C_R   0.552366 0.421216 0.072784 -0.143535
C10   C     C_R   0.552454 0.421387 0.928568 -0.112586
C11   C     C_R   0.453900 0.585294 0.928067 0.211077
C12   C     C_R   0.044614 0.434005 0.614050 -0.259928
C13   C     C_3   0.360031 0.603394 0.921953 -0.510866
C14   C     C_3   0.360678 0.605213 0.076124 -0.495787
C15   C     C_R   0.498262 0.739999 0.499592 0.890427
C16   C     C_R   0.660978 0.499417 0.500429 0.896157
C17   C     C_R   0.956785 0.432537 0.614682 -0.245331
C18   C     C_R   0.912183 0.444797 0.492573 -0.027239
C19   C     C_R   0.954361 0.448519 0.366850 0.368310
C20   C     C_R   0.043396 0.452621 0.366919 0.405275
C21   C     C_R   0.087181 0.448819 0.491435 -0.015652
C22   C     C_3   0.870616 0.353449 0.207412 0.090657
C23   C     C_1   0.823816 0.466232 0.498475 0.007902
C24   C     C_3   0.832558 0.368799 0.065925 -0.818229
C25   C     C_3   0.091027 0.364505 0.169520 0.134086
C26   C     C_3   0.173863 0.361843 0.091188 -0.855366
C27   C     C_3   0.444749 0.125176 0.973247 0.120413
C28   C     C_3   0.379202 0.200484 0.051328 -0.801209
C29   C     C_1   0.175899 0.467698 0.495051 0.047758
C30   C     C_1   0.250468 0.484057 0.497828 -0.183497
C31   C     C_1   0.749400 0.483930 0.500879 -0.189979
C32   C     C_R   0.461080 0.063590 0.611078 0.147417
C33   C     C_R   0.489036 0.128334 0.496993 -0.163305
C34   C     C_R   0.502173 0.064479 0.374623 -0.228516
H1    H     H_    0.079210 0.429959 0.709528 0.176366
H2    H     H_    0.519272 0.112698 0.281960 0.161593
H3    H     H_    0.517054 0.887741 0.280833 0.166249
H4    H     H_    0.436321 0.884981 0.819871 0.215984
H5    H     H_    0.551128 0.886199 0.770407 0.179577
H6    H     H_    0.818279 0.328709 0.277545 0.149311
H7    H     H_    0.916859 0.274512 0.205130 0.100449
H8    H     H_    0.883167 0.392042 0.992064 0.247675
H9    H     H_    0.801374 0.280477 0.034147 0.194905
H10   H     H_    0.784404 0.444846 0.065895 0.263783
H11   H     H_    0.037964 0.365293 0.094768 0.176242
H12   H     H_    0.550662 0.114200 0.771599 0.057977
H13   H     H_    0.087847 0.276873 0.231217 0.101202
H14   H     H_    0.228200 0.355729 0.163357 0.256424
H15   H     H_    0.175114 0.279138 0.023302 0.213414
H16   H     H_    0.179959 0.447708 0.028461 0.266864
H17   H     H_    0.507840 0.169861 0.988208 0.114059
H18   H     H_    0.446906 0.028855 0.015940 0.134783
H19   H     H_    0.316258 0.154328 0.044127 0.250173
H20   H     H_    0.397939 0.207176 0.159855 0.219230
H21   H     H_    0.374261 0.296365 0.008522 0.260892
H22   H     H_    0.593064 0.356884 0.127833 0.141183
H23   H     H_    0.593276 0.357284 0.874583 0.134965
H24   H     H_    0.342153 0.694757 0.876025 0.203441
H25   H     H_    0.326223 0.521199 0.878960 0.225574
H26   H     H_    0.343918 0.697921 0.119207 0.208353
H27   H     H_    0.327075 0.524734 0.122219 0.229040
H28   H     H_    0.923660 0.428315 0.710756 0.172342
N1    N     N_R   0.499440 0.499140 0.142800 -0.103586
N2    N     N_R   0.499440 0.499180 0.857150 -0.098534
O1    O     O_R   0.500010 0.316790 0.614690 -0.606274
O2    O     O_3   0.087803 0.474722 0.248320 -0.580726
O3    O     O_3   0.420850 0.122325 0.834878 -0.569417
O4    O     O_R   0.500000 0.316760 0.385350 -0.630003
O5    O     O_R   0.378030 0.499990 0.614640 -0.608545
O6    O     O_R   0.378020 0.499950 0.385300 -0.613164
O7    O     O_R   0.500000 0.683240 0.614650 -0.614895
O8    O     O_R   0.499990 0.683210 0.385310 -0.625072
O9    O     O_R   0.621980 0.500050 0.614700 -0.618699
O10   O     O_R   0.621970 0.500010 0.385360 -0.607941
O11   O     O_3   0.910170 0.466596 0.246212 -0.580266
Zn1   Zn    Zn3+2 0.500010 0.500020 0.653130 0.960904
Zn2   Zn    Zn3+2 0.499990 0.499980 0.346870 0.940678

loop_
_geom_bond_atom_site_label_1
_geom_bond_atom_site_label_2
_ccdc_geom_bond_type
C24   H8    S    
C19   C20   A    
C4    O6    A    
C1    C33   S    
C16   C31   S    
C15   O8    A    
O8    Zn2   S    
O1    Zn1   S    
C16   O10   A    
C20   O2    S    
C26   H16   S    
C5    C6    S    
C22   H7    S    
C1    O4    A    
O5    Zn1   S    
C18   C19   A    
O10   Zn2   S    
C12   C17   A    
C1    O1    A    
C6    H4    S    
C9    C10   A    
C25   H13   S    
C26   H14   S    
C5    C32   A    
C2    C34   A    
C13   C14   S    
O6    Zn2   S    
C22   O11   S    
C4    O5    A    
C28   H21   S    
C27   H17   S    
C33   C34   A    
C16   O9    A    
C7    H12   S    
C10   H23   S    
C11   N2    A    
C26   H15   S    
C28   H20   S    
C13   H24   S    
C25   C26   S    
C14   H27   S    
C21   C29   S    
C12   C21   A    
C18   C23   S    
C23   C31   T    
C29   C30   T    
C17   H28   S    
C22   H6    S    
C17   C18   A    
N2    Zn1   S    
C9    H22   S    
C12   H1    S    
C24   H10   S    
O9    Zn1   S    
C22   C24   S    
C25   H11   S    
C14   H26   S    
C27   H18   S    
N1    Zn2   S    
O4    Zn2   S    
C8    C14   S    
C7    C32   S    
C9    N1    A    
C10   N2    A    
C25   O2    S    
C3    C5    A    
C28   H19   S    
C6    C7    S    
C13   H25   S    
C15   O7    A    
C32   C33   A    
C19   O11   S    
C2    C3    A    
C11   C13   S    
C2    H3    S    
O7    Zn1   S    
C8    C11   A    
C34   H2    S    
C27   O3    S    
C8    N1    A    
C7    O3    S    
C20   C21   A    
C27   C28   S    
C24   H9    S    
C6    H5    S    
C3    C15   S    
C4    C30   S    
