data_mof_unit_41560.cif
_audit_creation_date              2013-03-05T15:58:07-0500
_audit_creation_method            fapswitch 2.2
_symmetry_space_group_name_H-M    P1
_symmetry_Int_Tables_number       1
_space_group_crystal_system       triclinic
_cell_length_a                    12.633862
_cell_length_b                    13.226304
_cell_length_c                    14.995683
_cell_angle_alpha                 90.177411
_cell_angle_beta                  103.016318
_cell_angle_gamma                 82.603517
_cell_volume                      2420.20032053

loop_
_atom_site_label
_atom_site_type_symbol
_atom_site_description
_atom_site_fract_x
_atom_site_fract_y
_atom_site_fract_z
_atom_type_partial_charge
O1    O     O_R   0.366740 0.627160 0.477250 -0.621329
O2    O     O_R   0.544830 0.662520 0.507680 -0.580783
C1    C     C_R   0.438764 0.690976 0.485119 0.922146
O3    O     O_R   0.410940 0.482340 0.616930 -0.624028
O4    O     O_R   0.589030 0.517700 0.647360 -0.600342
C2    C     C_R   0.500701 0.500781 0.673064 0.900461
Zn1   Zn    Zn3+2 0.381090 0.476390 0.479680 0.942079
Zn2   Zn    Zn3+2 0.618910 0.523610 0.520320 0.962317
O5    O     O_R   0.455170 0.337480 0.492320 -0.638094
O6    O     O_R   0.633260 0.372840 0.522750 -0.658639
O7    O     O_R   0.410970 0.482300 0.352640 -0.653868
O8    O     O_R   0.589060 0.517660 0.383070 -0.625173
C3    C     C_R   0.561373 0.308524 0.513939 0.862319
C4    C     C_R   0.500102 0.496960 0.327144 0.898914
C5    C     C_R   0.600693 0.481622 0.205112 -0.228280
C6    C     C_R   0.500376 0.493505 0.231161 -0.042963
C7    C     C_R   0.401488 0.505653 0.166213 -0.223793
C8    C     C_R   0.402003 0.507815 0.074151 0.127232
C9    C     C_R   0.503231 0.498174 0.047215 0.067990
C10   C     C_R   0.604296 0.486038 0.113076 0.023979
C11   C     C_R   0.302596 0.520287 0.008779 -0.186101
C12   C     C_R   0.302576 0.522631 0.916311 -0.197353
C13   C     C_R   0.401987 0.512413 0.888800 0.121262
C14   C     C_R   0.502757 0.500367 0.954226 0.066744
C15   C     C_R   0.602740 0.490072 0.926341 0.063655
C16   C     C_R   0.702384 0.478551 0.990943 -0.171314
C17   C     C_R   0.705071 0.477457 0.084732 -0.015673
C18   C     C_R   0.402275 0.513472 0.796611 -0.236119
C19   C     C_R   0.501750 0.502388 0.769260 -0.065854
C20   C     C_R   0.601607 0.491488 0.833658 -0.211212
H1    H     H_    0.675141 0.468186 0.257704 0.139741
H2    H     H_    0.324166 0.515016 0.187293 0.165296
H3    H     H_    0.224987 0.528068 0.029221 0.166618
H4    H     H_    0.225024 0.532065 0.866353 0.157553
H5    H     H_    0.324968 0.523005 0.746206 0.159165
H6    H     H_    0.678361 0.482594 0.811691 0.171212
H7    H     H_    0.778372 0.472132 0.967879 0.191600
C21   C     C_R   0.729919 0.045799 0.529928 0.260219
C22   C     C_R   0.598042 0.198104 0.524415 -0.189216
C23   C     C_R   0.295727 0.834811 0.490216 -0.287081
C24   C     C_R   0.268126 0.937048 0.507583 0.010715
C25   C     C_R   0.347113 0.003317 0.513799 -0.106816
C26   C     C_R   0.450083 0.970480 0.492761 0.053854
C27   C     C_R   0.470803 0.870324 0.463818 0.057441
C28   C     C_R   0.534810 0.032601 0.502276 0.038030
C29   C     C_R   0.641411 0.990420 0.495230 0.022757
C30   C     C_R   0.653051 0.898203 0.448365 -0.073059
C31   C     C_R   0.562990 0.843491 0.425856 0.069282
C32   C     C_R   0.515028 0.136376 0.514663 -0.211186
C33   C     C_R   0.708620 0.152112 0.541009 -0.097198
C34   C     C_R   0.399093 0.800094 0.473917 -0.077520
H8    H     H_    0.432212 0.171753 0.508415 0.182029
H9    H     H_    0.238722 0.781374 0.494685 0.153106
H10   H     H_    0.326902 0.078482 0.538025 0.167913
C35   C     C_R   0.084549 0.344556 0.378227 -0.165846
H11   H     H_    0.878386 0.315423 0.355917 0.176558
H12   H     H_    0.059511 0.283831 0.332595 0.203809
N1    N     N_R   0.222190 0.444670 0.452360 -0.148289
C36   C     C_R   0.804513 0.630283 0.608247 0.298798
C37   C     C_R   0.908869 0.659141 0.626361 -0.250765
C38   C     C_R   0.987011 0.611550 0.583796 -0.238398
C39   C     C_R   0.961936 0.532854 0.522624 0.035911
C40   C     C_R   0.853568 0.505655 0.504859 0.182643
C41   C     C_R   0.040662 0.479522 0.479377 0.007253
C42   C     C_R   0.009146 0.400318 0.419580 0.127454
C43   C     C_R   0.902684 0.375959 0.401965 -0.202580
C44   C     C_R   0.826371 0.427704 0.444248 -0.189858
C45   C     C_R   0.150199 0.500364 0.493774 -0.059620
C46   C     C_R   0.191913 0.366556 0.395378 0.096793
N2    N     N_R   0.776970 0.554790 0.547140 -0.152167
H13   H     H_    0.181262 0.559285 0.537866 0.130137
H14   H     H_    0.066211 0.637686 0.600997 0.149109
H15   H     H_    0.929938 0.718783 0.674219 0.195725
H16   H     H_    0.747080 0.403712 0.429075 0.208481
C47   C     C_2   0.749612 0.866053 0.409196 0.485403
H17   H     H_    0.776987 0.785505 0.403781 0.079566
O9    O     O_2   0.796406 0.928847 0.379125 -0.524517
I1    I     I_    0.886338 0.964347 0.594495 -0.284051
C48   C     C_2   0.158850 0.971748 0.525077 0.481222
H18   H     H_    0.100567 0.917715 0.522443 0.086603
O10   O     O_2   0.132224 0.060621 0.541763 -0.502144
I2    I     I_    0.545868 0.751926 0.307023 -0.337081
C49   C     C_2   0.269675 0.303245 0.350628 0.405410
H19   H     H_    0.344444 0.328142 0.342616 0.132859
O11   O     O_2   0.250018 0.220057 0.320518 -0.564590
I3    I     I_    0.698921 0.711461 0.683379 -0.331520
C50   C     C_2   0.813803 0.470304 0.150301 0.406530
H20   H     H_    0.821716 0.496386 0.219690 0.065464
O12   O     O_2   0.897541 0.436332 0.126629 -0.559554
C51   C     C_2   0.800395 0.212699 0.572218 0.470075
H21   H     H_    0.793442 0.273760 0.619831 0.076937
O13   O     O_2   0.884323 0.195886 0.544175 -0.494397

loop_
_geom_bond_atom_site_label_1
_geom_bond_atom_site_label_2
_geom_bond_distance
_ccdc_geom_bond_type
C50   H20   1.082362 S    
C8    C11   1.399483 A    
C24   C25   1.398410 A    
C9    C10   1.418329 A    
C26   C27   1.403578 A    
C28   C29   1.416518 A    
Zn1   O7    2.027388 S    
C16   C17   1.399251 A    
C19   C20   1.396492 A    
C41   C45   1.414557 A    
C18   C19   1.397685 A    
O4    C2    1.304826 A    
O7    C4    1.304783 A    
C11   H3    1.084041 S    
C5    C6    1.398183 A    
C37   H15   1.082896 S    
C8    C9    1.416118 A    
O5    C3    1.313240 A    
C39   C41   1.419323 A    
C33   C51   1.482571 S    
C30   C31   1.403455 A    
C18   H5    1.085118 S    
C6    C7    1.391545 A    
C13   C14   1.412399 A    
Zn1   N1    2.054093 S    
C43   C44   1.379409 A    
C36   C37   1.387552 A    
C11   C12   1.387012 A    
O3    Zn1   2.010331 S    
C35   C42   1.385058 A    
C5    C10   1.392753 A    
C12   H4    1.084085 S    
C40   C44   1.397094 A    
C3    C22   1.471962 S    
C14   C15   1.407933 A    
O3    C2    1.301548 A    
C48   O10   1.221382 D    
C1    C34   1.462763 S    
C21   I1    2.144708 S    
C15   C16   1.395943 A    
C37   C38   1.378276 A    
O1    C1    1.305030 A    
C47   H17   1.085556 S    
C39   C40   1.427156 A    
C46   C49   1.482690 S    
C26   C28   1.413574 A    
C51   O13   1.220727 D    
C49   H19   1.070806 S    
C40   N2    1.368481 A    
C28   C32   1.382705 A    
Zn2   O8    2.010331 S    
C32   H8    1.073549 S    
C22   C33   1.417449 A    
C7    C8    1.382404 A    
C16   H7    1.084845 S    
C44   H16   1.065224 S    
C13   C18   1.383386 A    
C17   C50   1.490456 S    
C47   O9    1.221254 D    
C35   C46   1.390933 A    
C38   H14   1.076794 S    
N1    C45   1.354487 A    
C23   C24   1.391134 A    
C22   C32   1.392313 A    
O8    C4    1.301776 A    
C42   C43   1.390557 A    
C35   H12   1.085298 S    
C4    C6    1.440681 S    
C25   C26   1.420940 A    
C27   C34   1.409209 A    
C15   C20   1.386852 A    
Zn1   O5    1.940858 S    
C29   C30   1.413584 A    
C49   O11   1.221847 D    
O1    Zn1   1.978672 S    
O2    Zn2   1.940859 S    
O6    C3    1.307702 A    
C24   C48   1.478077 S    
O4    Zn2   2.027389 S    
N1    C46   1.375841 A    
C5    H1    1.077916 S    
C21   C33   1.413689 A    
C10   C17   1.421546 A    
C23   C34   1.401679 A    
Zn2   N2    2.041738 S    
C20   H6    1.084874 S    
C41   C42   1.414485 A    
C50   O12   1.221854 D    
C9    C14   1.393476 A    
C36   I3    2.121929 S    
C30   C47   1.483829 S    
C25   H10   1.076895 S    
C51   H21   1.084502 S    
C45   H13   1.075722 S    
H11   C43   1.084667 S    
C31   I2    2.137615 S    
O2    C1    1.310912 A    
C38   C39   1.404738 A    
C21   C29   1.415629 A    
C36   N2    1.377650 A    
C48   H18   1.084758 S    
C2    C19   1.439701 S    
Zn2   O6    1.978673 S    
C23   H9    1.084326 S    
C7    H2    1.085008 S    
C12   C13   1.398287 A    
C27   C31   1.413316 A    
