data_mof_unit_46230.cif
_audit_creation_date              2013-03-05T15:44:34-0500
_audit_creation_method            fapswitch 2.2
_symmetry_space_group_name_H-M    P1
_symmetry_Int_Tables_number       1
_space_group_crystal_system       triclinic
_cell_length_a                    8.369606
_cell_length_b                    17.56954
_cell_length_c                    19.331354
_cell_angle_alpha                 95.244959
_cell_angle_beta                  95.852325
_cell_angle_gamma                 95.285465
_cell_volume                      2801.21896923

loop_
_atom_site_label
_atom_site_type_symbol
_atom_site_description
_atom_site_fract_x
_atom_site_fract_y
_atom_site_fract_z
_atom_type_partial_charge
P1    P     P_3+3 0.970290 0.672580 0.555000 0.590711
O1    O     O_2   0.143190 0.684560 0.534150 -0.378722
O2    O     O_3   0.882350 0.590230 0.535560 -0.330202
O3    O     O_3   0.372640 0.639320 0.408320 -0.383721
O4    O     O_2   0.259920 0.771110 0.449284 -0.288696
O5    O     O_3   0.006908 0.695640 0.646539 -0.535547
O6    O     O_3   0.372777 0.766304 0.328935 -0.464899
H1    H     H_    0.305461 0.655571 0.281699 0.147153
C1    C     C_3   0.398143 0.728163 0.209025 -0.899876
H2    H     H_    0.273898 0.738324 0.188823 0.300681
H3    H     H_    0.480888 0.781229 0.208704 0.252854
P2    P     P_3+3 0.347000 0.441860 0.341200 0.534360
P3    P     P_3+3 0.921850 0.599232 0.281643 0.496495
O7    O     O_2   0.176230 0.464730 0.330450 -0.384164
O8    O     O_3   0.952380 0.601530 0.373300 -0.342925
O9    O     O_2   0.047540 0.549711 0.253014 -0.361876
O10   O     O_3   0.318224 0.341447 0.322434 -0.529672
O11   O     O_3   0.982953 0.690863 0.257748 -0.478416
C2    C     C_3   0.850569 0.734885 0.250091 0.291714
H4    H     H_    0.737096 0.698808 0.230023 -0.078145
C3    C     C_3   0.878453 0.791452 0.195147 -0.158878
H5    H     H_    0.925416 0.761552 0.149428 0.146838
C4    C     C_3   0.888946 0.313990 0.310616 0.231680
H6    H     H_    0.005145 0.343930 0.334472 0.069883
C5    C     C_3   0.902848 0.228197 0.290019 -0.706078
H7    H     H_    0.958432 0.202521 0.335721 0.137142
H8    H     H_    0.779959 0.197613 0.275205 0.260849
Ba1   Ba    Ba6+2 0.157360 0.537160 0.466280 1.654763
C6    C     C_3   0.979793 0.632808 0.685075 0.245388
H9    H     H_    0.096834 0.611421 0.699619 0.023705
H10   H     H_    0.897048 0.585748 0.656193 0.189736
C7    C     C_3   0.906658 0.658086 0.751780 -0.574333
H11   H     H_    0.848928 0.606628 0.772132 0.210076
H12   H     H_    0.813097 0.697166 0.739710 0.289075
C8    C     C_3   0.313518 0.303742 0.383133 0.391977
H13   H     H_    0.191200 0.301707 0.398315 -0.006298
H14   H     H_    0.397644 0.331497 0.427697 0.156364
C9    C     C_3   0.354025 0.221727 0.367575 -0.901643
H15   H     H_    0.252107 0.186423 0.335182 0.227068
H16   H     H_    0.378326 0.195255 0.417038 0.231125
H17   H     H_    0.461934 0.221654 0.338708 0.284113
P4    P     P_3+3 0.840010 0.327410 0.444950 0.460578
O12   O     O_2   0.667110 0.315390 0.465830 -0.365785
O13   O     O_3   0.927950 0.409760 0.464380 -0.375626
O14   O     O_3   0.437660 0.360670 0.591630 -0.442549
O15   O     O_3   0.768933 0.320951 0.355526 -0.555189
P5    P     P_3+3 0.892391 0.402688 0.719517 0.495541
O16   O     O_3   0.379150 0.537830 0.583060 -0.369906
O17   O     O_3   0.857920 0.398470 0.626650 -0.367757
O18   O     O_2   0.764125 0.450095 0.749498 -0.383586
O19   O     O_3   0.852554 0.311848 0.751032 -0.537924
Ba2   Ba    Ba6+2 0.652820 0.462830 0.533660 1.622949
P6    P     P_3+3 0.401857 0.740036 0.414160 0.539958
C10   C     C_3   0.401212 0.703913 0.282471 0.517961
H18   H     H_    0.520859 0.683781 0.297364 -0.043113
H19   H     H_    0.437389 0.681623 0.174274 0.191972
O20   O     O_3   0.431150 0.462160 0.416880 -0.391607
C11   C     C_3   0.409713 0.713805 0.670822 0.306492
H20   H     H_    0.297781 0.681577 0.644349 0.090594
C12   C     C_3   0.377927 0.748474 0.742719 -0.730120
H21   H     H_    0.488271 0.782568 0.770285 0.288923
H22   H     H_    0.278797 0.786165 0.737705 0.256037
H23   H     H_    0.342485 0.701750 0.774476 0.205493
P7    P     P_3+3 0.467136 0.569369 0.669477 0.489963
O21   O     O_2   0.634060 0.535220 0.669530 -0.343054
O22   O     O_3   0.536399 0.667400 0.678182 -0.531742
H24   H     H_    0.760708 0.811013 0.175996 0.099290
C13   C     C_3   0.849043 0.249786 0.698449 0.579870
H25   H     H_    0.778831 0.262538 0.649817 0.042690
C14   C     C_3   0.762110 0.175983 0.722164 -0.207348
H26   H     H_    0.644167 0.189159 0.737675 0.148541
P8    P     P_3+3 0.402928 0.260212 0.588719 0.490086
C15   C     C_3   0.448097 0.307868 0.720949 0.368801
H27   H     H_    0.354258 0.346903 0.710549 0.113045
O23   O     O_2   0.546892 0.226281 0.557105 -0.400382
O24   O     O_3   0.418355 0.238487 0.676192 -0.506836
H28   H     H_    0.564304 0.338170 0.712368 0.151775
H29   H     H_    0.451998 0.351090 0.829358 0.216509
C16   C     C_3   0.454550 0.294721 0.798459 -0.818049
H30   H     H_    0.569421 0.272712 0.817020 0.228737
H31   H     H_    0.587235 0.897454 0.440012 0.197196
C17   C     C_R   0.697569 0.727435 0.489503 -0.417587
C18   C     C_R   0.856838 0.749052 0.517714 0.222542
C19   C     C_R   0.917853 0.828342 0.523285 0.313729
C20   C     C_R   0.820197 0.882833 0.494771 -0.064474
C21   C     C_R   0.662161 0.857233 0.463049 -0.209429
C22   C     C_R   0.601332 0.779414 0.460470 0.156642
C23   C     C_R   0.889547 0.169666 0.475217 -0.217247
C24   C     C_R   0.950842 0.248766 0.480432 0.149925
C25   C     C_R   0.205331 0.219683 0.540040 0.325695
C26   C     C_R   0.146312 0.141460 0.535953 -0.151004
C27   C     C_R   0.988267 0.115338 0.504106 -0.016960
C28   C     C_1   0.930628 0.032962 0.501027 0.119332
C29   C     C_1   0.880195 0.964872 0.498240 0.175780
C30   C     C_R   0.106242 0.271460 0.512828 -0.380226
H32   H     H_    0.222118 0.101362 0.558642 0.201854
H33   H     H_    0.645768 0.669439 0.491736 0.210141
H34   H     H_    0.152961 0.331003 0.515219 0.132015
C31   C     C_R   0.620186 0.519898 0.295242 -0.496217
C32   C     C_R   0.461752 0.487372 0.274160 0.156048
C33   C     C_R   0.401635 0.483376 0.202027 0.266671
C34   C     C_R   0.500310 0.515600 0.153709 -0.115118
C35   C     C_R   0.656431 0.550551 0.178118 -0.256279
C36   C     C_R   0.716320 0.552981 0.248455 0.146024
C37   C     C_R   0.456321 0.577755 0.041593 -0.172299
C38   C     C_R   0.405156 0.574145 0.969936 -0.051128
C39   C     C_R   0.347191 0.503574 0.931353 0.177977
C40   C     C_R   0.338656 0.436985 0.966604 -0.159522
C41   C     C_R   0.388693 0.440659 0.038405 -0.021281
C42   C     C_R   0.446328 0.511281 0.077062 0.181505
C43   C     C_R   0.144622 0.460515 0.827538 -0.225421
C44   C     C_R   0.095367 0.451520 0.755663 0.268177
C45   C     C_R   0.347559 0.524684 0.735266 0.022271
C46   C     C_R   0.398682 0.532200 0.807926 0.255147
C47   C     C_R   0.297118 0.498807 0.854441 -0.160866
C48   C     C_R   0.200309 0.480276 0.710228 -0.521353
H35   H     H_    0.411164 0.626623 0.944572 0.149011
H36   H     H_    0.503452 0.632785 0.069210 0.127588
H37   H     H_    0.295405 0.381781 0.938340 0.184203
H38   H     H_    0.383491 0.388136 0.063715 0.170501
H39   H     H_    0.064305 0.437183 0.862636 0.199994
H40   H     H_    0.732920 0.574956 0.142087 0.171568
C49   C     C_2   0.003873 0.215279 0.230881 0.679838
H41   H     H_    0.128270 0.240100 0.235811 0.091693
O25   O     O_2   0.946562 0.176637 0.176826 -0.476160
C50   C     C_2   0.030934 0.696879 0.808250 0.707514
H42   H     H_    0.120431 0.663955 0.832770 -0.049966
O26   O     O_2   0.030112 0.764801 0.828099 -0.496089
C51   C     C_2   0.459338 0.777088 0.627783 0.587824
H43   H     H_    0.379478 0.789369 0.583516 0.067921
O27   O     O_2   0.588944 0.816039 0.642821 -0.539983
N1    N     N_R   0.013315 0.238237 0.683575 0.207373
O28   O     O_R   0.097552 0.293358 0.659950 -0.515016
O29   O     O_R   0.074540 0.173379 0.689440 -0.421537
C52   C     C_2   0.728380 0.112442 0.662629 0.626627
H44   H     H_    0.826491 0.088726 0.638353 0.062863
O30   O     O_2   0.589793 0.086673 0.641421 -0.503427
N2    N     N_R   0.852165 0.150807 0.783790 0.288881
O31   O     O_R   0.868244 0.193950 0.842968 -0.277252
O32   O     O_R   0.903576 0.082984 0.782219 -0.298684
C53   C     C_2   0.827768 0.777590 0.318712 0.584282
H45   H     H_    0.722276 0.808438 0.323049 -0.048254
O33   O     O_2   0.928938 0.779463 0.369086 -0.521072
C54   C     C_2   0.316475 0.240022 0.812562 0.864567
H46   H     H_    0.312101 0.179502 0.794414 0.096416
O34   O     O_2   0.209426 0.262785 0.844908 -0.541078
C55   C     C_2   0.726827 0.144794 0.437912 0.629222
H47   H     H_    0.678405 0.177232 0.397337 0.027768
O35   O     O_2   0.644316 0.088716 0.452356 -0.568321
N3    N     N_R   0.074122 0.854087 0.559875 0.232692
O36   O     O_R   0.102737 0.844779 0.625763 -0.371389
O37   O     O_R   0.175817 0.899200 0.531896 -0.366534
N4    N     N_R   0.555914 0.569175 0.833900 0.236257
O38   O     O_R   0.657476 0.532821 0.870571 -0.380349
O39   O     O_R   0.589956 0.642036 0.829094 -0.419549
N5    N     N_R   0.243962 0.445576 0.177514 0.239745
O40   O     O_R   0.145177 0.477937 0.135723 -0.379735
O41   O     O_R   0.209609 0.373888 0.186971 -0.406410
C56   C     C_2   0.155933 0.461042 0.635433 0.757745
H48   H     H_    0.191348 0.409828 0.609965 0.030992
O42   O     O_2   0.077433 0.502347 0.601579 -0.555826
C57   C     C_2   0.691479 0.513319 0.365917 0.767318
H49   H     H_    0.766058 0.467885 0.375589 0.035578
O43   O     O_2   0.672411 0.561242 0.413077 -0.568816
N6    N     N_R   0.991049 0.858379 0.223181 0.280241
O44   O     O_R   0.139537 0.850255 0.245804 -0.290512
O45   O     O_R   0.943253 0.926859 0.225195 -0.335441
C58   C     C_2   0.838535 0.353803 0.247364 0.551225
H50   H     H_    0.919027 0.399228 0.231437 0.071614
O46   O     O_2   0.707037 0.335491 0.213538 -0.534811

loop_
_geom_bond_atom_site_label_1
_geom_bond_atom_site_label_2
_geom_bond_distance
_ccdc_geom_bond_type
C37   C42   1.407585 A    
N6    O44   1.299770 A    
O3    P6    1.755537 S    
C43   H39   1.083208 S    
C15   H27   1.104472 S    
C55   H47   1.078779 S    
P8    O24   1.761913 S    
C46   C47   1.426809 A    
O8    Ba1   2.748337 S    
C30   H34   1.077760 S    
C52   H44   1.083517 S    
P5    O17   1.782631 S    
C20   C21   1.415076 A    
C51   O27   1.221509 D    
C50   H42   1.085320 S    
P3    O11   1.760463 S    
P2    Ba1   3.420733 S    
C12   H23   1.105976 S    
O4    P6    1.544845 D    
N5    O40   1.301498 A    
C55   O35   1.220610 D    
O11   C2    1.411798 S    
C6    C7    1.530054 S    
C53   O33   1.219515 D    
C56   H48   1.066685 S    
C9    H15   1.107728 S    
O12   Ba2   2.812855 S    
C49   O25   1.221084 D    
C38   C39   1.405455 A    
C11   C51   1.501825 S    
C11   C12   1.524472 S    
C17   C22   1.390989 A    
C3    N6    1.462767 S    
C40   C41   1.402226 A    
C12   H22   1.110332 S    
P1    O1    1.542468 D    
P4    O15   1.759854 S    
C7    C50   1.496636 S    
C13   N1    1.461351 S    
C32   C33   1.426557 A    
C26   H32   1.083214 S    
C45   C46   1.416536 A    
C11   O22   1.399623 S    
Ba1   O16   2.771077 S    
C31   C32   1.399500 A    
C13   H25   1.108812 S    
P2    O10   1.757540 S    
P1    Ba1   3.397308 S    
C4    H6    1.097800 S    
C56   O42   1.213931 D    
C14   H26   1.098959 S    
N4    O39   1.299423 A    
C1    H2    1.108987 S    
C46   N4    1.433198 S    
H31   C21   1.083134 S    
C45   C48   1.412098 A    
O13   Ba2   2.960034 S    
C58   O46   1.221450 D    
C31   C36   1.400583 A    
N6    O45   1.300925 A    
C4    O15   1.399532 S    
C3    H5    1.111566 S    
C3    H24   1.112478 S    
O14   P8    1.756946 S    
C40   H37   1.080921 S    
P4    O13   1.557002 S    
P8    O23   1.548108 D    
O3    Ba1   2.811965 S    
P5    O18   1.544503 D    
C57   O43   1.216415 D    
P1    O5    1.767750 S    
C33   C34   1.429294 A    
C23   C27   1.433294 A    
C49   H41   1.082482 S    
C8    C9    1.520976 S    
C19   C20   1.427311 A    
C48   C56   1.456285 S    
C54   O34   1.219929 D    
Ba2   O20   2.770489 S    
H1    C10   1.110715 S    
C26   C27   1.417675 A    
C21   C22   1.408958 A    
N1    O28   1.290066 A    
P5    O19   1.775016 S    
C33   N5    1.435478 S    
C5    H7    1.108242 S    
Ba1   O20   2.944809 S    
C5    C49   1.502812 S    
Ba1   O13   2.806610 S    
C16   H30   1.107312 S    
C12   H21   1.111337 S    
P1    O2    1.557024 S    
C8    H13   1.091759 S    
C7    H12   1.109137 S    
C24   C30   1.391234 A    
C6    H9    1.100362 S    
C31   C57   1.453053 S    
P8    C25   1.863021 S    
C20   C29   1.475255 S    
C18   C19   1.429465 A    
C39   C40   1.406604 A    
O17   Ba2   2.748964 S    
C15   C16   1.533137 S    
P6    C22   1.853810 S    
C1    H19   1.105368 S    
P3    C36   1.858259 S    
C1    H3    1.109910 S    
C39   C47   1.495651 S    
N2    O32   1.302523 A    
C9    H17   1.109035 S    
N1    O29   1.301261 A    
P2    O20   1.552997 S    
C13   C14   1.556872 S    
C58   H50   1.083406 S    
P2    O7    1.519203 D    
C14   N2    1.468893 S    
P3    O8    1.760413 S    
C38   H35   1.082676 S    
C14   C52   1.513721 S    
C15   O24   1.415577 S    
N3    O37   1.301228 A    
C37   H36   1.080668 S    
C34   C42   1.497301 S    
C5    H8    1.112929 S    
P4    O12   1.542735 D    
O6    P6    1.750558 S    
C44   C48   1.398160 A    
C57   H49   1.075674 S    
C37   C38   1.401510 A    
C52   O30   1.220989 D    
C10   H18   1.111697 S    
O2    Ba1   2.959177 S    
C50   O26   1.220536 D    
P7    C45   1.879581 S    
C43   C44   1.398762 A    
C8    H14   1.100880 S    
H29   C16   1.111936 S    
C54   H46   1.084919 S    
C25   C30   1.389093 A    
C43   C47   1.412304 A    
O2    Ba2   2.807222 S    
P1    C18   1.870538 S    
C28   C29   1.225878 T    
O14   Ba2   2.811440 S    
C16   C54   1.496979 S    
P4    C24   1.876113 S    
C7    H11   1.108584 S    
C2    H4    1.106013 S    
N5    O41   1.299464 A    
C51   H43   1.081348 S    
C6    H10   1.098283 S    
C41   C42   1.406192 A    
P7    O21   1.570376 D    
C9    H16   1.109533 S    
Ba1   Ba2   4.561287 S    
C25   C26   1.409324 A    
C27   C28   1.476732 S    
C17   H33   1.076375 S    
C23   C55   1.482659 S    
O19   C13   1.417196 S    
C4    C5    1.541482 S    
C34   C35   1.407334 A    
C11   H20   1.100766 S    
P2    C32   1.882328 S    
O16   P7    1.773354 S    
N2    O31   1.301023 A    
C4    C58   1.505966 S    
O16   Ba2   2.943952 S    
O5    C6    1.401354 S    
C23   C24   1.427320 A    
C2    C53   1.501700 S    
C17   C18   1.392553 A    
P3    O9    1.539248 D    
P4    Ba2   3.397792 S    
C35   C36   1.395824 A    
C15   H28   1.100248 S    
N3    O36   1.299816 A    
O1    Ba1   2.812359 S    
C1    C10   1.517652 S    
O10   C8    1.401420 S    
O6    C10   1.405941 S    
O7    Ba1   2.837208 S    
N4    O38   1.301146 A    
C53   H45   1.084104 S    
C35   H40   1.083429 S    
Ba2   O21   2.837461 S    
P5    C44   1.868197 S    
C41   H38   1.082758 S    
P7    O22   1.753309 S    
C2    C3    1.539854 S    
C19   N3    1.435061 S    
