data_mof_unit_58568.cif
_audit_creation_date              2012-12-11T18:13:25-0500
_audit_creation_method            fapswitch 2.2
_symmetry_space_group_name_H-M    P1
_symmetry_Int_Tables_number       1
_space_group_crystal_system       triclinic
_cell_length_a                    8.192087
_cell_length_b                    12.669398
_cell_length_c                    18.695238
_cell_angle_alpha                 99.703152
_cell_angle_beta                  91.119833
_cell_angle_gamma                 98.655154
_cell_volume                      1888.80861025

loop_
_atom_site_label
_atom_site_type_symbol
_atom_type_description
_atom_site_fract_x
_atom_site_fract_y
_atom_site_fract_z
_atom_type_partial_charge
Ba1   Ba    Ba6+2 0.852780 0.548340 0.465070 1.637359
Ba2   Ba    Ba6+2 0.337060 0.451750 0.534940 1.646473
C1    C     C_3   0.595550 0.899555 0.245858 -0.356506
C2    C     C_R   0.892602 0.392729 0.094800 0.034353
C3    C     C_R   0.729945 0.345549 0.071627 -0.082396
C4    C     C_3   0.117860 0.756508 0.264881 0.419135
C5    C     C_R   0.668048 0.351637 0.002416 -0.088807
C6    C     C_R   0.768567 0.403187 0.954465 0.033423
C7    C     C_R   0.931864 0.451047 0.976996 0.012995
C8    C     C_R   0.708679 0.405778 0.884113 -0.113355
C9    C     C_R   0.811257 0.452156 0.834046 -0.042629
C10   C     C_R   0.974492 0.502947 0.856958 0.001584
C11   C     C_R   0.033575 0.502652 0.928884 -0.006949
C12   C     C_3   0.631008 0.819391 0.293827 0.295685
C13   C     C_R   0.757148 0.446866 0.761149 -0.007125
C14   C     C_R   0.865991 0.487618 0.711956 -0.296912
C15   C     C_R   0.023931 0.543755 0.733979 0.038489
C16   C     C_3   0.089002 0.775855 0.187612 0.313322
C17   C     C_R   0.079034 0.553372 0.808151 -0.045892
C18   C     C_R   0.155669 0.495709 0.071037 -0.005826
C19   C     C_R   0.214722 0.495777 0.142990 -0.006886
C20   C     C_R   0.110730 0.444845 0.191642 -0.052692
C21   C     C_R   0.954285 0.388066 0.164699 -0.048400
C22   C     C_R   0.236232 0.609195 0.834983 -0.037357
C23   C     C_3   0.422016 0.215500 0.305009 0.736519
C24   C     C_R   0.297420 0.604411 0.904934 0.024507
C25   C     C_R   0.196030 0.551195 0.952169 0.002767
C26   C     C_R   0.257358 0.547216 0.022948 0.013162
C27   C     C_R   0.460573 0.650279 0.927922 -0.078651
C28   C     C_3   0.235470 0.787601 0.620115 0.306356
C29   C     C_R   0.521913 0.645296 0.997334 -0.094402
C30   C     C_R   0.420674 0.595058 0.045517 0.030477
C31   C     C_R   0.377341 0.547509 0.166125 -0.038997
C32   C     C_R   0.480073 0.593534 0.116055 -0.101870
C33   C     C_R   0.430906 0.553637 0.239157 0.005480
C34   C     C_3   0.525989 0.309898 0.278155 -0.257340
C35   C     C_R   0.322357 0.512286 0.288203 -0.288398
C36   C     C_R   0.165722 0.454769 0.265784 0.035250
C37   C     C_R   0.759935 0.185003 0.536333 -0.277077
C38   C     C_R   0.430481 0.807534 0.469436 -0.293320
C39   C     C_R   0.400536 0.985806 0.448523 -0.088930
C40   C     C_3   0.255039 0.910360 0.637326 -0.340080
C41   C     C_R   0.338419 0.876458 0.441744 -0.015404
C42   C     C_R   0.578699 0.848537 0.509788 0.072364
C43   C     C_R   0.641131 0.961356 0.520148 -0.062520
C44   C     C_R   0.550931 0.030247 0.488001 -0.063956
C45   C     C_3   0.063492 0.239236 0.737222 0.368396
C46   C     C_R   0.612666 0.142061 0.496533 0.063306
C47   C     C_R   0.853906 0.117859 0.564757 -0.018170
C48   C     C_R   0.792439 0.007396 0.559423 -0.096952
C49   C     C_3   0.958794 0.216315 0.385173 0.270863
C50   C     C_3   0.925429 0.093301 0.369952 -0.383496
C51   C     C_3   0.733002 0.712265 0.684442 0.287760
C52   C     C_3   0.794959 0.760584 0.762797 -0.191083
C53   C     C_2   0.678900 0.826653 0.805026 0.859275
C54   C     C_3   0.221940 0.144524 0.210542 0.207004
C55   C     C_3   0.200158 0.864751 0.097946 0.154094
C56   C     C_3   0.082642 0.214542 0.813522 -0.359553
C57   C     C_3   0.558969 0.179592 0.705059 0.328940
C58   C     C_3   0.610768 0.104039 0.753432 -0.388513
C59   C     C_R   0.993354 0.446825 0.047716 0.003726
H1    H     H_    0.713006 0.862679 0.341043 0.074586
H2    H     H_    0.832598 0.674120 0.656330 -0.012539
H3    H     H_    0.622622 0.649837 0.684756 0.060078
H4    H     H_    0.529334 0.961668 0.276584 0.158844
H5    H     H_    0.915455 0.813687 0.761407 0.083840
H6    H     H_    0.815549 0.694584 0.792423 -0.026761
H7    H     H_    0.511716 0.785787 0.314698 -0.038936
H8    H     H_    0.518045 0.855964 0.197493 0.163098
H9    H     H_    0.314084 0.242671 0.333936 -0.058122
H10   H     H_    0.641484 0.283925 0.256805 0.120922
H11   H     H_    0.460351 0.335405 0.233234 0.005464
H12   H     H_    0.348245 0.941130 0.682618 0.140435
H13   H     H_    0.556043 0.379484 0.323371 0.082572
H14   H     H_    0.712777 0.939602 0.226898 0.110475
H15   H     H_    0.140128 0.318507 0.734737 0.090113
H16   H     H_    0.931826 0.244881 0.726641 -0.081472
H17   H     H_    0.214582 0.213226 0.827436 0.149876
H18   H     H_    0.037432 0.277586 0.853402 0.068497
H19   H     H_    0.009631 0.134432 0.817041 0.124996
H20   H     H_    0.671020 0.214127 0.679444 -0.051593
H21   H     H_    0.471731 0.132072 0.660990 0.076586
H22   H     H_    0.701246 0.150448 0.796620 0.110629
H23   H     H_    0.296253 0.945729 0.589333 0.073316
H24   H     H_    0.668696 0.039287 0.720589 0.103649
H25   H     H_    0.029749 0.684215 0.272523 0.035290
H26   H     H_    0.501625 0.066458 0.779577 0.150817
H27   H     H_    0.649861 0.304771 0.107342 0.069522
H28   H     H_    0.541798 0.314892 0.986084 0.070910
H29   H     H_    0.824196 0.479572 0.655778 0.071401
H30   H     H_    0.582396 0.369186 0.868765 0.107983
H31   H     H_    0.876781 0.342229 0.198210 0.091030
H32   H     H_    0.315302 0.654005 0.801321 0.133416
H33   H     H_    0.541732 0.688792 0.891847 0.091514
H34   H     H_    0.135146 0.935872 0.653305 0.134655
H35   H     H_    0.648475 0.681505 0.013505 0.078748
H36   H     H_    0.606159 0.630503 0.131468 0.101121
H37   H     H_    0.245785 0.739561 0.271171 -0.089714
H38   H     H_    0.363963 0.520183 0.344404 0.074829
H39   H     H_    0.325867 0.035015 0.424548 0.110198
H40   H     H_    0.867276 0.958908 0.583953 0.105206
H41   H     H_    0.808256 0.270214 0.540167 0.062891
H42   H     H_    0.381002 0.722221 0.463553 0.070179
H43   H     H_    0.092055 0.698072 0.150105 -0.057481
H44   H     H_    0.964805 0.799758 0.182091 0.067512
H45   H     H_    0.848525 0.248032 0.406997 0.022922
H46   H     H_    0.355092 0.763028 0.604519 0.010906
H47   H     H_    0.142223 0.758829 0.574475 0.061692
H48   H     H_    0.644111 0.926193 0.897704 0.302533
H49   H     H_    0.220068 0.106988 0.152458 0.056820
H50   H     H_    0.205531 0.230369 0.212189 -0.033429
H51   H     H_    0.116611 0.100417 0.235147 0.093220
H52   H     H_    0.077922 0.884872 0.082714 0.029006
H53   H     H_    0.222866 0.788227 0.063473 0.041032
H54   H     H_    0.296940 0.930479 0.086866 0.079459
H55   H     H_    0.062545 0.242137 0.426111 0.089526
H56   H     H_    0.820604 0.065567 0.329639 0.124300
H57   H     H_    0.893966 0.061153 0.420105 0.090792
H58   H     H_    0.036946 0.060881 0.348888 0.145374
O1    O     O_2   0.873090 0.425890 0.325140 -0.460571
O2    O     O_2   0.192117 0.120372 0.551671 -0.483651
O3    O     O_3   0.115635 0.156553 0.687216 -0.593576
O4    O     O_3   0.122420 0.434370 0.414380 -0.494293
O5    O     O_3   0.578370 0.633800 0.536380 -0.486710
O6    O     O_2   0.341510 0.231850 0.465510 -0.487123
O7    O     O_3   0.524784 0.173319 0.350376 -0.661941
O8    O     O_2   0.417378 0.455147 0.756745 -0.500185
O9    O     O_3   0.478329 0.257603 0.746927 -0.592829
O10   O     O_3   0.659500 0.627100 0.368810 -0.469703
O11   O     O_2   0.769215 0.542723 0.243001 -0.498096
O12   O     O_3   0.693151 0.795689 0.650278 -0.631407
O13   O     O_3   0.996085 0.253232 0.320101 -0.655826
O14   O     O_3   0.712242 0.740951 0.252921 -0.614119
O15   O     O_2   0.848200 0.768190 0.534530 -0.474013
O16   O     O_3   0.081160 0.685950 0.404810 -0.489883
O17   O     O_2   0.000439 0.879897 0.448889 -0.485057
O18   O     O_2   0.540337 0.828931 0.780272 -0.615097
O19   O     O_R   0.731432 0.885034 0.873904 -0.770017
O20   O     O_3   0.371960 0.132362 0.244367 -0.637249
O21   O     O_3   0.212268 0.858481 0.172390 -0.634775
O22   O     O_3   0.091797 0.847831 0.314914 -0.602635
O23   O     O_2   0.316610 0.574140 0.674900 -0.462024
O24   O     O_3   0.067290 0.565720 0.585630 -0.500338
O25   O     O_3   0.530210 0.372990 0.631200 -0.464778
O26   O     O_3   0.186576 0.746978 0.682601 -0.617333
O27   O     O_3   0.611340 0.366290 0.463630 -0.477895
O28   O     O_3   0.108550 0.314140 0.595200 -0.483977
P1    P     P_3+3 0.041040 0.394770 0.336330 0.961506
P2    P     P_3+3 0.672880 0.754030 0.556100 0.982124
P3    P     P_3+3 0.128411 0.823954 0.403097 0.952531
P4    P     P_3+3 0.148670 0.605320 0.663680 0.987997
P5    P     P_3+3 0.066557 0.175803 0.599284 0.953380
P6    P     P_3+3 0.642057 0.613795 0.274919 0.942515
P7    P     P_3+3 0.523818 0.229365 0.443128 0.917543
P8    P     P_3+3 0.546442 0.385472 0.725147 0.952157

loop_
_geom_bond_atom_site_label_1
_geom_bond_atom_site_label_2
_ccdc_geom_bond_type
O5    P2    S    
C14   H29   S    
C28   H46   S    
Ba2   O25   S    
C57   H21   S    
C5    C6    A    
C55   H54   S    
C1    H4    S    
Ba2   O4    S    
C42   C43   A    
O4    P1    S    
C24   C25   A    
C53   O19   S    
C37   H41   S    
C7    C59   A    
C4    H37   S    
C1    H8    S    
C22   C24   A    
C45   H15   S    
Ba1   O10   S    
C27   H33   S    
C31   C33   A    
C58   H22   S    
C19   C31   A    
C29   H35   S    
C12   H1    S    
C32   H36   S    
Ba1   Ba2   S    
C18   C59   A    
C7    C11   A    
O9    P8    S    
C49   H55   S    
C3    H27   S    
C9    C13   A    
C38   C41   A    
C6    C7    A    
C39   C44   A    
Ba1   P2    S    
C51   O12   S    
C1    H14   S    
C54   H50   S    
C13   P8    S    
C34   H10   S    
C56   H19   S    
C28   H47   S    
C50   H56   S    
O24   P4    S    
C57   C58   S    
C19   C20   A    
Ba2   O24   S    
C39   C41   A    
Ba1   O27   S    
C15   P4    S    
C54   H49   S    
C58   H26   S    
O22   P3    S    
C4    C16   S    
C44   C46   A    
C13   C14   A    
C49   C50   S    
O13   P1    S    
C33   P6    S    
C26   C30   A    
C40   H23   S    
O8    P8    D    
C3    C5    A    
C2    C21   A    
C51   H3    S    
C14   C15   A    
C45   O3    S    
C55   H52   S    
C52   H6    S    
C18   C26   A    
Ba2   O28   S    
C43   C44   A    
O15   P2    D    
C2    C59   A    
C50   H58   S    
C40   H34   S    
C55   O21   S    
H48   O19   S    
Ba1   O1    S    
O3    P5    S    
O23   P4    D    
C23   O7    S    
Ba1   O4    S    
C35   C36   A    
Ba1   O24   S    
C29   C30   A    
O27   P7    S    
C58   H24   S    
C31   C32   A    
C39   H39   S    
C16   H43   S    
C10   C11   A    
C4    O22   S    
C16   O21   S    
C1    C12   S    
C36   P1    S    
O26   P4    S    
C41   P3    S    
C34   H13   S    
C56   H18   S    
C48   H40   S    
O7    P7    S    
C37   C47   A    
C8    H30   S    
O1    P1    D    
Ba2   O23   S    
O14   P6    S    
O12   P2    S    
C45   H16   S    
Ba1   O15   S    
C35   H38   S    
O6    P7    D    
C33   C35   A    
C28   O26   S    
Ba2   P4    S    
C54   O20   S    
C46   P7    S    
C52   C53   S    
C40   H12   S    
C47   P5    S    
C23   O20   S    
C21   H31   S    
C28   C40   S    
C57   H20   S    
C2    C3    A    
C4    H25   S    
O17   P3    D    
C49   O13   S    
C51   C52   S    
C55   H53   S    
C52   H5    S    
C12   O14   S    
Ba2   O5    S    
Ba2   O27   S    
O16   P3    S    
C42   P2    S    
C53   O18   D    
O2    P5    D    
O25   P8    S    
C17   C22   A    
C57   O9    S    
C16   H44   S    
C27   C29   A    
C22   H32   S    
C45   C56   S    
O10   P6    S    
C51   H2    S    
C30   C32   A    
C43   C48   A    
C49   H45   S    
C10   C17   A    
C15   C17   A    
O28   P5    S    
O11   P6    D    
Ba1   O5    S    
C8    C9    A    
C56   H17   S    
C23   C34   S    
Ba2   O6    S    
C38   C42   A    
C18   C19   A    
C24   C27   A    
C6    C8    A    
C47   C48   A    
C25   C26   A    
C12   H7    S    
C20   C21   A    
C11   C25   A    
Ba1   P1    S    
C23   H9    S    
Ba1   O16   S    
C54   H51   S    
C34   H11   S    
C9    C10   A    
C50   H57   S    
C37   C46   A    
C38   H42   S    
C20   C36   A    
C5    H28   S    
