data_mof_unit_8203.cif
_audit_creation_date              2012-12-10T18:59:18-0500
_audit_creation_method            fapswitch 2.2
_symmetry_space_group_name_H-M    P1
_symmetry_Int_Tables_number       1
_space_group_crystal_system       triclinic
_cell_length_a                    9.850524
_cell_length_b                    10.701902
_cell_length_c                    16.93173
_cell_angle_alpha                 88.717599
_cell_angle_beta                  93.646468
_cell_angle_gamma                 90.076409
_cell_volume                      1780.8720338

loop_
_atom_site_label
_atom_site_type_symbol
_atom_type_description
_atom_site_fract_x
_atom_site_fract_y
_atom_site_fract_z
_atom_type_partial_charge
C1    C     C_R   0.500244 0.260152 0.498972 0.900250
C2    C     C_R   0.077661 0.438079 0.559260 0.290283
C3    C     C_R   0.516895 0.495982 0.653075 0.900150
C4    C     C_R   0.483091 0.501412 0.346887 0.900441
C5    C     C_R   0.525587 0.479600 0.738427 -0.086462
C6    C     C_R   0.473791 0.499220 0.261119 -0.069913
C7    C     C_R   0.405930 0.476418 0.778409 -0.239479
C8    C     C_R   0.592561 0.488710 0.221019 -0.239393
C9    C     C_R   0.411946 0.456519 0.859131 -0.247733
C10   C     C_R   0.584737 0.482421 0.139774 -0.261024
C11   C     C_R   0.538849 0.442031 0.901717 0.237167
C12   C     C_R   0.499754 0.739858 0.501055 0.903027
C13   C     C_R   0.457239 0.486444 0.097174 0.259880
C14   C     C_R   0.658749 0.437513 0.861587 0.473059
C15   C     C_R   0.337027 0.501992 0.135996 0.490382
C16   C     C_R   0.651876 0.459984 0.779823 -0.336909
C17   C     C_R   0.346454 0.505179 0.219194 -0.371252
C18   C     C_R   0.401713 0.065006 0.538809 -0.309175
C19   C     C_R   0.598268 0.935052 0.461261 -0.308110
C20   C     C_3   0.843619 0.310904 0.885549 0.064645
C21   C     C_3   0.975740 0.293432 0.936146 -0.781631
C22   C     C_3   0.109001 0.567859 0.125463 0.057524
C23   C     C_R   0.398067 0.936494 0.539818 0.217759
C24   C     C_3   0.996669 0.601856 0.062908 -0.766722
C25   C     C_3   0.164095 0.870784 0.541689 -0.734342
C26   C     C_3   0.835843 0.129401 0.458329 -0.736475
C27   C     C_3   0.904198 0.668507 0.308173 -0.912894
C28   C     C_3   0.092577 0.321796 0.689010 -0.916718
C29   C     C_R   0.601909 0.063553 0.460242 0.218588
C30   C     C_R   0.498199 0.872256 0.501162 -0.094157
C31   C     C_R   0.501790 0.127780 0.498900 -0.093028
C32   C     C_R   0.066861 0.560899 0.441515 -0.170393
C33   C     C_R   0.932952 0.439221 0.558497 -0.163717
C34   C     C_R   0.922120 0.561576 0.440706 0.288265
H1    H     H_    0.691776 0.483564 0.252336 0.202312
H2    H     H_    0.879443 0.390701 0.603682 0.160080
H3    H     H_    0.868534 0.309806 0.822392 0.139454
H4    H     H_    0.775223 0.230771 0.898092 0.142862
H5    H     H_    0.954739 0.289537 0.999826 0.256667
H6    H     H_    0.025213 0.204709 0.920971 0.204714
H7    H     H_    0.046197 0.372191 0.925183 0.267312
H8    H     H_    0.145773 0.656185 0.153246 0.143838
H9    H     H_    0.064468 0.505003 0.170115 0.145556
H10   H     H_    0.952747 0.515981 0.036156 0.284145
H11   H     H_    0.914638 0.653216 0.090488 0.201815
H12   H     H_    0.307374 0.490971 0.747628 0.208137
H13   H     H_    0.037875 0.662066 0.015807 0.259266
H14   H     H_    0.294157 0.902530 0.639713 0.217248
H15   H     H_    0.120381 0.966576 0.537239 0.217120
H16   H     H_    0.095799 0.809617 0.575160 0.235237
H17   H     H_    0.169315 0.833250 0.481294 0.249908
H18   H     H_    0.705781 0.097499 0.360319 0.217521
H19   H     H_    0.879647 0.033647 0.462802 0.217301
H20   H     H_    0.830604 0.166962 0.518717 0.249532
H21   H     H_    0.904072 0.190607 0.424838 0.234747
H22   H     H_    0.773931 0.688856 0.399369 0.255838
H23   H     H_    0.678757 0.474639 0.110359 0.185650
H24   H     H_    0.823513 0.701690 0.263893 0.256637
H25   H     H_    0.958407 0.589987 0.282265 0.242006
H26   H     H_    0.975100 0.747286 0.321149 0.239873
H27   H     H_    0.230316 0.315384 0.600947 0.260798
H28   H     H_    0.171870 0.284571 0.732827 0.256841
H29   H     H_    0.023300 0.243791 0.671494 0.238435
H30   H     H_    0.036218 0.396246 0.717838 0.255826
H31   H     H_    0.317296 0.456032 0.888401 0.188453
H32   H     H_    0.744981 0.463178 0.749080 0.169066
H33   H     H_    0.255792 0.510936 0.251709 0.154899
H34   H     H_    0.326774 0.115538 0.569733 0.156895
H35   H     H_    0.673187 0.884567 0.430322 0.155492
H36   H     H_    0.119990 0.609838 0.396318 0.160970
N1    N     N_2   0.549704 0.439548 0.985045 -0.166712
N2    N     N_2   0.446402 0.480886 0.014156 -0.155496
N3    N     N_R   0.857210 0.499970 0.500020 -0.128760
N4    N     N_R   0.142790 0.500030 0.499980 -0.129024
N5    N     N_2   0.297856 0.872625 0.582385 -0.285965
N6    N     N_2   0.702077 0.127429 0.417641 -0.286125
N7    N     N_2   0.842648 0.626770 0.379536 -0.270848
N8    N     N_2   0.156650 0.372457 0.620571 -0.276361
O1    O     O_R   0.614620 0.316750 0.500010 -0.592115
O2    O     O_3   0.214412 0.505061 0.089617 -0.610964
O3    O     O_R   0.385380 0.683250 0.499990 -0.590688
O4    O     O_R   0.385290 0.316780 0.500000 -0.650627
O5    O     O_R   0.614710 0.683220 0.500000 -0.648349
O6    O     O_R   0.627460 0.498830 0.616130 -0.631095
O7    O     O_R   0.372540 0.501170 0.383870 -0.631414
O8    O     O_R   0.398130 0.498850 0.616130 -0.610460
O9    O     O_R   0.601870 0.501150 0.383870 -0.607689
O10   O     O_3   0.783056 0.425347 0.904068 -0.614605
Zn1   Zn    Zn3+2 0.653130 0.499980 0.500000 0.947028
Zn2   Zn    Zn3+2 0.346870 0.500020 0.500000 0.945928

loop_
_geom_bond_atom_site_label_1
_geom_bond_atom_site_label_2
_ccdc_geom_bond_type
C26   H21   S    
C29   N6    S    
C24   H11   S    
C27   H26   S    
C34   N7    S    
C32   N4    A    
C11   C14   A    
C11   N1    S    
C18   H34   S    
C1    C31   S    
C33   H2    S    
C7    C9    A    
C25   H16   S    
C5    C16   A    
C15   O2    S    
C26   N6    S    
C28   N8    S    
C23   C30   A    
C2    N4    A    
C3    O8    A    
H14   N5    S    
C26   H20   S    
C25   H15   S    
O5    Zn1   S    
C17   H33   S    
C18   C23   A    
C7    H12   S    
C10   H23   S    
C4    C6    S    
O8    Zn2   S    
C5    C7    A    
C32   H36   S    
C4    O7    A    
C14   O10   S    
C27   N7    S    
C1    O4    A    
C27   H24   S    
H22   N7    S    
C12   O5    A    
C4    O9    A    
C25   N5    S    
C8    H1    S    
C32   C34   A    
C25   H17   S    
C2    N8    S    
C20   H4    S    
C22   H9    S    
C21   H5    S    
H27   N8    S    
C9    C11   A    
C21   H7    S    
O3    Zn2   S    
C28   H30   S    
C2    C33   A    
C33   N3    A    
C13   C15   A    
H18   N6    S    
C24   H10   S    
C14   C16   A    
C19   H35   S    
C16   H32   S    
O6    Zn1   S    
C19   C29   A    
C26   H19   S    
C15   C17   A    
C6    C17   A    
C12   C30   S    
C24   H13   S    
C23   N5    S    
C3    C5    S    
C10   C13   A    
C6    C8    A    
O7    Zn2   S    
C13   N2    S    
O4    Zn2   S    
N4    Zn2   S    
O9    Zn1   S    
N3    Zn1   S    
N1    N2    D    
C29   C31   A    
C27   H25   S    
C20   H3    S    
C22   H8    S    
C21   H6    S    
C1    O1    A    
C20   O10   S    
C12   O3    A    
C22   C24   S    
C9    H31   S    
O1    Zn1   S    
C34   N3    A    
C22   O2    S    
C28   H29   S    
C20   C21   S    
C8    C10   A    
C3    O6    A    
C18   C31   A    
C19   C30   A    
C28   H28   S    
