data_mof_unit_19933.cif
_audit_creation_date              2012-12-11T15:27:21-0500
_audit_creation_method            fapswitch 2.2
_symmetry_space_group_name_H-M    P1
_symmetry_Int_Tables_number       1
_space_group_crystal_system       triclinic
_cell_length_a                    13.904021
_cell_length_b                    13.939256
_cell_length_c                    27.369804
_cell_angle_alpha                 90.012605
_cell_angle_beta                  89.856947
_cell_angle_gamma                 120.040922
_cell_volume                      4591.99530182

loop_
_atom_site_label
_atom_site_type_symbol
_atom_type_description
_atom_site_fract_x
_atom_site_fract_y
_atom_site_fract_z
_atom_type_partial_charge
C1    C     C_R   0.233676 0.787465 0.568312 0.545751
C2    C     C_1   0.706633 0.864101 0.859027 -0.070990
C3    C     C_1   0.114155 0.882651 0.851041 -0.073505
C4    C     C_1   0.154922 0.295596 0.859296 -0.071785
C5    C     C_1   0.630986 0.818645 0.657922 0.008087
C6    C     C_1   0.176777 0.818719 0.655439 0.006462
C7    C     C_1   0.185447 0.372154 0.658399 0.008732
C8    C     C_1   0.602771 0.798413 0.615885 0.052746
C9    C     C_1   0.199053 0.806473 0.614424 0.051253
C10   C     C_1   0.194828 0.398897 0.616159 0.053271
C11   C     C_R   0.107579 0.220970 0.949193 0.563681
C12   C     C_R   0.212408 0.446734 0.568620 0.545057
C13   C     C_R   0.779486 0.886856 0.949077 0.560877
C14   C     C_R   0.091391 0.929598 0.941820 0.565215
C15   C     C_R   0.622997 0.810716 0.387213 0.009982
C16   C     C_R   0.199738 0.798194 0.381986 0.015777
C17   C     C_R   0.185018 0.379639 0.386664 0.017508
C18   C     C_R   0.633289 0.905652 0.364404 -0.104771
C19   C     C_R   0.133664 0.701089 0.355091 -0.108154
C20   C     C_R   0.233757 0.315506 0.375054 -0.108612
C21   C     C_R   0.680176 0.936940 0.317766 0.010292
C22   C     C_R   0.124032 0.704758 0.304733 0.004573
C23   C     C_R   0.553314 0.765951 0.568616 0.545035
C24   C     C_R   0.208374 0.256811 0.330691 0.014019
C25   C     C_R   0.718329 0.872003 0.294073 0.043475
C26   C     C_R   0.173528 0.809009 0.281469 0.048541
C27   C     C_R   0.138977 0.269596 0.296421 0.051190
C28   C     C_R   0.234078 0.786425 0.430888 0.537936
C29   C     C_R   0.212003 0.445694 0.431407 0.537160
C30   C     C_R   0.554709 0.766819 0.431447 0.539752
C31   C     C_R   0.715719 0.782484 0.318601 -0.133750
C32   C     C_R   0.234605 0.906516 0.308754 -0.140493
C33   C     C_R   0.089816 0.332685 0.309340 -0.139007
C34   C     C_3   0.633594 0.728446 0.790102 -0.108532
C35   C     C_R   0.668213 0.751817 0.364732 -0.130700
C36   C     C_R   0.249056 0.901191 0.358677 -0.137927
C37   C     C_R   0.110462 0.384611 0.354068 -0.132635
C38   C     C_R   0.857832 0.905368 0.229715 -0.116036
C39   C     C_R   0.253992 0.883183 0.199992 -0.124927
C40   C     C_R   0.015101 0.185812 0.224887 -0.116925
C41   C     C_R   0.887143 0.912435 0.180663 -0.157527
C42   C     C_R   0.240182 0.901203 0.151315 -0.126676
C43   C     C_R   0.000165 0.167164 0.175057 -0.129521
C44   C     C_R   0.707723 0.887188 0.157276 -0.109517
C45   C     C_3   0.257157 0.929750 0.785740 -0.107447
C46   C     C_R   0.040536 0.781148 0.159857 -0.144239
C47   C     C_R   0.192986 0.216427 0.166462 -0.121691
C48   C     C_R   0.677692 0.878484 0.206287 -0.124383
C49   C     C_R   0.053915 0.767423 0.208938 -0.132414
C50   C     C_R   0.209664 0.242098 0.216134 -0.124380
C51   C     C_R   0.753301 0.889430 0.242737 0.027662
C52   C     C_R   0.160572 0.818702 0.229201 0.031906
C53   C     C_R   0.120445 0.226527 0.245880 0.029888
C54   C     C_R   0.812714 0.904327 0.144433 0.016816
C55   C     C_R   0.133047 0.852960 0.131604 0.022584
C56   C     C_3   0.098270 0.377918 0.791241 -0.108549
C57   C     C_R   0.088356 0.181150 0.145520 0.015205
C58   C     C_R   0.067331 0.154795 0.093531 0.537236
C59   C     C_R   0.845615 0.912495 0.093488 0.529045
C60   C     C_R   0.115772 0.892896 0.085435 0.548387
C61   C     C_3   0.585330 0.884779 0.735447 0.173824
C62   C     C_3   0.100025 0.719378 0.735098 0.174277
C63   C     C_3   0.296671 0.414426 0.735478 0.174086
C64   C     C_3   0.777696 0.905898 0.722118 -0.208195
C65   C     C_3   0.089423 0.892180 0.711759 -0.207248
C66   C     C_3   0.119440 0.226155 0.722614 -0.213634
C67   C     C_3   0.611341 0.718396 0.734078 -0.226422
C68   C     C_3   0.795013 0.926297 0.777883 -0.215206
C69   C     C_3   0.064199 0.899841 0.766139 -0.221187
C70   C     C_3   0.117925 0.207281 0.778354 -0.219587
C71   C     C_1   0.733734 0.873308 0.901221 -0.024403
C72   C     C_1   0.102981 0.902315 0.892735 -0.019297
C73   C     C_1   0.139035 0.267502 0.901419 -0.026057
C74   C     C_3   0.652068 0.834082 0.710786 0.029412
C75   C     C_3   0.157639 0.832611 0.706864 0.029148
C76   C     C_3   0.178745 0.351879 0.711249 0.032826
C77   C     C_3   0.602601 0.891783 0.791950 -0.196574
C78   C     C_3   0.272079 0.907473 0.731272 -0.228119
C79   C     C_3   0.086892 0.739541 0.790174 -0.195285
C80   C     C_3   0.286905 0.392208 0.791538 -0.197525
C81   C     C_3   0.684953 0.852283 0.806173 0.038956
C82   C     C_3   0.130914 0.864475 0.799628 0.037246
C83   C     C_3   0.163524 0.318147 0.806549 0.040403
C84   C     C_3   0.704732 0.676454 0.804519 -0.375497
C85   C     C_3   0.313310 0.055202 0.795615 -0.376399
C86   C     C_3   0.975419 0.315843 0.807434 -0.379995
C87   C     C_3   0.687948 0.038450 0.294289 -0.400969
C88   C     C_3   0.069374 0.595905 0.277560 -0.417013
C89   C     C_3   0.108053 0.397682 0.734890 -0.230764
C90   C     C_3   0.252811 0.179338 0.322574 -0.417870
Cr1   Cr    Cr6+3 0.164410 0.584450 0.499910 1.041420
Cr2   Cr    Cr6+3 0.415550 0.579960 0.499910 1.044856
Cr3   Cr    Cr6+3 0.420040 0.835590 0.499910 1.043312
Cr4   Cr    Cr6+3 0.156760 0.076070 0.017830 1.009415
Cr5   Cr    Cr6+3 0.923930 0.080690 0.017830 1.015593
Cr6   Cr    Cr6+3 0.919310 0.843240 0.017830 1.016472
H1    H     H_    0.634278 0.977722 0.805487 0.180174
H2    H     H_    0.600107 0.952679 0.381925 0.132406
H3    H     H_    0.097277 0.620519 0.372476 0.134122
H4    H     H_    0.289299 0.309167 0.400882 0.119847
H5    H     H_    0.916408 0.912358 0.257483 0.120562
H6    H     H_    0.336845 0.922583 0.215336 0.105000
H7    H     H_    0.944894 0.172559 0.246844 0.105071
H8    H     H_    0.969134 0.927942 0.170961 0.102262
H9    H     H_    0.312322 0.956691 0.129730 0.123251
H10   H     H_    0.918725 0.139566 0.159663 0.125528
H11   H     H_    0.594597 0.860453 0.215718 0.112157
H12   H     H_    0.998562 0.690541 0.802070 0.176866
H13   H     H_    0.980994 0.718911 0.231408 0.116797
H14   H     H_    0.292719 0.277292 0.230843 0.114966
H15   H     H_    0.648783 0.878751 0.129414 0.131739
H16   H     H_    0.957122 0.743617 0.145219 0.130324
H17   H     H_    0.262528 0.227815 0.144268 0.131624
H18   H     H_    0.745397 0.732608 0.300888 0.111563
H19   H     H_    0.273519 0.986735 0.291034 0.104752
H20   H     H_    0.037270 0.345202 0.284072 0.104076
H21   H     H_    0.662468 0.678998 0.381768 0.137308
H22   H     H_    0.301463 0.976774 0.378664 0.125019
H23   H     H_    0.334627 0.351299 0.802728 0.177071
H24   H     H_    0.071176 0.433025 0.362186 0.124488
H25   H     H_    0.822019 0.862475 0.709414 0.116160
H26   H     H_    0.137437 0.977307 0.696241 0.115800
H27   H     H_    0.032364 0.185496 0.709055 0.116331
H28   H     H_    0.815652 0.985897 0.702115 0.176167
H29   H     H_    0.011011 0.848959 0.690595 0.176152
H30   H     H_    0.159382 0.185134 0.703375 0.172330
H31   H     H_    0.824458 0.015109 0.785607 0.141311
H32   H     H_    0.974283 0.843700 0.772691 0.132881
H33   H     H_    0.170747 0.170726 0.786777 0.122211
H34   H     H_    0.495387 0.827714 0.728299 0.088001
H35   H     H_    0.861537 0.910867 0.790681 0.099797
H36   H     H_    0.082100 0.984754 0.774781 0.101045
H37   H     H_    0.032354 0.146227 0.790506 0.107782
H38   H     H_    0.520673 0.664454 0.727587 0.125467
H39   H     H_    0.323152 0.866447 0.729377 0.125962
H40   H     H_    0.146989 0.488153 0.727512 0.116908
H41   H     H_    0.652639 0.677235 0.715638 0.196220
H42   H     H_    0.318597 0.986439 0.710394 0.192053
H43   H     H_    0.024558 0.358082 0.717436 0.187138
H44   H     H_    0.552237 0.679163 0.809140 0.134987
H45   H     H_    0.155498 0.683297 0.732786 0.088159
H46   H     H_    0.301082 0.897921 0.808813 0.141406
H47   H     H_    0.137752 0.460283 0.809584 0.132577
H48   H     H_    0.785391 0.716993 0.784989 0.167494
H49   H     H_    0.720151 0.682643 0.844455 0.138662
H50   H     H_    0.660522 0.587161 0.794982 0.204788
H51   H     H_    0.280423 0.094536 0.770772 0.173432
H52   H     H_    0.300898 0.072203 0.834021 0.135380
H53   H     H_    0.404138 0.094621 0.789215 0.204526
H54   H     H_    0.928265 0.234560 0.788807 0.166822
H55   H     H_    0.968026 0.302512 0.847551 0.142008
H56   H     H_    0.329978 0.504825 0.730158 0.086877
H57   H     H_    0.936108 0.365844 0.798215 0.198080
H58   H     H_    0.663643 0.084227 0.320073 0.120996
H59   H     H_    0.774520 0.095624 0.282634 0.129683
H60   H     H_    0.632081 0.015232 0.262286 0.125284
H61   H     H_    0.108448 0.546977 0.288767 0.129267
H62   H     H_    0.979413 0.548643 0.286534 0.120313
H63   H     H_    0.079958 0.605204 0.237439 0.151657
H64   H     H_    0.238048 0.127693 0.355697 0.131845
H65   H     H_    0.210650 0.121461 0.291901 0.137421
H66   H     H_    0.343514 0.227809 0.315325 0.121788
H67   H     H_    0.521267 0.839119 0.810415 0.071397
H68   H     H_    0.604997 0.082148 0.640725 0.379855
H69   H     H_    0.911033 0.531445 0.640486 0.379788
H70   H     H_    0.487525 0.424728 0.639503 0.380277
H71   H     H_    0.133879 0.710653 0.812842 0.078057
H72   H     H_    0.323830 0.472527 0.811447 0.074543
O1    O     O_R   0.137310 0.468260 0.552980 -0.501857
O2    O     O_R   0.139940 0.470480 0.446230 -0.524354
O3    O     O_R   0.529520 0.669460 0.446230 -0.517393
O4    O     O_R   0.330540 0.860060 0.446230 -0.517373
O5    O     O_R   0.176560 0.690850 0.450770 -0.512098
O6    O     O_R   0.309150 0.485710 0.450770 -0.502247
O7    O     O_R   0.514290 0.823440 0.450770 -0.507733
O8    O     O_3   0.333333 0.666667 0.499990 -0.277335
O9    O     O_3   1.000000 0.000000 0.017910 -0.294128
O10   O     O_R   0.149710 0.171070 0.967700 -0.507375
O11   O     O_R   0.828930 0.978640 0.967700 -0.491511
O12   O     O_R   0.531740 0.669050 0.552980 -0.499757
O13   O     O_R   0.021360 0.850290 0.967700 -0.484010
O14   O     O_R   0.178510 0.985930 0.071830 -0.524043
O15   O     O_R   0.014070 0.192580 0.071830 -0.501761
O16   O     O_R   0.807420 0.821490 0.071830 -0.493345
O17   O     O_R   0.147830 0.173300 0.066650 -0.490257
O18   O     O_R   0.826700 0.974530 0.066650 -0.508791
O19   O     O_R   0.025470 0.852170 0.066650 -0.516738
O20   O     O_2   0.541123 0.052143 0.735237 -0.309667
O21   O     O_2   0.734690 0.104363 0.720889 -0.305515
O22   O     O_3   0.592889 0.008464 0.650457 -0.518557
O23   O     O_R   0.330950 0.862690 0.552980 -0.500888
O24   O     O_2   0.928224 0.509925 0.737731 -0.298790
O25   O     O_2   0.883664 0.651891 0.713407 -0.313723
O26   O     O_3   0.984819 0.592356 0.650717 -0.519539
O27   O     O_2   0.504452 0.445736 0.737087 -0.306257
O28   O     O_2   0.359649 0.264825 0.708201 -0.306877
O29   O     O_3   0.425152 0.434664 0.650511 -0.520921
O30   O     O_R   0.180530 0.983530 0.965090 -0.499848
O31   O     O_R   0.016470 0.197000 0.965090 -0.500050
O32   O     O_R   0.803000 0.819470 0.965090 -0.508144
O33   O     O_R   0.174120 0.688790 0.549730 -0.477075
O34   O     O_R   0.311210 0.485330 0.549730 -0.475461
O35   O     O_R   0.514670 0.825880 0.549730 -0.476709
S1    S     S_3+6 0.616122 0.017715 0.710987 -0.028402
S2    S     S_3+6 0.968803 0.615894 0.709610 -0.027990
S3    S     S_3+6 0.398794 0.386657 0.708200 -0.031545

loop_
_geom_bond_atom_site_label_1
_geom_bond_atom_site_label_2
_ccdc_geom_bond_type
C77   H67   S    
C15   C18   A    
C21   C87   S    
Cr3   O4    S    
C25   C31   A    
C13   O32   A    
C46   H16   S    
C7    C10   T    
C18   C21   A    
C17   C29   S    
O24   S2    D    
C45   C82   S    
C24   C27   A    
Cr6   O13   S    
C1    O33   A    
H69   O26   S    
C8    C23   S    
C6    C9    T    
C6    C75   S    
C84   H49   S    
C27   C33   A    
C26   C32   A    
C14   O30   A    
C46   C49   A    
C90   H66   S    
C68   C81   S    
C64   C68   S    
C86   H57   S    
C38   H5    S    
C86   H54   S    
C61   S1    S    
Cr5   O15   S    
C28   O5    A    
C48   H11   S    
C63   C76   S    
C84   H48   S    
Cr2   O3    S    
C64   H25   S    
C50   H14   S    
C17   C20   A    
Cr1   O5    S    
C59   O18   A    
C47   H17   S    
Cr4   O10   S    
C88   H63   S    
C5    C74   S    
C39   H6    S    
C69   C82   S    
Cr2   O12   S    
C56   H47   S    
C28   O4    A    
C40   C43   A    
C20   C24   A    
C69   H32   S    
C61   C77   S    
C89   H43   S    
C63   S3    S    
C46   C55   A    
Cr1   O8    S    
C70   H37   S    
C85   H52   S    
C77   H1    S    
C45   C78   S    
C34   C81   S    
C88   H62   S    
C29   O2    A    
C47   C50   A    
C36   H22   S    
C78   H39   S    
C29   O6    A    
C62   S2    S    
C16   C28   S    
C76   C89   S    
C63   C80   S    
C39   C52   A    
C80   H23   S    
C89   H40   S    
C55   C60   S    
C58   O17   A    
O28   S3    D    
Cr6   O19   S    
O29   S3    S    
C34   C84   S    
Cr6   O16   S    
C80   C83   S    
H68   O22   S    
C78   H42   S    
C15   C35   A    
C42   H9    S    
Cr5   O9    S    
C39   C42   A    
C11   O31   A    
C54   C59   S    
Cr3   O23   S    
O21   S1    D    
C60   O14   A    
C41   C54   A    
C80   H72   S    
C48   C51   A    
C50   C53   A    
O25   S2    D    
Cr1   O1    S    
C90   H65   S    
C56   C83   S    
C62   C79   S    
C67   H38   S    
C1    C9    S    
C38   C41   A    
C11   C73   S    
C67   C74   S    
C19   H3    S    
C63   H56   S    
C38   C51   A    
C13   C71   S    
Cr2   O6    S    
C64   H28   S    
Cr3   O7    S    
C70   H33   S    
C33   C37   A    
C66   H30   S    
C23   O35   A    
C58   O15   A    
Cr4   O30   S    
Cr4   O9    S    
C65   H29   S    
C68   H35   S    
C45   C85   S    
C25   C51   S    
C26   C52   S    
C42   C55   A    
C47   C57   A    
C56   C86   S    
C20   H4    S    
C77   C81   S    
C49   C52   A    
C66   C76   S    
C19   C22   A    
C3    C82   S    
C37   H24   S    
O27   S3    D    
C4    C73   T    
C87   H58   S    
C11   O10   A    
C17   C37   A    
C88   H61   S    
C70   C83   S    
C68   H31   S    
C23   O12   A    
Cr1   O33   S    
C10   C12   S    
C61   H34   S    
C1    O23   A    
Cr5   O11   S    
C56   C89   S    
C60   O19   A    
C22   C88   S    
C45   H46   S    
Cr6   O9    S    
C31   C35   A    
C62   C75   S    
C35   H21   S    
C5    C8    T    
C62   H45   S    
C2    C71   T    
C32   C36   A    
C30   O7    A    
C14   O13   A    
Cr2   O34   S    
C15   C30   S    
C49   H13   S    
Cr6   O32   S    
O26   S2    S    
C21   C25   A    
C33   H20   S    
C65   H26   S    
C31   H18   S    
Cr1   O2    S    
C66   H27   S    
C14   C72   S    
Cr2   O8    S    
C85   H51   S    
C24   C90   S    
C34   C67   S    
C79   C82   S    
C27   C53   S    
C12   O1    A    
C84   H50   S    
C61   C74   S    
Cr4   O14   S    
Cr3   O8    S    
C65   C75   S    
C41   H8    S    
C3    C72   T    
H70   O29   S    
C12   O34   A    
C13   O11   A    
C86   H55   S    
C16   C36   A    
C40   H7    S    
O22   S1    S    
C57   C58   S    
C66   C70   S    
C4    C83   S    
C16   C19   A    
C65   C69   S    
C34   H44   S    
O20   S1    D    
C79   H12   S    
C87   H59   S    
C32   H19   S    
C90   H64   S    
C59   O16   A    
Cr3   O35   S    
C75   C78   S    
C85   H53   S    
C30   O3    A    
C43   C57   A    
C44   H15   S    
C44   C54   A    
C69   H36   S    
Cr5   O31   S    
C40   C53   A    
C22   C26   A    
C64   C74   S    
C87   H60   S    
C2    C81   S    
C18   H2    S    
C79   H71   S    
C67   H41   S    
Cr4   O17   S    
C43   H10   S    
C44   C48   A    
Cr5   O18   S    
C7    C76   S    
