data_mof_unit_25993.cif
_audit_creation_date              2012-10-26T19:42:33-0400
_audit_creation_method            fapswitch 2.2
_symmetry_space_group_name_H-M    P1
_symmetry_Int_Tables_number       1
_space_group_crystal_system       triclinic
_cell_length_a                    19.304138
_cell_length_b                    10.817132
_cell_length_c                    9.60434
_cell_angle_alpha                 88.100503
_cell_angle_beta                  91.139003
_cell_angle_gamma                 92.822066
_cell_volume                      2001.66682375

loop_
_atom_site_label
_atom_site_type_symbol
_atom_type_description
_atom_site_fract_x
_atom_site_fract_y
_atom_site_fract_z
_atom_type_partial_charge
C1    C     C_R   0.497124 0.261788 0.503594 0.527750
C2    C     C_R   0.853513 0.455737 0.510201 0.049063
C3    C     C_R   0.565699 0.107982 0.735921 0.064621
C4    C     C_R   0.367895 0.498498 0.498968 0.550084
C5    C     C_R   0.632662 0.069248 0.774701 0.049037
C6    C     C_R   0.657567 0.966340 0.710317 -0.128687
C7    C     C_R   0.613661 0.894170 0.625294 -0.134647
C8    C     C_R   0.549809 0.939031 0.579762 0.012268
C9    C     C_R   0.534146 0.059509 0.612845 0.013410
C10   C     C_R   0.493018 0.126425 0.514287 -0.019270
C11   C     C_R   0.454755 0.062392 0.411459 -0.161918
C12   C     C_R   0.292019 0.491824 0.497331 0.053384
C13   C     C_R   0.456793 0.934406 0.406628 -0.169831
C14   C     C_R   0.504130 0.872026 0.491899 -0.004392
C15   C     C_R   0.587382 0.669617 0.140397 0.068382
C16   C     C_R   0.501678 0.737633 0.497464 0.538466
C17   C     C_R   0.654766 0.686608 0.092965 -0.136547
C18   C     C_R   0.664166 0.680283 0.949877 -0.056423
C19   C     C_R   0.608222 0.635713 0.865141 -0.088611
C20   C     C_R   0.550236 0.570879 0.926611 0.122236
C21   C     C_R   0.545659 0.578237 0.074135 0.149137
C22   C     C_R   0.453974 0.428114 0.074760 -0.011707
C23   C     C_R   0.929577 0.463878 0.513702 0.329356
C24   C     C_R   0.452483 0.431368 0.926675 -0.018784
C25   C     C_R   0.632334 0.491022 0.500255 0.532400
C26   C     C_R   0.256057 0.383482 0.548914 -0.026305
C27   C     C_R   0.183551 0.379217 0.551633 -0.104699
C28   C     C_R   0.146334 0.480771 0.503557 0.004899
C29   C     C_R   0.182482 0.587427 0.450858 -0.102939
C30   C     C_R   0.255048 0.594066 0.447296 -0.023616
C31   C     C_3   0.294193 0.271288 0.598758 -0.394278
C32   C     C_3   0.521062 0.164954 0.843391 -0.247164
C33   C     C_3   0.504714 0.076453 0.967076 -0.463987
C34   C     C_R   0.069851 0.475185 0.508057 0.338656
C35   C     C_3   0.678676 0.136537 0.880195 -0.284877
C36   C     C_3   0.705362 0.261635 0.820920 -0.436317
C37   C     C_3   0.555456 0.793084 0.154302 -0.364213
C38   C     C_3   0.730780 0.733690 0.891050 -0.418177
C39   C     C_3   0.292298 0.711388 0.393600 -0.397711
C40   C     C_3   0.855896 0.510330 0.764705 -0.401614
C41   C     C_3   0.701426 0.365260 0.261400 -0.254663
C42   C     C_3   0.663554 0.243486 0.306521 -0.406633
C43   C     C_3   0.857083 0.374440 0.265562 -0.268093
C44   C     C_3   0.863629 0.474483 0.149994 -0.439615
C45   C     C_R   0.817935 0.487505 0.628749 -0.019701
C46   C     C_R   0.746413 0.498182 0.620784 -0.160928
C47   C     C_R   0.708235 0.471294 0.499436 -0.014746
C48   C     C_R   0.742763 0.422384 0.383430 0.023376
C49   C     C_R   0.816708 0.418974 0.388122 0.019867
Cu1   Cu    Cu3+1 0.500000 0.499990 0.640660 0.902912
Cu2   Cu    Cu3+1 0.500000 0.500010 0.359340 0.913891
H1    H     H_    0.710210 0.940305 0.728803 0.109185
H2    H     H_    0.719951 0.526108 0.711757 0.134360
H3    H     H_    0.421979 0.111206 0.337455 0.118691
H4    H     H_    0.327413 0.294201 0.690793 0.139678
H5    H     H_    0.257931 0.192627 0.629413 0.122446
H6    H     H_    0.327160 0.240429 0.514315 0.126854
H7    H     H_    0.465550 0.116771 0.033144 0.130596
H8    H     H_    0.551137 0.061377 0.033410 0.142049
H9    H     H_    0.483031 0.986155 0.929772 0.159733
H10   H     H_    0.546600 0.252157 0.880590 0.163957
H11   H     H_    0.469305 0.184555 0.798279 0.161797
H12   H     H_    0.632164 0.809754 0.585000 0.100699
H13   H     H_    0.735071 0.248739 0.725024 0.170601
H14   H     H_    0.661481 0.321620 0.795986 0.173412
H15   H     H_    0.740117 0.308270 0.898615 0.131728
H16   H     H_    0.651105 0.150660 0.977680 0.137499
H17   H     H_    0.724181 0.081509 0.909642 0.134101
H18   H     H_    0.566332 0.852171 0.059835 0.113598
H19   H     H_    0.498040 0.783920 0.160122 0.150632
H20   H     H_    0.578319 0.841642 0.245612 0.133259
H21   H     H_    0.774525 0.682555 0.936319 0.131486
H22   H     H_    0.731278 0.729705 0.775884 0.124547
H23   H     H_    0.422712 0.884603 0.334641 0.115182
H24   H     H_    0.738907 0.831227 0.922225 0.130144
H25   H     H_    0.327523 0.749286 0.476253 0.136654
H26   H     H_    0.323117 0.691676 0.301243 0.149959
H27   H     H_    0.255564 0.783551 0.362177 0.120631
H28   H     H_    0.819341 0.515989 0.851171 0.109885
H29   H     H_    0.889155 0.431955 0.791965 0.154554
H30   H     H_    0.888535 0.597564 0.756354 0.151501
H31   H     H_    0.627469 0.211865 0.222073 0.134900
H32   H     H_    0.701716 0.171417 0.328273 0.134370
H33   H     H_    0.633412 0.253874 0.401962 0.176374
H34   H     H_    0.416567 0.368607 0.130596 0.115302
H35   H     H_    0.665668 0.430697 0.211807 0.181138
H36   H     H_    0.733294 0.344339 0.172092 0.123947
H37   H     H_    0.893241 0.557297 0.189002 0.181776
H38   H     H_    0.891975 0.438529 0.061700 0.140170
H39   H     H_    0.811972 0.502827 0.111938 0.138944
H40   H     H_    0.910275 0.348965 0.296426 0.167699
H41   H     H_    0.833661 0.286566 0.225767 0.132319
H42   H     H_    0.693067 0.738219 0.154908 0.121652
H43   H     H_    0.611165 0.656019 0.756394 0.176672
H44   H     H_    0.156120 0.296050 0.591315 0.138691
H45   H     H_    0.413640 0.374987 0.872256 0.104751
H46   H     H_    0.154210 0.666324 0.413401 0.138718
N1    N     N_R   0.033172 0.569742 0.453384 -0.239195
N2    N     N_R   0.964232 0.564093 0.455876 -0.231769
N3    N     N_R   0.965797 0.369290 0.568742 -0.240838
N4    N     N_R   0.034758 0.375015 0.566110 -0.239015
N5    N     N_R   0.500660 0.501210 0.147910 -0.243696
N6    N     N_R   0.500680 0.501290 0.852040 -0.244220
O1    O     O_R   0.499990 0.319640 0.618810 -0.517869
O2    O     O_R   0.500000 0.319660 0.381240 -0.502419
O3    O     O_R   0.400140 0.499970 0.618820 -0.495619
O4    O     O_R   0.400150 0.500000 0.381250 -0.503315
O5    O     O_R   0.500000 0.680340 0.618760 -0.495106
O6    O     O_R   0.500010 0.680360 0.381190 -0.508038
O7    O     O_R   0.599850 0.500000 0.618750 -0.533187
O8    O     O_R   0.599860 0.500030 0.381180 -0.494656

loop_
_geom_bond_atom_site_label_1
_geom_bond_atom_site_label_2
_ccdc_geom_bond_type
C23   N2    A    
Cu1   O1    S    
C33   H7    S    
C37   H18   S    
C41   C42   S    
C27   H44   S    
C19   C20   A    
C42   H31   S    
C7    C8    A    
C20   N6    A    
C45   C46   A    
Cu2   N5    S    
C41   H35   S    
C26   C27   A    
C39   H26   S    
C28   C29   A    
C32   H10   S    
C24   H45   S    
C5    C6    A    
C36   H15   S    
Cu1   O7    S    
C18   C19   A    
C22   H34   S    
C15   C37   S    
C35   C36   S    
C8    C9    A    
Cu2   O8    S    
C40   H29   S    
C31   H5    S    
C4    C12   S    
C9    C10   A    
C25   C47   S    
C23   N3    A    
C28   C34   S    
Cu1   N6    S    
C33   H8    S    
C13   C14   A    
Cu1   O5    S    
C16   O6    A    
Cu1   Cu2   S    
C38   H24   S    
C2    C45   A    
C40   C45   S    
C41   H36   S    
C4    O4    A    
C38   H21   S    
C34   N4    A    
C1    C10   S    
C39   H27   S    
C42   H33   S    
C16   O5    A    
C36   H14   S    
C43   C49   S    
C4    O3    A    
C43   H40   S    
C12   C26   A    
C43   C44   S    
C29   C30   A    
C3    C9    A    
C2    C49   A    
C47   C48   A    
C35   H16   S    
Cu2   O2    S    
C17   C18   A    
C40   H28   S    
C39   H25   S    
C20   C21   A    
C19   H43   S    
C1    O1    A    
C7    H12   S    
C11   H3    S    
C25   O7    A    
C21   N5    A    
C48   C49   A    
C33   H9    S    
C37   H20   S    
C14   C16   S    
C17   H42   S    
C27   C28   A    
C44   H39   S    
C15   C17   A    
C46   C47   A    
C8    C14   A    
C12   C30   A    
C26   C31   S    
C40   H30   S    
C42   H32   S    
C3    C5    A    
C6    C7    A    
C43   H41   S    
C22   N5    A    
C29   H46   S    
C24   N6    A    
C6    H1    S    
C32   C33   S    
C31   H6    S    
C18   C38   S    
C32   H11   S    
C44   H37   S    
C11   C13   A    
C35   H17   S    
C5    C35   S    
C46   H2    S    
N3    N4    A    
C34   N1    A    
C41   C48   S    
C30   C39   S    
C22   C24   A    
C3    C32   S    
C10   C11   A    
C25   O8    A    
C15   C21   A    
C13   H23   S    
Cu2   O4    S    
N1    N2    A    
C2    C23   S    
Cu1   O3    S    
Cu2   O6    S    
C31   H4    S    
C36   H13   S    
C37   H19   S    
C44   H38   S    
C1    O2    A    
C38   H22   S    
