data_mof_unit_27370.cif
_audit_creation_date              2012-12-10T17:52:18-0500
_audit_creation_method            fapswitch 2.2
_symmetry_space_group_name_H-M    P1
_symmetry_Int_Tables_number       1
_space_group_crystal_system       triclinic
_cell_length_a                    18.928639
_cell_length_b                    10.669305
_cell_length_c                    9.929711
_cell_angle_alpha                 90.382048
_cell_angle_beta                  89.286417
_cell_angle_gamma                 91.077177
_cell_volume                      2004.80758172

loop_
_atom_site_label
_atom_site_type_symbol
_atom_type_description
_atom_site_fract_x
_atom_site_fract_y
_atom_site_fract_z
_atom_type_partial_charge
C1    C     C_R   0.504323 0.260693 0.500545 0.856370
C2    C     C_R   0.854513 0.617191 0.523444 -0.018754
C3    C     C_R   0.599915 0.128814 0.685361 -0.254272
C4    C     C_R   0.365347 0.505660 0.500862 0.858172
C5    C     C_R   0.644191 0.063035 0.771418 0.247951
C6    C     C_R   0.650140 0.932540 0.755616 0.254527
C7    C     C_R   0.608202 0.870141 0.660648 -0.247641
C8    C     C_R   0.557957 0.934624 0.584472 0.048439
C9    C     C_R   0.555960 0.065642 0.591416 0.053726
C10   C     C_R   0.509685 0.127933 0.503174 -0.073790
C11   C     C_R   0.464907 0.062361 0.416844 -0.212391
C12   C     C_R   0.290694 0.536819 0.504112 -0.078080
C13   C     C_R   0.464600 0.934611 0.415322 -0.209254
C14   C     C_R   0.509741 0.871460 0.499514 -0.079528
C15   C     C_R   0.431825 0.304910 0.141067 -0.146193
C16   C     C_R   0.502841 0.739276 0.500058 0.865969
C17   C     C_R   0.419361 0.191075 0.075897 -0.245682
C18   C     C_R   0.426391 0.184513 0.937160 -0.177670
C19   C     C_R   0.431058 0.297286 0.865983 0.247934
C20   C     C_R   0.466270 0.402025 0.928704 0.122285
C21   C     C_R   0.466553 0.403489 0.072926 0.136234
C22   C     C_R   0.532138 0.592719 0.071173 -0.114580
C23   C     C_R   0.931852 0.630231 0.525578 0.315514
C24   C     C_R   0.532152 0.592692 0.928259 -0.133107
C25   C     C_R   0.635596 0.504502 0.499577 0.864801
C26   C     C_R   0.262091 0.590735 0.621368 -0.191891
C27   C     C_R   0.192149 0.628837 0.625735 0.216027
C28   C     C_R   0.150359 0.611864 0.510096 0.078273
C29   C     C_R   0.179792 0.562986 0.391202 -0.207256
C30   C     C_R   0.249721 0.525550 0.388115 -0.200972
C31   C     C_3   0.684611 0.132785 0.879177 -0.922166
C32   C     C_3   0.700136 0.858436 0.839661 -0.941233
C33   C     C_3   0.365366 0.315379 0.784758 -0.801549
C34   C     C_R   0.074311 0.626158 0.517849 0.288149
C35   C     C_3   0.163705 0.688713 0.752927 -0.916101
C36   C     C_3   0.846203 0.607324 0.779407 -0.892475
C37   C     C_3   0.720735 0.446933 0.743328 -0.875709
C38   C     C_3   0.716022 0.597560 0.251874 -0.851421
C39   C     C_R   0.816544 0.581655 0.640358 0.213365
C40   C     C_R   0.749571 0.524237 0.626992 0.145120
C41   C     C_R   0.713025 0.532206 0.502366 -0.130875
C42   C     C_R   0.749619 0.582551 0.387979 0.153146
C43   C     C_R   0.820531 0.619140 0.399554 -0.212738
H1    H     H_    0.294549 0.604926 0.709467 0.155653
H2    H     H_    0.742124 0.130424 0.856321 0.249069
H3    H     H_    0.755124 0.893738 0.823696 0.257401
H4    H     H_    0.685541 0.866911 0.947892 0.242804
H5    H     H_    0.698356 0.757271 0.812718 0.236992
H6    H     H_    0.615403 0.770576 0.647115 0.163620
H7    H     H_    0.411998 0.315030 0.241721 0.193640
H8    H     H_    0.397824 0.111330 0.130281 0.153773
H9    H     H_    0.374310 0.290067 0.677746 0.248218
H10   H     H_    0.320881 0.253169 0.819063 0.200890
H11   H     H_    0.344737 0.410791 0.801597 0.237534
H12   H     H_    0.600256 0.229145 0.694624 0.179577
H13   H     H_    0.137740 0.778076 0.728501 0.245905
H14   H     H_    0.125105 0.624578 0.803386 0.258689
H15   H     H_    0.206432 0.710327 0.825660 0.233534
H16   H     H_    0.558681 0.668278 0.874661 0.156466
H17   H     H_    0.147749 0.548837 0.302514 0.155402
H18   H     H_    0.271441 0.486533 0.295852 0.158434
H19   H     H_    0.803374 0.630189 0.852360 0.240953
H20   H     H_    0.874462 0.524154 0.815979 0.254089
H21   H     H_    0.882631 0.690138 0.778452 0.244670
H22   H     H_    0.763299 0.411255 0.807733 0.243264
H23   H     H_    0.427511 0.884693 0.351013 0.157879
H24   H     H_    0.684326 0.502936 0.807124 0.252767
H25   H     H_    0.693858 0.361992 0.703454 0.239018
H26   H     H_    0.671253 0.662987 0.260144 0.242748
H27   H     H_    0.753594 0.637562 0.176034 0.220719
H28   H     H_    0.697824 0.504976 0.212520 0.256219
H29   H     H_    0.558498 0.668584 0.124400 0.146681
H30   H     H_    0.407351 0.099814 0.887492 0.156893
H31   H     H_    0.849959 0.647997 0.310340 0.169182
H32   H     H_    0.427610 0.110349 0.354929 0.139850
H33   H     H_    0.668359 0.231836 0.887903 0.240123
H34   H     H_    0.673910 0.089209 0.978717 0.252626
N1    N     N_R   0.038743 0.687935 0.421696 -0.176283
N2    N     N_R   0.968435 0.690189 0.425723 -0.180868
N3    N     N_R   0.968018 0.566874 0.619228 -0.164895
N4    N     N_R   0.037842 0.565292 0.615925 -0.169128
N5    N     N_R   0.499340 0.498800 0.142780 -0.112604
N6    N     N_R   0.499320 0.498720 0.857170 -0.115729
O1    O     O_R   0.500000 0.316780 0.614690 -0.625206
O2    O     O_R   0.499990 0.316750 0.385360 -0.623599
O3    O     O_R   0.398140 0.500000 0.614700 -0.618419
O4    O     O_R   0.398130 0.499970 0.385370 -0.629178
O5    O     O_R   0.500010 0.683250 0.614640 -0.619291
O6    O     O_R   0.500000 0.683220 0.385310 -0.620101
O7    O     O_R   0.601870 0.500030 0.614630 -0.621062
O8    O     O_R   0.601860 0.500000 0.385300 -0.602251
Zn1   Zn    Zn3+2 0.500000 0.500020 0.653130 0.926941
Zn2   Zn    Zn3+2 0.500000 0.499980 0.346870 0.935718

loop_
_geom_bond_atom_site_label_1
_geom_bond_atom_site_label_2
_ccdc_geom_bond_type
C6    C32   S    
C38   H27   S    
C41   C42   A    
C19   C20   A    
C17   H8    S    
C26   H1    S    
C7    C8    A    
C4    O4    A    
C33   H9    S    
N6    Zn1   S    
C25   O7    A    
C35   H15   S    
C22   N5    A    
C28   C29   A    
C24   N6    A    
C38   C42   S    
C37   C40   S    
C5    C6    A    
C4    O3    A    
C37   H25   S    
O4    Zn2   S    
C18   C19   A    
C15   H7    S    
C3    H12   S    
C2    C39   A    
O5    Zn1   S    
C8    C9    A    
C37   H22   S    
C34   N4    A    
C23   N3    A    
C4    C12   S    
C36   H20   S    
C9    C10   A    
C43   H31   S    
C38   H26   S    
C28   C34   S    
C16   O6    A    
N5    Zn2   S    
C13   C14   A    
C33   H10   S    
C32   H5    S    
O2    Zn2   S    
C36   H19   S    
C22   H29   S    
C31   H34   S    
C13   H23   S    
C1    O2    A    
C25   O8    A    
C7    H6    S    
C19   C33   S    
C25   C41   S    
C39   C40   A    
N1    N2    A    
C27   C35   S    
C12   C26   A    
C1    O1    A    
C29   C30   A    
C3    C9    A    
O8    Zn2   S    
O7    Zn1   S    
C29   H17   S    
C2    C43   A    
C17   C18   A    
C26   C27   A    
C21   N5    A    
C40   C41   A    
C18   H30   S    
C32   H4    S    
C22   C24   A    
C30   H18   S    
C42   C43   A    
C2    C23   S    
C33   H11   S    
C15   C17   A    
C38   H28   S    
C8    C14   A    
C12   C30   A    
C35   H13   S    
C32   H3    S    
C36   C39   S    
C1    C10   S    
N3    N4    A    
C3    C5    A    
C6    C7    A    
C35   H14   S    
C11   H32   S    
C34   N1    A    
C11   C13   A    
C31   H33   S    
C24   H16   S    
C37   H24   S    
C14   C16   S    
O6    Zn2   S    
C10   C11   A    
C15   C21   A    
C20   C21   A    
C31   H2    S    
C20   N6    A    
C27   C28   A    
C16   O5    A    
O3    Zn1   S    
O1    Zn1   S    
C23   N2    A    
C36   H21   S    
C5    C31   S    
