data_mof_unit_7606.cif
_audit_creation_date              2012-12-11T15:29:42-0500
_audit_creation_method            fapswitch 2.2
_symmetry_space_group_name_H-M    P1
_symmetry_Int_Tables_number       1
_space_group_crystal_system       triclinic
_cell_length_a                    21.408954
_cell_length_b                    7.246404
_cell_length_c                    14.766912
_cell_angle_alpha                 89.877188
_cell_angle_beta                  74.392687
_cell_angle_gamma                 90.027414
_cell_volume                      2206.43193891

loop_
_atom_site_label
_atom_site_type_symbol
_atom_type_description
_atom_site_fract_x
_atom_site_fract_y
_atom_site_fract_z
_atom_type_partial_charge
O1    O     O_R   0.464160 0.506670 0.130070 -0.534157
O2    O     O_R   0.535840 0.006670 0.869930 -0.534238
O3    O     O_R   0.589710 0.179080 0.006710 -0.544807
O4    O     O_R   0.410290 0.679080 0.993290 -0.545006
C1    C     C_R   0.616378 0.344127 0.001798 0.663005
C2    C     C_R   0.383598 0.844051 0.998363 0.662795
O5    O     O_R   0.467940 0.177220 0.138010 -0.539106
O6    O     O_R   0.532060 0.677220 0.861990 -0.539223
O7    O     O_R   0.413200 0.002810 0.002170 -0.539853
O8    O     O_R   0.586800 0.502810 0.997830 -0.539841
C3    C     C_R   0.456025 0.345408 0.174353 0.684225
C4    C     C_R   0.543877 0.845900 0.825640 0.684404
O9    O     O_3   0.482180 0.337850 0.955280 -0.376709
O10   O     O_3   0.517820 0.837850 0.044720 -0.376372
V1    V     V_3+5 0.503310 0.064600 0.008300 1.396172
V2    V     V_3+5 0.496690 0.564600 0.991700 1.395438
C5    C     C_R   0.571843 0.857690 0.724134 -0.027967
C6    C     C_R   0.427755 0.354885 0.275815 -0.025434
C7    C     C_R   0.927701 0.864465 0.276260 -0.090468
C8    C     C_R   0.071858 0.367705 0.723473 -0.090412
C9    C     C_R   0.561817 0.942753 0.570653 -0.161931
C10   C     C_R   0.439213 0.409387 0.431635 -0.162356
C11   C     C_R   0.533615 0.913915 0.666117 -0.174047
C12   C     C_R   0.467043 0.389207 0.335501 -0.175536
C13   C     C_R   0.638455 0.830175 0.686869 -0.216424
C14   C     C_R   0.360511 0.340394 0.312010 -0.215518
C15   C     C_R   0.668853 0.865522 0.590818 0.082276
C16   C     C_R   0.330739 0.365634 0.409018 0.082846
C17   C     C_R   0.628932 0.920749 0.532756 0.138154
C18   C     C_R   0.371636 0.398952 0.468744 0.138799
C19   C     C_R   0.737440 0.852518 0.551077 0.076575
C20   C     C_R   0.261965 0.361976 0.448387 0.076293
C21   C     C_R   0.764017 0.878413 0.452344 0.070940
C22   C     C_R   0.235778 0.374618 0.547842 0.071107
C23   C     C_R   0.722757 0.942960 0.398995 -0.186961
C24   C     C_R   0.278188 0.418707 0.603169 -0.184772
C25   C     C_R   0.656497 0.960992 0.438159 -0.209821
C26   C     C_R   0.344770 0.427959 0.564541 -0.209819
C27   C     C_R   0.780649 0.824966 0.607173 -0.220677
C28   C     C_R   0.218437 0.356206 0.391607 -0.221950
C29   C     C_R   0.847349 0.829609 0.568446 -0.143791
C30   C     C_R   0.151918 0.368959 0.430623 -0.142586
C31   C     C_R   0.873961 0.847838 0.471401 0.064400
C32   C     C_R   0.125525 0.374156 0.528111 0.064709
C33   C     C_R   0.832125 0.855233 0.411285 -0.069515
C34   C     C_R   0.167253 0.359599 0.588166 -0.070108
C35   C     C_R   0.941865 0.859536 0.433902 0.393940
C36   C     C_R   0.057991 0.395555 0.566140 0.392703
C37   C     C_R   0.967872 0.875853 0.336291 -0.331754
C38   C     C_R   0.032261 0.400836 0.664094 -0.330628
C39   C     C_R   0.860637 0.841583 0.312437 0.267458
C40   C     C_R   0.138248 0.334163 0.686342 0.267594
H1    H     H_    0.626711 0.010194 0.394266 0.129673
H2    H     H_    0.375448 0.460818 0.609975 0.128871
H3    H     H_    0.019768 0.890575 0.306683 0.113770
H4    H     H_    0.980884 0.424820 0.694283 0.115003
H5    H     H_    0.878196 0.817854 0.615537 0.164562
H6    H     H_    0.121028 0.374362 0.383361 0.165962
H7    H     H_    0.531349 0.986849 0.526740 0.119603
H8    H     H_    0.470491 0.436301 0.476931 0.119183
H9    H     H_    0.482114 0.937418 0.695033 0.105636
H10   H     H_    0.519132 0.401618 0.307511 0.104232
H11   H     H_    0.665078 0.784210 0.735139 0.091818
H12   H     H_    0.333056 0.309903 0.262441 0.089898
H13   H     H_    0.741321 0.989273 0.327227 0.189233
H14   H     H_    0.260500 0.455440 0.676431 0.185866
H15   H     H_    0.764701 0.810503 0.682477 0.117497
H16   H     H_    0.234246 0.353367 0.315956 0.117420
C41   C     C_3   0.210904 0.658877 0.003876 -0.280664
C42   C     C_3   0.788514 0.158939 0.999060 -0.280891
H17   H     H_    0.182245 0.590002 0.069381 0.127533
H18   H     H_    0.817147 0.087111 0.934678 0.128592
H19   H     H_    0.203034 0.578862 0.943623 0.182031
H20   H     H_    0.795956 0.081776 0.060572 0.185219
C43   C     C_3   0.283562 0.652673 0.000489 -0.315294
C44   C     C_3   0.715948 0.152811 0.001937 -0.316424
H21   H     H_    0.310307 0.575886 0.936594 0.150256
H22   H     H_    0.688840 0.077761 0.066429 0.149817
H23   H     H_    0.289510 0.574756 0.062698 0.134774
H24   H     H_    0.710093 0.073186 0.940332 0.136671
H25   H     H_    0.168491 0.899699 0.153443 0.144867
H26   H     H_    0.831454 0.393126 0.846395 0.145255
H27   H     H_    0.275881 0.881783 0.152220 0.144669
H28   H     H_    0.724001 0.377701 0.847767 0.144518
C45   C     C_3   0.198997 0.962896 0.087565 -0.404313
C46   C     C_3   0.801287 0.459466 0.911403 -0.406135
C47   C     C_3   0.230761 0.955429 0.910111 0.232981
C48   C     C_3   0.769433 0.459433 0.088830 0.232038
C49   C     C_3   0.187378 0.861480 0.000790 0.067077
C50   C     C_3   0.812582 0.361591 0.999485 0.069463
H29   H     H_    0.215918 0.102712 0.907980 0.097321
H30   H     H_    0.784415 0.607100 0.088574 0.094822
C51   C     C_3   0.312280 0.850618 0.999239 0.062183
C52   C     C_3   0.687677 0.350751 0.001052 0.062177
C53   C     C_3   0.271526 0.953649 0.087528 -0.337507
C54   C     C_3   0.728687 0.451084 0.911740 -0.338086
C55   C     C_3   0.303457 0.952047 0.910839 -0.295863
C56   C     C_3   0.696673 0.454765 0.088458 -0.295720
H31   H     H_    0.333453 0.883171 0.846444 0.153154
H32   H     H_    0.666791 0.387094 0.153513 0.152594
H33   H     H_    0.321654 0.096226 0.909459 0.105061
H34   H     H_    0.678460 0.598661 0.088683 0.106265
H35   H     H_    0.184208 0.110048 0.087222 0.147146
H36   H     H_    0.816726 0.606385 0.909635 0.146638
H37   H     H_    0.290416 0.096289 0.089456 0.142828
H38   H     H_    0.710247 0.593863 0.908549 0.142011
O11   O     O_R   0.913210 0.208550 0.002110 -0.535907
O12   O     O_R   0.086790 0.708550 0.997890 -0.536601
O13   O     O_R   0.032060 0.539960 0.861980 -0.543636
O14   O     O_R   0.967940 0.039960 0.138020 -0.542089
C57   C     C_R   0.043948 0.372943 0.825388 0.778996
C58   C     C_R   0.956067 0.872407 0.174550 0.781235
O15   O     O_R   0.910290 0.538020 0.993280 -0.548429
O16   O     O_R   0.089710 0.038020 0.006720 -0.547587
O17   O     O_R   0.964160 0.712340 0.130090 -0.532153
O18   O     O_R   0.035840 0.212340 0.869910 -0.529082
C59   C     C_R   0.884076 0.369661 0.997695 0.635229
C60   C     C_R   0.115893 0.869671 0.002478 0.633484
O19   O     O_3   0.017820 0.379210 0.044690 -0.381011
O20   O     O_3   0.982180 0.879210 0.955310 -0.380297
V3    V     V_3+5 0.996690 0.652500 0.991710 1.430143
V4    V     V_3+5 0.003310 0.152500 0.008290 1.434449
O21   O     O_3   0.981656 0.859117 0.493758 -0.641718
H39   H     H_    0.027537 0.867821 0.456122 0.303332
O22   O     O_3   0.018437 0.416406 0.506611 -0.641105
H40   H     H_    0.972858 0.430958 0.544611 0.303951
O23   O     O_3   0.224121 0.864897 0.829005 -0.648092
H41   H     H_    0.182147 0.904623 0.818923 0.291731
O24   O     O_3   0.776201 0.373402 0.171168 -0.648762
H42   H     H_    0.817598 0.417686 0.181535 0.290447
O25   O     O_3   0.825813 0.792228 0.250003 -0.667088
H43   H     H_    0.790929 0.706576 0.282981 0.294545
O26   O     O_3   0.171782 0.265601 0.746843 -0.666846
H44   H     H_    0.204906 0.178458 0.710896 0.295528

loop_
_geom_bond_atom_site_label_1
_geom_bond_atom_site_label_2
_ccdc_geom_bond_type
C32   C36   A    
C3    C6    S    
O17   V3    S    
C47   H29   S    
C15   C17   A    
C21   C33   A    
O1    C3    A    
O12   V3    S    
O2    C4    A    
C30   H6    S    
C2    O7    A    
C47   O23   S    
C1    C52   S    
O21   H39   S    
C27   C29   A    
C52   C56   S    
C7    C58   S    
O5    C3    A    
C5    C11   A    
O18   V4    S    
C6    C12   A    
C23   C25   A    
C44   H22   S    
C9    H7    S    
O13   C57   A    
C10   H8    S    
C24   H14   S    
C33   C39   A    
C34   C40   A    
C18   C26   A    
C13   H11   S    
C41   H17   S    
C14   H12   S    
C8    C38   A    
C53   H37   S    
C44   C52   S    
C36   O22   S    
C48   H30   S    
C16   C18   A    
C6    C14   A    
C4    C5    S    
C42   H20   S    
C19   C21   A    
C41   H19   S    
C57   O18   A    
C22   C34   A    
C45   H35   S    
H25   C45   S    
C25   H1    S    
O5    V1    S    
C46   H36   S    
C51   C53   S    
C40   O26   S    
C29   C31   A    
C42   C50   S    
C30   C32   A    
C48   O24   S    
C41   C49   S    
C55   H31   S    
C32   C34   A    
O14   C58   A    
C15   C19   A    
C50   C59   S    
O12   C60   A    
C16   C20   A    
C35   C37   A    
C46   C50   S    
C45   C49   S    
C37   H3    S    
C9    C17   A    
C38   H4    S    
C20   C22   A    
O4    V2    S    
C8    C57   S    
C43   H21   S    
C7    C37   A    
C51   C55   S    
C35   O21   S    
C26   H2    S    
O6    C4    A    
C2    C51   S    
H27   C53   S    
O1    V2    S    
C52   C54   S    
O2    V1    S    
C31   C33   A    
O16   C60   A    
C46   C54   S    
O15   C59   A    
O4    C2    A    
C48   C50   S    
C56   H32   S    
C9    C11   A    
C42   C44   S    
O22   H40   S    
C10   C12   A    
O9    V2    S    
O23   H41   S    
H28   C54   S    
O3    V1    S    
O20   V3    S    
C43   C51   S    
O24   H42   S    
O19   V4    S    
C54   H38   S    
C12   H10   S    
C10   C18   A    
C27   H15   S    
C44   H24   S    
C28   C30   A    
O3    C1    A    
C42   H18   S    
C13   C15   A    
C14   C16   A    
C5    C13   A    
C24   C26   A    
O7    V1    S    
C29   H5    S    
C1    O8    A    
C8    C40   A    
C56   H34   S    
O14   V4    S    
H26   C46   S    
C45   C53   S    
O13   V3    S    
O26   H44   S    
C31   C35   A    
C36   C38   A    
C21   C23   A    
C19   C27   A    
C41   C43   S    
C22   C24   A    
C20   C28   A    
C48   C56   S    
O16   V4    S    
C7    C39   A    
C11   H9    S    
O15   V3    S    
C49   C60   S    
O6    V2    S    
C28   H16   S    
C39   O25   S    
C17   C25   A    
C47   C49   S    
C23   H13   S    
O10   V1    S    
O8    V2    S    
O11   V4    S    
C43   H23   S    
O11   C59   A    
C58   O17   A    
C55   H33   S    
O25   H43   S    
C47   C55   S    
