data_mof_unit_51044.cif
_audit_creation_date              2012-12-11T16:33:27-0500
_audit_creation_method            fapswitch 2.2
_symmetry_space_group_name_H-M    P1
_symmetry_Int_Tables_number       1
_space_group_crystal_system       triclinic
_cell_length_a                    6.975632
_cell_length_b                    18.560097
_cell_length_c                    19.991024
_cell_angle_alpha                 68.612929
_cell_angle_beta                  90.512822
_cell_angle_gamma                 91.169101
_cell_volume                      2409.47246152

loop_
_atom_site_label
_atom_site_type_symbol
_atom_type_description
_atom_site_fract_x
_atom_site_fract_y
_atom_site_fract_z
_atom_type_partial_charge
O1    O     O_R   0.488960 0.443750 0.941980 -0.520292
O2    O     O_R   0.823890 0.406510 0.087590 -0.548527
O3    O     O_R   0.999680 0.556250 0.058020 -0.542707
C1    C     C_R   0.651843 0.383155 0.115128 0.738367
O4    O     O_R   0.818360 0.434410 0.944340 -0.544433
O5    O     O_R   0.994110 0.584350 0.913750 -0.537557
C2    C     C_R   0.650213 0.421508 0.922754 0.731487
O6    O     O_R   0.494530 0.415650 0.086250 -0.532284
O7    O     O_3   0.662590 0.549160 0.990130 -0.372541
V1    V     V_3+5 0.935320 0.490880 0.001830 1.391161
O8    O     O_R   0.324180 0.593490 0.912410 -0.535292
C3    C     C_R   0.154345 0.617213 0.885955 0.776964
O9    O     O_R   0.329720 0.565590 0.055660 -0.539860
C4    C     C_R   0.163332 0.578954 0.076570 0.710724
V2    V     V_3+5 0.435990 0.509120 0.998170 1.428015
O10   O     O_3   0.158850 0.450840 0.009870 -0.362663
C5    C     C_3   0.036070 0.709610 0.308341 0.120479
C6    C     C_3   0.229159 0.681580 0.288518 0.113251
C7    C     C_1   0.163844 0.623399 0.122923 -0.210751
C8    C     C_1   0.105908 0.878337 0.375148 -0.260248
C9    C     C_3   0.973866 0.734913 0.228992 0.253759
C10   C     C_3   0.162411 0.706543 0.208853 -0.070564
C11   C     C_3   0.062466 0.816025 0.213222 0.193729
C12   C     C_3   0.125599 0.791633 0.292677 -0.058973
C13   C     C_3   0.252235 0.788133 0.192898 0.211797
C14   C     C_3   0.317758 0.763516 0.272471 0.260975
C15   C     C_1   0.167066 0.660540 0.161885 -0.012554
C16   C     C_1   0.110206 0.839716 0.337518 0.004967
H1    H     H_    0.222590 0.526455 0.687010 0.141721
C17   C     C_R   0.045938 0.766885 0.879688 -0.285732
C18   C     C_R   0.026360 0.839706 0.883155 0.228070
C19   C     C_R   0.085165 0.905179 0.824722 0.291920
C20   C     C_R   0.125758 0.898048 0.757788 0.169729
C21   C     C_R   0.115674 0.823609 0.751182 -0.038057
C22   C     C_R   0.100989 0.757586 0.815711 -0.019188
C23   C     C_R   0.120135 0.812738 0.683489 -0.125870
C24   C     C_R   0.132346 0.735128 0.683218 -0.046042
C25   C     C_R   0.143057 0.670692 0.749989 -0.034571
C26   C     C_R   0.136188 0.683006 0.815937 -0.106829
C27   C     C_R   0.131703 0.718720 0.618418 0.176424
C28   C     C_R   0.183336 0.644387 0.620105 0.270706
C29   C     C_R   0.195540 0.583849 0.685881 -0.208314
C30   C     C_R   0.151212 0.594294 0.749292 0.201432
H2    H     H_    0.013046 0.717519 0.927851 0.134994
C31   C     C_R   0.541904 0.102608 0.239657 0.213073
C32   C     C_R   0.509628 0.100334 0.171020 -0.261146
C33   C     C_R   0.477937 0.168159 0.111827 0.300189
C34   C     C_R   0.461855 0.237368 0.124341 0.179455
C35   C     C_R   0.557203 0.243672 0.185330 -0.109874
C36   C     C_R   0.574888 0.175331 0.247840 0.009747
C37   C     C_R   0.625706 0.316489 0.185450 -0.147992
C38   C     C_R   0.664631 0.324494 0.252707 0.064229
C39   C     C_R   0.675540 0.256579 0.316302 -0.008932
C40   C     C_R   0.624544 0.182536 0.314709 -0.128864
C41   C     C_R   0.677933 0.398064 0.260639 0.080465
C42   C     C_R   0.739466 0.402706 0.325950 -0.123911
C43   C     C_R   0.773523 0.336386 0.385888 0.316018
C44   C     C_R   0.733411 0.264172 0.381612 -0.236666
H3    H     H_    0.503085 0.044721 0.165265 0.138008
H4    H     H_    0.749941 0.458579 0.331473 0.121318
H5    H     H_    0.748633 0.214021 0.430369 0.107682
O11   O     O_R   0.770540 0.084530 0.414050 -0.540783
O12   O     O_R   0.445710 0.065660 0.555720 -0.537115
O13   O     O_R   0.270420 0.915650 0.586190 -0.535154
C45   C     C_R   0.615357 0.081479 0.574592 0.705064
O14   O     O_R   0.441140 0.093540 0.412470 -0.535769
O15   O     O_R   0.265820 0.943740 0.441930 -0.532523
C46   C     C_R   0.610729 0.114830 0.383955 0.786637
O16   O     O_R   0.775150 0.056440 0.558310 -0.546909
O17   O     O_3   0.602370 0.950960 0.510050 -0.369216
V3    V     V_3+5 0.329450 0.009140 0.498150 1.427807
O18   O     O_R   0.935790 0.934280 0.444060 -0.536669
C47   C     C_R   0.102608 0.923272 0.421251 0.736455
O19   O     O_R   0.940370 0.906390 0.587310 -0.530390
C48   C     C_R   0.109412 0.881877 0.614260 0.855360
V4    V     V_3+5 0.828810 0.990710 0.501460 1.413819
O20   O     O_3   0.105780 0.049100 0.489960 -0.378154
C49   C     C_3   0.792229 0.324668 0.708146 -0.280166
C50   C     C_3   0.606863 0.311784 0.670417 0.300710
H6    H     H_    0.897275 0.372956 0.685598 0.121430
C51   C     C_1   0.624911 0.132268 0.615089 -0.227261
C52   C     C_1   0.650704 0.380522 0.872872 -0.230062
C53   C     C_3   0.826213 0.236552 0.730338 0.321869
C54   C     C_3   0.643051 0.224617 0.692538 0.040003
C55   C     C_3   0.714527 0.219143 0.800712 0.132557
C56   C     C_3   0.674321 0.306434 0.778712 0.071536
C57   C     C_3   0.527648 0.207716 0.762802 -0.257824
C58   C     C_3   0.490610 0.295770 0.739425 0.153635
C59   C     C_1   0.631057 0.174792 0.649047 -0.013263
C60   C     C_1   0.664151 0.347602 0.830333 -0.008755
H7    H     H_    0.420295 0.160611 0.785280 0.136314
C61   C     C_3   0.318663 0.604617 0.333203 -0.764836
H8    H     H_    0.322861 0.598135 0.390480 0.205009
H9    H     H_    0.232269 0.556279 0.327560 0.203229
H10   H     H_    0.466829 0.601814 0.315877 0.218271
N1    N     N_2   0.104777 0.977836 0.833505 -0.502466
H11   H     H_    0.007376 0.986341 0.868307 0.283162
C62   C     C_3   0.299428 0.998173 0.846680 -0.561724
H12   H     H_    0.297523 0.046143 0.867327 0.185417
H13   H     H_    0.383930 0.017386 0.796307 0.207782
H14   H     H_    0.371928 0.948279 0.887150 0.192098
N2    N     N_2   0.195144 0.963672 0.699627 -0.531267
H15   H     H_    0.341397 0.972842 0.699413 0.248072
C63   C     C_3   0.081846 0.032734 0.677091 -0.425351
H16   H     H_    0.100993 0.064211 0.618669 0.204648
H17   H     H_    0.132333 0.071287 0.704861 0.229201
H18   H     H_    0.927345 0.018328 0.688701 0.189986
N3    N     N_2   0.047171 0.771132 0.554983 -0.530870
H19   H     H_    0.119585 0.777267 0.508797 0.238974
C64   C     C_3   0.843132 0.757636 0.549694 -0.483255
H20   H     H_    0.784677 0.800812 0.499746 0.195900
H21   H     H_    0.766633 0.762865 0.596192 0.199121
H22   H     H_    0.814825 0.699231 0.548124 0.178434
N4    N     N_2   0.213893 0.628447 0.556188 -0.522226
H23   H     H_    0.244651 0.674417 0.509638 0.251876
C65   C     C_3   0.094455 0.568326 0.545986 -0.575551
H24   H     H_    0.941291 0.584326 0.542050 0.198610
H25   H     H_    0.112661 0.511708 0.590168 0.192368
H26   H     H_    0.137270 0.560254 0.496032 0.197400
N5    N     N_2   0.079830 0.529755 0.808527 -0.506603
H27   H     H_    0.933036 0.529888 0.814065 0.259005
C66   C     C_3   0.156598 0.453944 0.823471 -0.510091
H28   H     H_    0.132892 0.417760 0.880779 0.223147
H29   H     H_    0.313175 0.458253 0.813434 0.196971
H30   H     H_    0.080044 0.425965 0.790256 0.180997
N6    N     N_2   0.827016 0.342254 0.452858 -0.499081
H31   H     H_    0.818863 0.291056 0.496663 0.261209
C67   C     C_3   0.000675 0.386581 0.452412 -0.546976
H32   H     H_    0.023565 0.389593 0.506354 0.194894
H33   H     H_    0.989953 0.446829 0.413418 0.191225
H34   H     H_    0.126009 0.358471 0.438908 0.196744
N7    N     N_2   0.544890 0.031021 0.298693 -0.522003
H35   H     H_    0.420554 0.998837 0.302070 0.250724
C68   C     C_3   0.712676 0.985776 0.301457 -0.508979
H36   H     H_    0.702113 0.930853 0.348536 0.205880
H37   H     H_    0.844103 0.018572 0.305842 0.200493
H38   H     H_    0.722067 0.971144 0.252664 0.167623
N8    N     N_2   0.452405 0.168897 0.040542 -0.512311
H39   H     H_    0.513605 0.215873 0.000534 0.257362
C69   C     C_3   0.447389 0.097565 0.027226 -0.616532
H40   H     H_    0.409599 0.109553 0.970156 0.204050
H41   H     H_    0.334281 0.058957 0.060408 0.208413
H42   H     H_    0.589383 0.069560 0.039077 0.207697
N9    N     N_2   0.311937 0.290576 0.090236 -0.482436
H43   H     H_    0.257483 0.316341 0.123696 0.269694
C70   C     C_3   0.156362 0.267208 0.053217 -0.458040
H44   H     H_    0.034504 0.307085 0.044914 0.189352
H45   H     H_    0.102399 0.208008 0.085496 0.185850
H46   H     H_    0.202955 0.271081 0.999116 0.203179
C71   C     C_3   0.913783 0.660354 0.371792 -0.780814
H47   H     H_    0.761158 0.664356 0.356164 0.258020
H48   H     H_    0.951174 0.598568 0.388094 0.201192
H49   H     H_    0.936537 0.679826 0.417533 0.215697
C72   C     C_3   0.592739 0.470397 0.207229 -0.761566
H50   H     H_    0.451953 0.456625 0.188256 0.213303
H51   H     H_    0.558581 0.512200 0.232917 0.189877
H52   H     H_    0.692861 0.498800 0.162077 0.213788
N10   N     N_2   0.545722 0.359173 0.598603 -0.502969
H53   H     H_    0.416368 0.341353 0.584039 0.250205
C73   C     C_3   0.562702 0.441946 0.580022 -0.506606
H54   H     H_    0.517969 0.471822 0.523284 0.201814
H55   H     H_    0.713818 0.459033 0.585268 0.196917
H56   H     H_    0.469474 0.460900 0.614927 0.194945
C74   C     C_3   0.307538 0.336555 0.742175 -0.838531
H57   H     H_    0.211240 0.336556 0.698536 0.225091
H58   H     H_    0.237640 0.308545 0.795272 0.217268
H59   H     H_    0.344175 0.397614 0.732706 0.204387
C75   C     C_3   0.788066 0.166602 0.873576 -0.794689
H60   H     H_    0.784531 0.105610 0.876825 0.219481
H61   H     H_    0.937402 0.183799 0.881448 0.205939
H62   H     H_    0.697484 0.172563 0.916197 0.221450
N11   N     N_2   0.006117 0.202169 0.724176 -0.510546
H63   H     H_    0.104640 0.202565 0.762552 0.268688
C76   C     C_3   0.082235 0.225769 0.651867 -0.581082
H64   H     H_    0.234312 0.209033 0.653841 0.199388
H65   H     H_    0.072348 0.289123 0.623039 0.190418
H66   H     H_    0.002051 0.196733 0.620532 0.211272
N12   N     N_2   0.505389 0.781367 0.294962 -0.465761
H67   H     H_    0.554520 0.835676 0.263745 0.256638
C77   C     C_3   0.529198 0.767324 0.370711 -0.581716
H68   H     H_    0.682706 0.774214 0.382209 0.203946
H69   H     H_    0.478756 0.708179 0.404187 0.210713
H70   H     H_    0.453234 0.810691 0.385921 0.194633
N13   N     N_2   0.364052 0.823687 0.127947 -0.510031
H71   H     H_    0.433872 0.785664 0.110155 0.262246
C78   C     C_3   0.467163 0.895343 0.116083 -0.586808
H72   H     H_    0.431471 0.936566 0.061707 0.201290
H73   H     H_    0.622756 0.885918 0.116618 0.218458
H74   H     H_    0.432568 0.920404 0.156875 0.191936
N14   N     N_2   0.949265 0.883533 0.176505 -0.525694
H75   H     H_    0.831089 0.885134 0.206126 0.255148
C79   C     C_3   0.047692 0.957205 0.147580 -0.560321
H76   H     H_    0.941772 0.004425 0.132695 0.189328
H77   H     H_    0.121325 0.961017 0.097711 0.227754
H78   H     H_    0.148510 0.965318 0.187702 0.195537
N15   N     N_2   0.785641 0.726201 0.201514 -0.475859
H79   H     H_    0.763383 0.765499 0.150382 0.261998
C80   C     C_3   0.727911 0.649157 0.207670 -0.546909
H80   H     H_    0.570640 0.647700 0.200129 0.207008
H81   H     H_    0.768247 0.606167 0.260873 0.202763
H82   H     H_    0.793313 0.633898 0.164455 0.197565
N16   N     N_2   0.944620 0.846633 0.945483 -0.540479
H83   H     H_    0.826026 0.810877 0.963895 0.255931
C81   C     C_3   0.078814 0.839594 0.002815 -0.507029
H84   H     H_    0.000548 0.842339 0.049893 0.224870
H85   H     H_    0.185209 0.887863 0.985905 0.220218
H86   H     H_    0.153604 0.783536 0.019038 0.194016

loop_
_geom_bond_atom_site_label_1
_geom_bond_atom_site_label_2
_ccdc_geom_bond_type
C41   C72   S    
O14   C46   A    
C57   C58   S    
O12   C45   A    
N14   H75   S    
C57   H7    S    
C32   H3    S    
C28   C29   A    
C22   C26   A    
C5    C71   S    
C6    C14   S    
C54   C57   S    
C28   N4    S    
C1    O6    A    
O11   V4    S    
C67   H32   S    
C68   H38   S    
C63   H17   S    
N4    H23   S    
C81   H85   S    
C31   C32   A    
N3    H19   S    
C36   C40   A    
N16   C81   S    
C17   C22   A    
C53   C54   S    
C23   C24   A    
C69   H41   S    
C24   C27   A    
O5    C3    A    
C17   C18   A    
H1    C29   S    
C56   C58   S    
C40   C46   S    
V2    O10   S    
N13   H71   S    
C34   N9    S    
O16   V4    S    
C21   C22   A    
O13   V3    S    
C64   H20   S    
C63   H16   S    
C18   N16   S    
C76   H64   S    
O8    V2    S    
C49   C53   S    
O13   C48   A    
C75   H62   S    
C18   C19   A    
N5    C66   S    
N7    H35   S    
C35   C37   A    
C71   H49   S    
N1    C62   S    
C8    C47   S    
N14   C79   S    
C11   C12   S    
C69   H42   S    
C80   H80   S    
O15   C47   A    
C7    C15   T    
O7    V1    S    
C72   H51   S    
C77   H70   S    
O18   V4    S    
C30   N5    S    
C27   N3    S    
C51   C59   T    
C49   C56   S    
C44   H5    S    
C75   H61   S    
O1    C2    A    
O9    C4    A    
C53   N11   S    
N10   C73   S    
C50   C54   S    
C17   H2    S    
C50   N10   S    
C50   C58   S    
N11   C76   S    
N12   H67   S    
C70   H45   S    
C14   N12   S    
C5    C12   S    
N16   H83   S    
C1    C37   S    
C37   C38   A    
C73   H56   S    
C75   H60   S    
V4    O20   S    
C72   H52   S    
N9    C70   S    
O19   C48   A    
C43   N6    S    
O4    C2    A    
C49   C50   S    
N15   H79   S    
C68   H37   S    
C8    C16   T    
C45   O16   A    
C13   C14   S    
C58   C74   S    
C10   C13   S    
C61   H10   S    
C5    C9    S    
C20   N2    S    
N4    C65   S    
C73   H55   S    
O2    C1    A    
C79   H78   S    
O14   V3    S    
C24   C25   A    
C23   C48   S    
C70   H46   S    
C45   C51   S    
C33   C34   A    
C76   H66   S    
C81   H86   S    
O8    C3    A    
N1    H11   S    
C41   C42   A    
C61   H9    S    
C5    C6    S    
C72   H50   S    
C49   H6    S    
C76   H65   S    
C38   C39   A    
C69   H40   S    
N2    C63   S    
C64   H22   S    
C55   C56   S    
O17   V3    S    
O3    C4    A    
O19   V4    S    
C65   H25   S    
O1    V2    S    
N15   C80   S    
C27   C28   A    
C53   C55   S    
O12   V3    S    
C35   C36   A    
O6    V2    S    
C62   H13   S    
C10   C15   S    
C9    C11   S    
C56   C60   S    
N10   H53   S    
C71   H48   S    
C54   C59   S    
C78   H73   S    
N11   H63   S    
O2    V1    S    
C67   H34   S    
V3    O20   S    
C77   H68   S    
C70   H44   S    
C42   C43   A    
C32   C33   A    
C74   H57   S    
N6    C67   S    
C77   H69   S    
C19   N1    S    
C6    C10   S    
C55   C75   S    
C4    C7    S    
O18   C47   A    
C74   H59   S    
C12   C16   S    
C11   N14   S    
C12   C14   S    
N9    H43   S    
C67   H33   S    
O5    V1    S    
N12   C77   S    
C39   C44   A    
C38   C41   A    
C39   C40   A    
C68   H36   S    
N8    C69   S    
C62   H14   S    
C52   C60   T    
C65   H26   S    
O11   C46   A    
C6    C61   S    
C79   H76   S    
C66   H30   S    
O9    V2    S    
O7    V2    S    
O4    V1    S    
N13   C78   S    
O3    V1    S    
V1    O10   S    
C19   C20   A    
O17   V4    S    
C78   H74   S    
C43   C44   A    
C25   C26   A    
N3    C64   S    
C31   C36   A    
C3    C26   S    
N6    H31   S    
C34   C35   A    
C33   N8    S    
C74   H58   S    
C61   H8    S    
C13   N13   S    
C20   C21   A    
C65   H24   S    
C80   H82   S    
O15   V3    S    
C11   C13   S    
C9    N15   S    
N2    H15   S    
C73   H54   S    
C64   H21   S    
N8    H39   S    
C42   H4    S    
C55   C57   S    
C25   C30   A    
C2    C52   S    
C81   H84   S    
C21   C23   A    
C31   N7    S    
N7    C68   S    
C62   H12   S    
C29   C30   A    
C66   H28   S    
N5    H27   S    
C80   H81   S    
C78   H72   S    
C9    C10   S    
C66   H29   S    
C63   H18   S    
C79   H77   S    
C71   H47   S    
