data_mof_unit_13901.cif
_audit_creation_date              2012-12-10T17:35:03-0500
_audit_creation_method            fapswitch 2.2
_symmetry_space_group_name_H-M    P1
_symmetry_Int_Tables_number       1
_space_group_crystal_system       triclinic
_cell_length_a                    12.441316
_cell_length_b                    13.192487
_cell_length_c                    13.842985
_cell_angle_alpha                 106.817368
_cell_angle_beta                  73.957554
_cell_angle_gamma                 117.252338
_cell_volume                      1905.65444385

loop_
_atom_site_label
_atom_site_type_symbol
_atom_type_description
_atom_site_fract_x
_atom_site_fract_y
_atom_site_fract_z
_atom_type_partial_charge
C1    C     C_R   0.144221 0.713446 0.506743 0.814833
C2    C     C_1   0.977735 0.510955 0.792072 -0.085998
C3    C     C_R   0.733847 0.971325 0.359638 0.391450
C4    C     C_R   0.774045 0.162384 0.465179 -0.216596
C5    C     C_R   0.180333 0.921268 0.558842 -0.151110
C6    C     C_R   0.257961 0.038598 0.569184 -0.168425
C7    C     C_R   0.383505 0.073253 0.535121 -0.142407
C8    C     C_R   0.433831 0.990337 0.487928 0.114136
C9    C     C_R   0.351970 0.873087 0.461279 0.091557
C10   C     C_R   0.562456 0.020641 0.461852 -0.075147
C11   C     C_R   0.606458 0.939788 0.391144 -0.005427
C12   C     C_R   0.984197 0.504490 0.686290 0.836586
C13   C     C_R   0.522303 0.829699 0.352828 -0.113433
C14   C     C_R   0.397562 0.796588 0.387831 -0.182348
C15   C     C_R   0.648909 0.127133 0.506756 0.414456
C16   C     C_R   0.816168 0.083188 0.394536 -0.267773
C17   C     C_R   0.226158 0.837055 0.506490 -0.091104
C18   C     C_R   0.604002 0.601366 0.700312 -0.197496
C19   C     C_R   0.256337 0.353076 0.358264 0.467684
C20   C     C_R   0.351088 0.315929 0.332534 0.391789
C21   C     C_R   0.446518 0.371171 0.388141 -0.236738
C22   C     C_R   0.446220 0.459415 0.473309 -0.095906
C23   C     C_R   0.856042 0.285907 0.485993 0.859629
C24   C     C_R   0.341269 0.486870 0.505695 0.054206
C25   C     C_R   0.542759 0.512863 0.532904 -0.091234
C26   C     C_R   0.514749 0.556525 0.637849 -0.043856
C27   C     C_R   0.401543 0.563456 0.676531 0.335687
C28   C     C_R   0.331682 0.554134 0.607865 0.357767
C29   C     C_R   0.665869 0.525131 0.492699 0.544070
C30   C     C_R   0.719572 0.603362 0.658797 0.019155
C31   C     C_R   0.015209 0.494577 0.313614 0.823356
C32   C     C_1   0.020687 0.485804 0.207555 -0.070240
C33   C     C_2   0.024425 0.466407 0.012214 0.429982
C34   C     C_2   0.975007 0.523735 0.985989 -0.226608
C35   C     C_1   0.975082 0.517006 0.880781 0.135735
C36   C     C_1   0.023370 0.476926 0.118288 0.011171
Cu1   Cu    Cu3+1 0.899780 0.525060 0.522890 1.019947
Cu2   Cu    Cu3+1 0.100220 0.474940 0.477110 1.033090
H1    H     H_    0.934854 0.577882 0.044288 0.163010
H2    H     H_    0.337462 0.711805 0.352728 0.170465
H3    H     H_    0.785893 0.636570 0.708941 0.158778
H4    H     H_    0.586590 0.636500 0.781057 0.211224
H5    H     H_    0.516339 0.337956 0.368078 0.204132
H6    H     H_    0.912964 0.108799 0.364512 0.243592
H7    H     H_    0.551851 0.767219 0.296442 0.210933
H8    H     H_    0.084225 0.896542 0.592006 0.172700
H9    H     H_    0.438663 0.165466 0.542182 0.194599
H10   H     H_    0.221101 0.103125 0.606046 0.170840
N1    N     N_R   0.748810 0.563010 0.557590 -0.209748
N2    N     N_R   0.250540 0.437620 0.443020 -0.250215
O1    O     O_R   0.025040 0.682470 0.528790 -0.582824
O2    O     O_R   0.194310 0.640150 0.490130 -0.533587
O3    O     O_R   0.903380 0.524130 0.659910 -0.603124
O4    O     O_R   0.072660 0.481800 0.621240 -0.532307
O5    O     O_R   0.805690 0.359850 0.509870 -0.533871
O6    O     O_R   0.974960 0.317530 0.471210 -0.563656
O7    O     O_R   0.927340 0.518200 0.378760 -0.525452
O8    O     O_R   0.096620 0.475870 0.340090 -0.542474
Cl1   Cl    Cl    0.357332 0.607438 0.809898 -0.500219
Cl2   Cl    Cl    0.719637 0.524165 0.360504 -0.573778
Cl3   Cl    Cl    0.140164 0.277969 0.282534 -0.531084
O9    O     O_3   0.352239 0.227295 0.249638 -0.518429
C37   C     C_3   0.316160 0.125058 0.286238 -0.198520
H11   H     H_    0.308166 0.052216 0.219824 0.211524
H12   H     H_    0.224778 0.102231 0.336783 0.163071
H13   H     H_    0.385824 0.132816 0.327083 0.131417
Cl4   Cl    Cl    0.291627 0.673281 0.646345 -0.543340
Cl5   Cl    Cl    0.089600 0.376360 0.920983 -0.505400
Cl6   Cl    Cl    0.795123 0.875724 0.272845 -0.554905
O10   O     O_3   0.613182 0.196725 0.593154 -0.589289
C38   C     C_3   0.615939 0.163598 0.680231 -0.240940
H14   H     H_    0.710505 0.177904 0.683055 0.149186
H15   H     H_    0.551431 0.071478 0.683052 0.187563
H16   H     H_    0.586166 0.218507 0.749561 0.205690

loop_
_geom_bond_atom_site_label_1
_geom_bond_atom_site_label_2
_ccdc_geom_bond_type
C2    C35   T    
C37   H12   S    
C19   C20   A    
C18   C26   A    
C2    C12   S    
C7    C8    A    
C29   N1    A    
C26   C27   A    
Cu1   Cu2   S    
C6    H10   S    
C32   C36   T    
C31   O8    A    
C3    Cl6   S    
C10   C15   A    
C18   H4    S    
C5    C6    A    
Cu1   O1    S    
C5    C17   A    
C33   C36   S    
C34   C35   S    
Cu2   O8    S    
C8    C9    A    
C22   C25   A    
C30   H3    S    
O10   C38   S    
C18   C30   A    
C16   H6    S    
C12   O3    A    
Cu1   O3    S    
C37   H13   S    
C21   H5    S    
C21   C22   A    
C24   N2    A    
C25   C29   A    
C34   H1    S    
C23   O6    A    
C28   Cl4   S    
C38   H15   S    
C4    C23   S    
C25   C26   A    
C7    H9    S    
C4    C16   A    
C9    C14   A    
O9    C37   S    
Cu1   N1    S    
C31   C32   S    
Cu2   O4    S    
C29   Cl2   S    
C33   C34   D    
C1    O1    A    
C9    C17   A    
C30   N1    A    
C22   C24   A    
C15   O10   S    
C24   C28   A    
C38   H16   S    
C23   O5    A    
C6    C7    A    
Cu2   N2    S    
C5    H8    S    
C1    C17   S    
C31   O7    A    
C4    C15   A    
C38   H14   S    
C27   Cl1   S    
C13   H7    S    
C11   C13   A    
C19   N2    A    
C19   Cl3   S    
Cu2   O2    S    
C20   O9    S    
C1    O2    A    
Cu1   O7    S    
C3    C11   A    
C10   C11   A    
C14   H2    S    
C37   H11   S    
Cu1   O5    S    
Cu2   O6    S    
C20   C21   A    
C8    C10   A    
C27   C28   A    
C13   C14   A    
C12   O4    A    
C3    C16   A    
C33   Cl5   S    
