data_mof_unit_38506.cif
_audit_creation_date              2013-03-05T16:10:18-0500
_audit_creation_method            fapswitch 2.2
_symmetry_space_group_name_H-M    P1
_symmetry_Int_Tables_number       1
_space_group_crystal_system       triclinic
_cell_length_a                    8.242797
_cell_length_b                    15.163223
_cell_length_c                    18.709637
_cell_angle_alpha                 102.684313
_cell_angle_beta                  91.333421
_cell_angle_gamma                 98.81932
_cell_volume                      2250.48865302

loop_
_atom_site_label
_atom_site_type_symbol
_atom_site_description
_atom_site_fract_x
_atom_site_fract_y
_atom_site_fract_z
_atom_type_partial_charge
P1    P     P_3+3 0.039430 0.410940 0.333230 0.467444
O1    O     O_2   0.871960 0.437280 0.322960 -0.359229
O2    O     O_3   0.121410 0.444460 0.412450 -0.391556
O3    O     O_3   0.661450 0.607570 0.372550 -0.395657
O4    O     O_2   0.790505 0.543473 0.246455 -0.394988
O5    O     O_3   0.006222 0.290853 0.309169 -0.597746
O6    O     O_3   0.694011 0.701218 0.256502 -0.534447
H1    H     H_    0.752541 0.783336 0.360270 0.152932
C1    C     C_3   0.643050 0.855109 0.289388 -1.049948
H2    H     H_    0.760647 0.879034 0.266553 0.281751
H3    H     H_    0.542002 0.841807 0.246176 0.268202
P2    P     P_3+3 0.676770 0.715000 0.563590 0.460910
P3    P     P_3+3 0.131483 0.774303 0.415609 0.426220
O7    O     O_2   0.852310 0.726980 0.542430 -0.381275
O8    O     O_3   0.084010 0.657370 0.410280 -0.380878
O9    O     O_2   0.002763 0.820660 0.462472 -0.393462
O10   O     O_3   0.686463 0.746475 0.659967 -0.591819
O11   O     O_3   0.092470 0.793256 0.328244 -0.529980
C2    C     C_3   0.147048 0.724346 0.275666 0.478274
H4    H     H_    0.070039 0.656891 0.273536 0.140252
H5    H     H_    0.277519 0.720057 0.287747 0.010692
C3    C     C_3   0.132631 0.746360 0.200554 -0.971847
H6    H     H_    0.002152 0.748137 0.185626 0.284275
H7    H     H_    0.207601 0.813983 0.201142 0.255096
C4    C     C_3   0.239661 0.748063 0.634265 0.416645
H8    H     H_    0.310880 0.705057 0.595382 0.070195
H9    H     H_    0.125892 0.755290 0.605270 0.090764
C5    C     C_3   0.345107 0.843284 0.661450 -0.445529
H10   H     H_    0.470790 0.834554 0.676034 0.235768
Ba1   Ba    Ba6+2 0.853520 0.540910 0.466490 1.524917
C6    C     C_3   0.932786 0.253436 0.364673 0.352314
H11   H     H_    0.830834 0.289881 0.384645 0.083250
H12   H     H_    0.023791 0.263308 0.411593 0.088774
C7    C     C_3   0.862249 0.150081 0.334656 0.094944
H13   H     H_    0.740785 0.137091 0.357017 0.149328
C8    C     C_3   0.775738 0.695851 0.695751 0.687579
H14   H     H_    0.850683 0.653656 0.658332 0.094818
C9    C     C_3   0.653370 0.635875 0.730864 -0.822055
H15   H     H_    0.710271 0.616767 0.778287 0.191780
H16   H     H_    0.605815 0.573898 0.688303 0.270660
P4    P     P_3+3 0.150290 0.589140 0.666780 0.454086
O12   O     O_2   0.317750 0.562750 0.677090 -0.357205
O13   O     O_3   0.068300 0.555620 0.587560 -0.404349
O14   O     O_3   0.528270 0.392500 0.627460 -0.374917
O15   O     O_3   0.199282 0.708852 0.693913 -0.591798
P5    P     P_3+3 0.066469 0.226327 0.586876 0.447892
O16   O     O_3   0.609290 0.386840 0.459690 -0.363299
O17   O     O_3   0.105700 0.342700 0.589730 -0.336616
O18   O     O_2   0.198242 0.183262 0.540530 -0.398262
O19   O     O_3   0.118114 0.213612 0.674799 -0.516643
Ba2   Ba    Ba6+2 0.336320 0.459170 0.533520 1.531689
P6    P     P_3+3 0.648648 0.593269 0.277318 0.435279
C10   C     C_3   0.654701 0.768011 0.315475 0.516469
H17   H     H_    0.535045 0.745828 0.337281 0.023254
O20   O     O_3   0.580430 0.613240 0.540320 -0.384142
C11   C     C_3   0.375587 0.188730 0.297795 0.727407
H18   H     H_    0.268820 0.189752 0.332379 0.098486
C12   C     C_3   0.410610 0.090417 0.271632 -1.063384
H19   H     H_    0.293722 0.041661 0.256809 0.236635
H20   H     H_    0.483692 0.083982 0.222243 0.270483
P7    P     P_3+3 0.517378 0.270627 0.431209 0.396414
O21   O     O_2   0.337390 0.273050 0.457610 -0.386137
O22   O     O_3   0.517497 0.247122 0.334079 -0.586876
H21   H     H_    0.177827 0.693197 0.158652 0.226509
C13   C     C_3   0.984270 0.225720 0.718670 0.298507
H22   H     H_    0.940628 0.291208 0.717017 0.075441
H23   H     H_    0.883264 0.166813 0.699749 0.068503
C14   C     C_3   0.039644 0.229172 0.797874 -0.284376
H24   H     H_    0.121374 0.295446 0.820782 0.219729
H25   H     H_    0.110547 0.172727 0.799234 0.212539
P8    P     P_3+3 0.549119 0.399083 0.721130 0.444800
C15   C     C_3   0.528804 0.224668 0.679691 0.573195
H26   H     H_    0.662533 0.240214 0.672611 -0.039799
O23   O     O_2   0.423449 0.458732 0.757055 -0.374820
O24   O     O_3   0.479365 0.290346 0.736735 -0.514244
H27   H     H_    0.532424 0.078528 0.653420 0.231900
C16   C     C_3   0.491387 0.130813 0.697493 -1.043880
H28   H     H_    0.556762 0.131436 0.750174 0.256356
C17   C     C_R   0.991979 0.455113 0.046901 -0.014548
C18   C     C_R   0.904189 0.398769 0.090392 0.266061
C19   C     C_R   0.761141 0.442208 0.955165 -0.226461
C20   C     C_R   0.929698 0.464841 0.977321 0.099142
C21   C     C_R   0.705491 0.436916 0.883463 -0.177364
C22   C     C_R   0.814446 0.461226 0.832036 0.010293
C23   C     C_R   0.977595 0.502810 0.856833 0.016546
C24   C     C_R   0.035484 0.505565 0.930223 -0.005563
C25   C     C_R   0.763112 0.449156 0.757538 0.129431
C26   C     C_R   0.873658 0.480632 0.708970 -0.484411
C27   C     C_R   0.027597 0.533397 0.734028 0.278405
C28   C     C_R   0.080224 0.544375 0.809301 -0.081162
C29   C     C_R   0.154692 0.498465 0.072531 0.000397
C30   C     C_R   0.216909 0.495489 0.144144 -0.002958
C31   C     C_R   0.113975 0.454869 0.191916 -0.118524
C32   C     C_R   0.961350 0.404431 0.162683 -0.066017
H29   H     H_    0.833494 0.470830 0.651909 0.179790
H30   H     H_    0.575819 0.413622 0.869318 0.183605
H31   H     H_    0.889723 0.361957 0.193838 0.169701
C33   C     C_R   0.227056 0.600430 0.840017 -0.114985
C34   C     C_R   0.280780 0.609136 0.913411 0.272955
C35   C     C_R   0.195552 0.551646 0.956688 -0.012921
C36   C     C_R   0.258785 0.541729 0.026045 0.083529
C37   C     C_R   0.427557 0.565496 0.047557 -0.229178
C38   C     C_R   0.383214 0.531709 0.167258 -0.039757
C39   C     C_R   0.487454 0.563393 0.117031 -0.129257
C40   C     C_R   0.444510 0.528735 0.237753 0.167573
C41   C     C_R   0.343108 0.484382 0.283268 -0.230746
C42   C     C_R   0.173325 0.456667 0.264708 0.225326
H32   H     H_    0.297348 0.642837 0.808516 0.170551
H33   H     H_    0.618465 0.583195 0.129407 0.178240
H34   H     H_    0.517852 0.582339 0.009911 0.163964
C43   C     C_R   0.858477 0.173918 0.544333 0.149293
C44   C     C_R   0.792967 0.080706 0.537482 -0.066501
C45   C     C_R   0.651489 0.895282 0.534046 -0.082070
C46   C     C_R   0.798795 0.939787 0.577372 0.332539
C47   C     C_R   0.876819 0.024733 0.568928 -0.205975
C48   C     C_R   0.583958 0.799385 0.523053 0.269815
H35   H     H_    0.996672 0.051359 0.596464 0.178353
C49   C     C_R   0.434619 0.765576 0.481745 -0.552833
C50   C     C_R   0.614173 0.194856 0.478626 0.168911
C51   C     C_R   0.544471 0.102349 0.474331 -0.015870
C52   C     C_R   0.634591 0.044834 0.503740 0.043468
C53   C     C_R   0.386495 0.065955 0.442384 -0.151639
C54   C     C_R   0.320084 0.975128 0.436736 -0.152604
C55   C     C_R   0.408344 0.916179 0.463747 0.007719
C56   C     C_R   0.566267 0.951353 0.499370 -0.044673
C57   C     C_R   0.341992 0.823339 0.456254 0.167479
C58   C     C_R   0.766660 0.230053 0.516218 -0.495210
H36   H     H_    0.198239 0.952454 0.410535 0.190041
H37   H     H_    0.311617 0.106566 0.420142 0.166086
H38   H     H_    0.384578 0.693501 0.472847 0.181908
H39   H     H_    0.817794 0.301301 0.520715 0.175905
H40   H     H_    0.351096 0.880755 0.616645 0.174721
C59   C     C_3   0.285646 0.903302 0.729058 -0.849854
H41   H     H_    0.379399 0.965364 0.748896 0.252968
H42   H     H_    0.170395 0.925969 0.715119 0.244552
H43   H     H_    0.268425 0.866944 0.774441 0.282995
C60   C     C_3   0.832543 0.123411 0.250759 -0.764204
H44   H     H_    0.950702 0.128015 0.223565 0.246995
H45   H     H_    0.757041 0.169742 0.232130 0.241172
H46   H     H_    0.766715 0.051847 0.233284 0.230352
C61   C     C_3   0.964439 0.085229 0.360562 -0.998936
H47   H     H_    0.067305 0.072266 0.325072 0.256976
H48   H     H_    0.013407 0.112611 0.417981 0.255209
H49   H     H_    0.886254 0.018166 0.358261 0.270677
C62   C     C_3   0.886889 0.762451 0.757303 -0.980296
H50   H     H_    0.813047 0.805008 0.795505 0.257856
H51   H     H_    0.956337 0.724840 0.788868 0.231198
H52   H     H_    0.976191 0.808556 0.734291 0.262424
H53   H     H_    0.551970 0.672943 0.751991 0.258745
H54   H     H_    0.617210 0.909533 0.335934 0.232361
C63   C     C_3   0.329209 0.222449 0.229795 -0.917541
H55   H     H_    0.227933 0.173280 0.195845 0.226037
H56   H     H_    0.287052 0.289211 0.245471 0.232456
H57   H     H_    0.436911 0.230436 0.195727 0.246431
H58   H     H_    0.480731 0.069155 0.313974 0.250784
C64   C     C_3   0.893494 0.219273 0.845552 -1.031908
H59   H     H_    0.820685 0.149396 0.828137 0.269604
H60   H     H_    0.938689 0.230159 0.903666 0.281428
H61   H     H_    0.813064 0.270266 0.841078 0.285103
H62   H     H_    0.460295 0.222066 0.627330 0.153291
H63   H     H_    0.357046 0.111987 0.702019 0.287214
C65   C     C_3   0.421272 0.455588 0.346553 -0.528286
H64   H     H_    0.420420 0.508232 0.397990 0.243619
H65   H     H_    0.357416 0.389249 0.354333 0.213672
H66   H     H_    0.547775 0.442290 0.335398 0.251620
H67   H     H_    0.668849 0.429419 0.993069 0.165402
C66   C     C_3   0.765651 0.320366 0.060466 -1.050929
H68   H     H_    0.645572 0.340778 0.076587 0.256895
H69   H     H_    0.766608 0.295382 0.000270 0.270393
H70   H     H_    0.779828 0.260049 0.083365 0.249340
C67   C     C_3   0.411075 0.691248 0.944732 -1.035369
H71   H     H_    0.407544 0.714352 0.005088 0.267332
H72   H     H_    0.534553 0.675888 0.928998 0.255084
H73   H     H_    0.388730 0.750774 0.922418 0.251315
C68   C     C_3   0.854508 0.916428 0.646683 -0.935825
H74   H     H_    0.747492 0.903564 0.679522 0.265331
H75   H     H_    0.928976 0.861361 0.634531 0.278341
H76   H     H_    0.934261 0.975252 0.683721 0.205262

loop_
_geom_bond_atom_site_label_1
_geom_bond_atom_site_label_2
_geom_bond_distance
_ccdc_geom_bond_type
P4    C27   1.893257 S    
C67   H71   1.108904 S    
C7    C61   1.534847 S    
C31   C32   1.398578 A    
P7    C50   1.854568 S    
P4    O12   1.514446 D    
C40   C41   1.410098 A    
C2    H4    1.110210 S    
C22   C25   1.411401 A    
C67   H73   1.111662 S    
Ba1   Ba2   4.572662 S    
C62   H50   1.111703 S    
C54   C55   1.401552 A    
C66   H69   1.107230 S    
C16   H28   1.109765 S    
C4    C5    1.539791 S    
C67   H72   1.110571 S    
P5    O18   1.539730 D    
C36   C37   1.408434 A    
P3    O11   1.751565 S    
O3    P6    1.745674 S    
C21   C22   1.400966 A    
P1    Ba1   3.375577 S    
C5    H10   1.099995 S    
C2    H5    1.108377 S    
C29   C36   1.426784 A    
O6    P6    1.752103 S    
C7    H13   1.100657 S    
C61   H48   1.105424 S    
C23   C24   1.432844 A    
C9    H15   1.107430 S    
C45   C56   1.428781 A    
C41   C42   1.410216 A    
C12   H20   1.109323 S    
C33   H32   1.079178 S    
C11   H18   1.104396 S    
O14   P8    1.736308 S    
P1    O1    1.514074 D    
C63   H57   1.111904 S    
P7    O22   1.773484 S    
C35   C36   1.434009 A    
C30   C38   1.415989 A    
C62   H51   1.110860 S    
O17   Ba2   2.778103 S    
C68   H74   1.103976 S    
C48   C49   1.401293 A    
C14   H24   1.112315 S    
C13   H23   1.111619 S    
P2    O10   1.757643 S    
C59   H43   1.110066 S    
C19   H67   1.076819 S    
C6    H12   1.110395 S    
O4    P6    1.543204 D    
O10   C8    1.398197 S    
C68   H76   1.111520 S    
C24   C35   1.417464 A    
C1    H2    1.110520 S    
C53   H37   1.072574 S    
C17   C29   1.422031 A    
O12   Ba2   2.818812 S    
C45   C48   1.442810 A    
C41   C65   1.511773 S    
O5    C6    1.396202 S    
C26   H29   1.081758 S    
P8    O24   1.750120 S    
P5    C43   1.856149 S    
P4    O13   1.558569 S    
Ba2   O21   2.868772 S    
O7    Ba1   2.868458 S    
C15   O24   1.405285 S    
C19   C21   1.389003 A    
C51   C53   1.398574 A    
C19   C20   1.408722 A    
C66   H70   1.111851 S    
C65   H65   1.102545 S    
C53   C54   1.381954 A    
C16   H63   1.110377 S    
C60   H46   1.110960 S    
P5    O17   1.733223 S    
C1    H54   1.109822 S    
C6    C7    1.558334 S    
C5    C59   1.525966 S    
Ba1   O16   2.818179 S    
C2    C3    1.520161 S    
H27   C16   1.109519 S    
C68   H75   1.098177 S    
C61   H49   1.108963 S    
C29   C30   1.435938 A    
O2    Ba2   2.790885 S    
O11   C2    1.405431 S    
O16   Ba2   2.899938 S    
C32   H31   1.080463 S    
C47   H35   1.080306 S    
C12   H19   1.109448 S    
C10   H17   1.108890 S    
P1    O5    1.753494 S    
P1    O2    1.558542 S    
O2    Ba1   2.912373 S    
C52   C56   1.426616 A    
C15   C16   1.519791 S    
C49   H38   1.082094 S    
P8    O23   1.547769 D    
C65   H66   1.107985 S    
C60   H45   1.110783 S    
C6    H11   1.103439 S    
C63   H55   1.110277 S    
C13   C14   1.527798 S    
C11   O22   1.412292 S    
C38   C40   1.413865 A    
C22   C23   1.415560 A    
C11   C63   1.532696 S    
C37   C39   1.388341 A    
C1    H3    1.110673 S    
P1    C42   1.887851 S    
P8    C25   1.859604 S    
P3    C57   1.853819 S    
O14   Ba2   2.784924 S    
C14   H25   1.112210 S    
C46   C68   1.497287 S    
P2    O7    1.503666 D    
P6    C40   1.858999 S    
C13   H22   1.113077 S    
P3    O8    1.736289 S    
C43   C58   1.396305 A    
C59   H41   1.109416 S    
C3    H7    1.110783 S    
Ba1   O13   2.790240 S    
C37   H34   1.077219 S    
C1    C10   1.520343 S    
O6    C10   1.405243 S    
C18   C32   1.402026 A    
C18   C66   1.514103 S    
C4    O15   1.399180 S    
C66   H68   1.110540 S    
C62   H52   1.097756 S    
C51   C52   1.416170 A    
O8    Ba1   2.777371 S    
C55   C57   1.405066 A    
C45   C46   1.431618 A    
C60   H44   1.109121 S    
C64   H59   1.110536 S    
C9    H53   1.110233 S    
C43   C44   1.410280 A    
P2    Ba1   3.404089 S    
C64   H61   1.107901 S    
C15   H26   1.108606 S    
C14   C64   1.524104 S    
H1    C10   1.110114 S    
O16   P7    1.767095 S    
C17   C20   1.434053 A    
C50   C51   1.416103 A    
C46   C47   1.392035 A    
P4    Ba2   3.376133 S    
C65   H64   1.108187 S    
Ba1   O20   2.900778 S    
P5    O19   1.748215 S    
C7    C60   1.536354 S    
C15   H62   1.109332 S    
C34   C35   1.434475 A    
O1    Ba1   2.818285 S    
C23   C28   1.421752 A    
C8    C9    1.512601 S    
C4    H8    1.108167 S    
C44   C52   1.411288 A    
C20   C24   1.423987 A    
C61   H47   1.103846 S    
C31   C42   1.429494 A    
C9    H16   1.102171 S    
O13   Ba2   2.913279 S    
C54   H36   1.079075 S    
C39   H33   1.080906 S    
C21   H30   1.080405 S    
C64   H60   1.109828 S    
C30   C31   1.419498 A    
C11   C12   1.537316 S    
Ba2   O20   2.817600 S    
C63   H56   1.101732 S    
P7    O21   1.577743 D    
O19   C13   1.400960 S    
C58   H39   1.081980 S    
P2    O20   1.585623 S    
C12   H58   1.101649 S    
C3    H21   1.109674 S    
C17   C18   1.434861 A    
C8    C62   1.530333 S    
C34   C67   1.512394 S    
C26   C27   1.402250 A    
C25   C26   1.406936 A    
C8    H14   1.107121 S    
C33   C34   1.404751 A    
P3    O9    1.545936 D    
C38   C39   1.400517 A    
C59   H42   1.102989 S    
P4    O15   1.754083 S    
C3    H6    1.110707 S    
C49   C57   1.396104 A    
C5    H40   1.109264 S    
C27   C28   1.430296 A    
C28   C33   1.398291 A    
C44   C47   1.387248 A    
O3    Ba1   2.785436 S    
C55   C56   1.419084 A    
P2    C48   1.870052 S    
C4    H9    1.104390 S    
C50   C58   1.395591 A    
