data_mof_unit_53372.cif
_audit_creation_date              2012-12-11T15:14:52-0500
_audit_creation_method            fapswitch 2.2
_symmetry_space_group_name_H-M    P1
_symmetry_Int_Tables_number       1
_space_group_crystal_system       triclinic
_cell_length_a                    11.263314
_cell_length_b                    11.249769
_cell_length_c                    18.435234
_cell_angle_alpha                 90.045752
_cell_angle_beta                  89.604348
_cell_angle_gamma                 120.465373
_cell_volume                      2013.35727573

loop_
_atom_site_label
_atom_site_type_symbol
_atom_type_description
_atom_site_fract_x
_atom_site_fract_y
_atom_site_fract_z
_atom_type_partial_charge
C1    C     C_R   0.518385 0.455087 0.645760 0.542870
C2    C     C_R   0.423867 0.542614 0.362961 0.540842
C3    C     C_R   0.461151 0.893703 0.138022 0.545353
C4    C     C_R   0.065241 0.544389 0.355299 0.570132
C5    C     C_3   0.363522 0.942797 0.486435 -0.106473
C6    C     C_3   0.597016 0.613684 0.017308 -0.097728
C7    C     C_3   0.969909 0.382276 0.474486 -0.088862
C8    C     C_3   0.377360 0.969068 0.017884 -0.096409
C9    C     C_3   0.589125 0.601573 0.478999 -0.100954
C10   C     C_3   0.995468 0.391572 0.020792 -0.092791
C11   C     C_3   0.089375 0.492328 0.961498 -0.162106
C12   C     C_R   0.928807 0.478580 0.856711 0.550878
C13   C     C_3   0.514723 0.617095 0.545614 -0.165869
C14   C     C_3   0.398220 0.887332 0.956967 -0.164684
C15   C     C_3   0.054830 0.478873 0.536708 -0.131248
C16   C     C_3   0.500910 0.603966 0.955670 -0.165117
C17   C     C_3   0.405892 0.874161 0.545390 -0.163907
C18   C     C_3   0.477654 0.087027 0.511075 -0.115298
C19   C     C_3   0.591726 0.481207 0.989579 -0.115145
C20   C     C_3   0.841349 0.386258 0.501172 -0.134647
C21   C     C_3   0.502953 0.104334 0.989821 -0.115247
C22   C     C_3   0.562876 0.461509 0.508310 -0.113145
C23   C     C_R   0.547043 0.067533 0.643703 0.536156
C24   C     C_3   0.871188 0.397800 0.990160 -0.120520
C25   C     C_3   0.120791 0.616058 0.011041 -0.164536
C26   C     C_3   0.375766 0.540755 0.504763 -0.189899
C27   C     C_3   0.496849 0.866454 0.006130 -0.174726
C28   C     C_3   0.092882 0.605782 0.488965 -0.155840
C29   C     C_3   0.373875 0.512740 0.004195 -0.179157
C30   C     C_3   0.511286 0.872088 0.491950 -0.168976
C31   C     C_3   0.518354 0.016428 0.569248 0.026382
C32   C     C_3   0.496071 0.474947 0.929481 0.027711
C33   C     C_3   0.927885 0.481917 0.562303 0.019963
C34   C     C_R   0.519859 0.452228 0.855632 0.546363
C35   C     C_3   0.521412 0.020001 0.930185 0.027283
C36   C     C_3   0.490208 0.481131 0.573380 0.031975
C37   C     C_3   0.967912 0.498285 0.932176 0.025255
C38   C     C_3   0.025123 0.515127 0.068805 0.038067
C39   C     C_3   0.450560 0.523969 0.439183 0.020594
C40   C     C_3   0.477215 0.948405 0.065253 0.034432
C41   C     C_3   0.007042 0.509156 0.427956 0.035602
C42   C     C_3   0.469606 0.520992 0.064316 0.031066
C43   C     C_3   0.469202 0.938891 0.434909 0.035369
C44   C     C_3   0.623788 0.014444 0.515929 0.099932
C45   C     C_R   0.882080 0.458468 0.637850 0.538857
C46   C     C_3   0.368644 0.381993 0.976835 0.110875
C47   C     C_3   0.966204 0.610128 0.515220 0.110034
C48   C     C_3   0.621179 0.999821 0.978881 0.109272
C49   C     C_3   0.350649 0.402600 0.534781 0.110308
C50   C     C_3   0.998331 0.622501 0.980727 0.110378
C51   C     C_3   0.903336 0.522745 0.039781 0.088692
C52   C     C_3   0.423256 0.384413 0.468600 0.129301
C53   C     C_3   0.601460 0.081978 0.039409 0.100578
C54   C     C_3   0.880921 0.515276 0.452837 0.090420
C55   C     C_3   0.463657 0.389695 0.037974 0.109506
C56   C     C_R   0.546888 0.067484 0.855837 0.542633
C57   C     C_3   0.581362 0.081637 0.456859 0.097116
C58   C     C_R   0.432926 0.538609 0.137594 0.548924
C59   C     C_R   0.456366 0.885035 0.362090 0.532763
C60   C     C_R   0.070156 0.546456 0.143557 0.576762
Cr1   Cr    Cr6+3 0.769930 0.543130 0.750000 1.087175
Cr2   Cr    Cr6+3 0.773200 0.230070 0.750000 1.095704
Cr3   Cr    Cr6+3 0.456870 0.226800 0.750000 1.089112
Cr4   Cr    Cr6+3 0.543130 0.769930 0.250000 1.098030
Cr5   Cr    Cr6+3 0.230070 0.773200 0.250000 1.099892
Cr6   Cr    Cr6+3 0.226800 0.456870 0.250000 1.092621
H1    H     H_    0.468613 0.176939 0.526861 0.143826
H2    H     H_    0.195462 0.690895 0.475651 0.100923
H3    H     H_    0.293397 0.531489 0.023500 0.105228
H4    H     H_    0.535686 0.797843 0.469016 0.129354
H5    H     H_    0.258308 0.916924 0.470824 0.188730
H6    H     H_    0.689036 0.710455 0.035377 0.196555
H7    H     H_    0.974858 0.292477 0.453634 0.196723
H8    H     H_    0.277808 0.955720 0.037106 0.195052
H9    H     H_    0.685300 0.691995 0.458642 0.194362
H10   H     H_    0.997260 0.298665 0.039234 0.196799
H11   H     H_    0.160289 0.481116 0.923802 0.153785
H12   H     H_    0.677419 0.464997 0.975369 0.124763
H13   H     H_    0.552438 0.707932 0.581802 0.164585
H14   H     H_    0.320302 0.810592 0.919490 0.147255
H15   H     H_    0.123565 0.470543 0.576279 0.165944
H16   H     H_    0.514498 0.685783 0.917122 0.154176
H17   H     H_    0.337311 0.789737 0.583133 0.139142
H18   H     H_    0.739967 0.301214 0.517512 0.108779
H19   H     H_    0.507961 0.201926 0.975146 0.132181
H20   H     H_    0.636757 0.426531 0.514875 0.109261
H21   H     H_    0.769801 0.311838 0.973819 0.122147
H22   H     H_    0.220283 0.698007 0.030837 0.107342
H23   H     H_    0.307076 0.581541 0.498868 0.099246
H24   H     H_    0.493407 0.775339 0.028038 0.108885
I1    I     I_    0.813295 0.026950 0.535602 -0.266964
I2    I     I_    0.785071 0.564668 0.364976 -0.190100
I3    I     I_    0.420955 0.234285 0.120024 -0.183765
I4    I     I_    0.682387 0.208959 0.362543 -0.183213
I5    I     I_    0.186176 0.201127 0.945181 -0.241649
I6    I     I_    0.975091 0.797183 0.546214 -0.248025
I7    I     I_    0.805433 0.003953 0.950265 -0.255860
I8    I     I_    0.167479 0.239225 0.582970 -0.231543
I9    I     I_    0.004977 0.807464 0.949570 -0.249733
I10   I     I_    0.793981 0.561717 0.125702 -0.202851
I11   I     I_    0.323968 0.194703 0.406297 -0.202384
I12   I     I_    0.734521 0.202691 0.128100 -0.205198
O1    O     O_R   0.913270 0.574260 0.668550 -0.476404
O2    O     O_R   0.574260 0.913270 0.331450 -0.463441
O3    O     O_R   0.086730 0.660990 0.168550 -0.478478
O4    O     O_R   0.339010 0.425740 0.331450 -0.444823
O5    O     O_R   0.640160 0.530400 0.673300 -0.505327
O6    O     O_R   0.890240 0.359840 0.826700 -0.486611
O7    O     O_R   0.469600 0.109760 0.673300 -0.496832
O8    O     O_R   0.640160 0.530400 0.826700 -0.494978
O9    O     O_R   0.890240 0.359840 0.673300 -0.478658
O10   O     O_R   0.469600 0.109760 0.826700 -0.491909
O11   O     O_R   0.530400 0.640160 0.173300 -0.482839
O12   O     O_R   0.660990 0.086730 0.831450 -0.485391
O13   O     O_R   0.359840 0.890240 0.326700 -0.466078
O14   O     O_R   0.109760 0.469600 0.173300 -0.507859
O15   O     O_R   0.530400 0.640160 0.326700 -0.481116
O16   O     O_R   0.359840 0.890240 0.173300 -0.474851
O17   O     O_R   0.109760 0.469600 0.326700 -0.511077
O18   O     O_3   0.666667 0.333333 0.750000 -0.340880
O19   O     O_3   0.333333 0.666667 0.250000 -0.388980
O20   O     O_R   0.425740 0.339010 0.668550 -0.486793
O21   O     O_R   0.913270 0.574260 0.831450 -0.483532
O22   O     O_R   0.660990 0.086730 0.668550 -0.485375
O23   O     O_R   0.425740 0.339010 0.831450 -0.485262
O24   O     O_R   0.574260 0.913270 0.168550 -0.461623
O25   O     O_R   0.086730 0.660990 0.331450 -0.482191
O26   O     O_R   0.339010 0.425740 0.168550 -0.454344

loop_
_geom_bond_atom_site_label_1
_geom_bond_atom_site_label_2
_ccdc_geom_bond_type
C27   C48   S    
C21   C53   S    
C13   H13   S    
C28   C47   S    
C58   O26   A    
C13   C26   S    
C37   C50   S    
C29   C42   S    
C33   C45   S    
C60   O3    A    
C55   I3    S    
C42   C58   S    
Cr2   O22   S    
C3    O24   A    
C7    H7    S    
C26   H23   S    
C6    H6    S    
C48   I7    S    
C50   I9    S    
Cr6   O14   S    
C59   O2    A    
Cr5   O25   S    
Cr1   O1    S    
Cr2   O12   S    
C42   C55   S    
C9    C22   S    
Cr2   O6    S    
C4    C41   S    
C35   C48   S    
Cr4   O19   S    
C28   C41   S    
C9    C39   S    
C27   H24   S    
Cr3   O10   S    
C11   C37   S    
C9    C13   S    
C1    O20   A    
C11   H11   S    
C49   I8    S    
C25   C50   S    
C10   H10   S    
C2    C39   S    
C46   I5    S    
C7    C41   S    
C46   C55   S    
C58   O11   A    
Cr5   O16   S    
C4    O17   A    
Cr5   O19   S    
C14   C27   S    
C45   O1    A    
Cr1   O21   S    
C53   I12   S    
Cr2   O18   S    
C43   C59   S    
C24   C51   S    
C7    C15   S    
C39   C52   S    
C5    C43   S    
Cr1   O18   S    
C17   C30   S    
Cr5   O13   S    
C30   C44   S    
Cr6   O4    S    
Cr1   O8    S    
Cr5   O3    S    
C30   H4    S    
C2    O15   A    
C50   C51   S    
C29   H3    S    
C48   C53   S    
C23   O7    A    
C21   H19   S    
C52   I11   S    
C31   C44   S    
Cr2   O9    S    
C13   C36   S    
C15   H15   S    
C40   C53   S    
C26   C49   S    
C14   C35   S    
C12   O6    A    
C38   C51   S    
C10   C24   S    
C16   C29   S    
C2    O4    A    
C25   H22   S    
Cr4   O15   S    
C17   H17   S    
C32   C34   S    
Cr3   O7    S    
C19   H12   S    
C54   I2    S    
C6    C19   S    
C3    O16   A    
C25   C38   S    
C26   C39   S    
C18   C57   S    
C44   C57   S    
C47   I6    S    
C49   C52   S    
C19   C32   S    
C8    H8    S    
C8    C21   S    
Cr6   O19   S    
Cr3   O23   S    
C44   I1    S    
C1    O5    A    
C47   C54   S    
C38   C60   S    
C20   C33   S    
C20   C54   S    
C3    C40   S    
C7    C20   S    
C14   H14   S    
C57   I4    S    
C20   H18   S    
C6    C42   S    
C33   C47   S    
C30   C43   S    
C60   O14   A    
C16   C32   S    
Cr3   O20   S    
C8    C40   S    
C22   C52   S    
C19   C55   S    
C51   I10   S    
Cr4   O2    S    
C8    C14   S    
Cr4   O11   S    
C4    O25   A    
C28   H2    S    
C35   C56   S    
C32   C46   S    
C15   C33   S    
C45   O9    A    
C23   O22   A    
C5    C18   S    
C24   C37   S    
C22   C36   S    
Cr4   O24   S    
C10   C38   S    
C29   C46   S    
Cr6   O17   S    
C21   C35   S    
C18   H1    S    
C5    H5    S    
C27   C40   S    
Cr3   O18   S    
C15   C28   S    
C12   O21   A    
C34   O23   A    
C17   C31   S    
Cr6   O26   S    
C22   H20   S    
Cr1   O5    S    
C24   H21   S    
C41   C54   S    
C10   C11   S    
C43   C57   S    
C6    C16   S    
C56   O12   A    
C5    C17   S    
C59   O13   A    
C16   H16   S    
C12   C37   S    
C11   C25   S    
C18   C31   S    
C9    H9    S    
C34   O8    A    
C56   O10   A    
C36   C49   S    
C1    C36   S    
C23   C31   S    
