data_mof_unit_54238.cif
_audit_creation_date              2012-12-11T16:18:00-0500
_audit_creation_method            fapswitch 2.2
_symmetry_space_group_name_H-M    P1
_symmetry_Int_Tables_number       1
_space_group_crystal_system       triclinic
_cell_length_a                    8.312132
_cell_length_b                    15.088769
_cell_length_c                    17.273248
_cell_angle_alpha                 96.400315
_cell_angle_beta                  95.59519
_cell_angle_gamma                 98.124153
_cell_volume                      2117.12990962

loop_
_atom_site_label
_atom_site_type_symbol
_atom_type_description
_atom_site_fract_x
_atom_site_fract_y
_atom_site_fract_z
_atom_type_partial_charge
Ba1   Ba    Ba6+2 0.159600 0.544390 0.464800 1.757904
Ba2   Ba    Ba6+2 0.650570 0.455600 0.535140 1.745004
C1    C     C_3   0.327812 0.787839 0.180883 0.682993
C2    C     C_R   0.090109 0.077946 0.548114 -0.023057
C3    C     C_R   0.956698 0.890403 0.533885 0.037412
C4    C     C_3   0.824762 0.768989 0.251201 0.397863
C5    C     C_R   0.109372 0.924314 0.576743 0.012177
C6    C     C_R   0.175456 0.015490 0.582630 -0.077846
C7    C     C_R   0.891680 0.796237 0.523356 0.078769
C8    C     C_R   0.736943 0.767555 0.482088 -0.228841
C9    C     C_R   0.912566 0.202685 0.478715 0.069854
C10   C     C_R   0.843430 0.108603 0.469506 -0.003890
C11   C     C_R   0.931618 0.047001 0.507264 0.005991
C12   C     C_3   0.374136 0.749706 0.257251 0.407413
C13   C     C_R   0.693681 0.072268 0.421964 0.446531
C14   C     C_R   0.627249 0.981375 0.420319 -0.100025
C15   C     C_R   0.711295 0.920735 0.456936 -0.014112
C16   C     C_3   0.853985 0.871605 0.248395 0.643089
C17   C     C_R   0.866319 0.952787 0.499604 0.092976
C18   C     C_R   0.644700 0.828194 0.450706 0.018954
C19   C     C_R   0.066858 0.230814 0.521059 -0.269000
C20   C     C_R   0.605668 0.534189 0.278687 -0.366634
C21   C     C_R   0.446719 0.489717 0.255079 0.047013
C22   C     C_R   0.387351 0.476881 0.175528 -0.106996
C23   C     C_3   0.531961 0.739960 0.678216 0.210307
C24   C     C_R   0.488645 0.501499 0.118656 -0.013673
C25   C     C_R   0.654383 0.542358 0.141731 0.412512
C26   C     C_R   0.711026 0.559614 0.223491 -0.094921
C27   C     C_R   0.408124 0.505710 0.835062 -0.096928
C28   C     C_3   0.727483 0.340080 0.295389 0.223542
C29   C     C_R   0.357299 0.497339 0.754514 0.074441
C30   C     C_R   0.093675 0.418187 0.775877 -0.029401
C31   C     C_R   0.145561 0.424280 0.856413 -0.122268
C32   C     C_R   0.304402 0.467205 0.886128 -0.032427
C33   C     C_1   0.361366 0.474952 0.968836 0.116639
C34   C     C_3   0.495314 0.830948 0.715346 0.330958
C35   C     C_1   0.417126 0.484904 0.037257 0.232675
C36   C     C_R   0.201957 0.451548 0.725133 -0.247755
C37   C     C_3   0.631040 0.299948 0.215826 0.268977
C38   C     C_3   0.052926 0.648693 0.701616 0.310427
C39   C     C_3   0.056435 0.664948 0.790655 0.269049
C40   C     C_3   0.184094 0.259848 0.325046 0.654924
C41   C     C_3   0.072400 0.211779 0.252175 0.425275
C42   C     C_3   0.881974 0.205205 0.715411 0.313063
C43   C     C_3   0.952910 0.150131 0.775019 -0.295601
C44   C     C_3   0.383778 0.220842 0.739584 0.922101
C45   C     C_3   0.388051 0.159963 0.804704 -0.212087
C46   C     C_R   0.159443 0.170140 0.552459 -0.005750
H1    H     H_    0.286051 0.688906 0.261616 0.043525
H2    H     H_    0.990757 0.152983 0.267049 0.086922
H3    H     H_    0.497621 0.730818 0.258200 -0.147539
H4    H     H_    0.663498 0.744275 0.669650 0.058075
H5    H     H_    0.455366 0.720054 0.620864 0.036727
H6    H     H_    0.536078 0.840190 0.779368 0.097085
H7    H     H_    0.361391 0.831762 0.707664 0.046378
H8    H     H_    0.203821 0.805689 0.183239 0.119440
H9    H     H_    0.746641 0.897127 0.271477 -0.029607
H10   H     H_    0.791224 0.159477 0.672043 0.101105
H11   H     H_    0.981743 0.233593 0.682641 -0.057685
H12   H     H_    0.576959 0.229524 0.219270 0.172323
H13   H     H_    0.853257 0.112957 0.802566 0.190902
H14   H     H_    0.022388 0.101118 0.745754 0.060863
H15   H     H_    0.036597 0.195662 0.821441 0.108277
H16   H     H_    0.254069 0.227900 0.722930 -0.384144
H17   H     H_    0.329998 0.188201 0.855218 0.049940
H18   H     H_    0.516608 0.154309 0.825303 0.165337
H19   H     H_    0.778688 0.758412 0.308448 -0.223649
H20   H     H_    0.320434 0.091609 0.782425 0.100105
H21   H     H_    0.180756 0.880842 0.605934 0.118673
H22   H     H_    0.294727 0.036162 0.615098 0.155870
H23   H     H_    0.529560 0.337126 0.203082 0.015461
H24   H     H_    0.510192 0.958209 0.386578 0.145501
H25   H     H_    0.684574 0.696982 0.476699 0.041779
H26   H     H_    0.120819 0.301060 0.525490 0.048306
H27   H     H_    0.526601 0.543899 0.857748 0.138569
H28   H     H_    0.061812 0.398066 0.895626 0.124239
H29   H     H_    0.728323 0.738016 0.203189 0.074949
H30   H     H_    0.263262 0.443438 0.157470 0.155602
H31   H     H_    0.650918 0.544521 0.340413 0.084464
H32   H     H_    0.160380 0.448884 0.663438 0.045732
H33   H     H_    0.642432 0.370172 0.332250 -0.007999
H34   H     H_    0.170836 0.630439 0.686184 -0.045815
H35   H     H_    0.828691 0.394067 0.288870 0.054870
H36   H     H_    0.988670 0.354761 0.111916 0.393910
H37   H     H_    0.282568 0.705465 0.833098 0.316091
H38   H     H_    0.314074 0.227951 0.413098 0.311887
H39   H     H_    0.494148 0.680493 0.017084 0.377018
H40   H     H_    0.307629 0.243336 0.085543 0.378346
H41   H     H_    0.387384 0.898264 0.135888 0.368973
H42   H     H_    0.848232 0.978431 0.669148 0.337305
H43   H     H_    0.429777 0.329013 0.814350 0.269006
H44   H     H_    0.515563 0.087803 0.343551 0.354609
H45   H     H_    0.953875 0.591607 0.679679 0.006729
H46   H     H_    0.906556 0.695092 0.037276 0.406541
H47   H     H_    0.183135 0.996111 0.236988 0.410606
H48   H     H_    0.709631 0.866836 0.039116 0.383168
H49   H     H_    0.069251 0.601631 0.816432 -0.035947
H50   H     H_    0.938353 0.685041 0.805276 0.113516
H51   H     H_    0.113558 0.300617 0.362659 -0.135910
H52   H     H_    0.995181 0.259682 0.232580 0.040166
O1    O     O_2   0.167800 0.722260 0.545390 -0.470878
O2    O     O_2   0.766203 0.439685 0.771974 -0.423760
O3    O     O_3   0.801260 0.269810 0.754644 -0.532113
O4    O     O_3   0.895640 0.608830 0.542800 -0.503722
O5    O     O_3   0.421020 0.453750 0.407550 -0.487278
O6    O     O_2   0.649650 0.543880 0.686730 -0.459391
O7    O     O_3   0.495617 0.679510 0.732079 -0.689082
O8    O     O_2   0.484143 0.173953 0.530018 -0.452144
O9    O     O_3   0.454573 0.180818 0.676670 -0.565140
O10   O     O_3   0.383370 0.666730 0.405950 -0.507687
O11   O     O_2   0.317613 0.824210 0.464904 -0.381420
O12   O     O_3   0.318662 0.311665 0.300816 -0.629445
O13   O     O_3   0.025312 0.727847 0.670415 -0.613019
O14   O     O_3   0.366768 0.816807 0.319473 -0.561999
O15   O     O_2   0.160640 0.456070 0.313250 -0.476308
O16   O     O_3   0.956200 0.620970 0.366040 -0.480056
O17   O     O_2   0.053233 0.567295 0.229658 -0.391034
O18   O     O_2   0.779914 0.206186 0.110777 -0.212469
O19   O     O_2   0.645725 0.327981 0.065555 -0.284477
O20   O     O_3   0.922323 0.371830 0.154191 -0.528127
O21   O     O_3   0.183614 0.734223 0.823084 -0.656168
O22   O     O_3   0.240179 0.194376 0.367569 -0.698771
O23   O     O_3   0.966311 0.728685 0.243971 -0.561391
O24   O     O_2   0.213668 0.621759 0.105418 -0.285392
O25   O     O_2   0.233091 0.747180 0.027013 -0.257733
O26   O     O_3   0.500864 0.690260 0.075051 -0.506050
O27   O     O_2   0.320102 0.131662 0.199626 -0.293066
O28   O     O_2   0.066408 0.112461 0.110884 -0.164599
O29   O     O_3   0.251152 0.267446 0.129333 -0.570895
O30   O     O_3   0.439837 0.864872 0.175188 -0.663934
O31   O     O_2   0.527814 0.924881 0.593210 -0.347393
O32   O     O_2   0.571331 0.009737 0.724477 -0.321091
O33   O     O_3   0.798076 0.919255 0.682064 -0.554203
O34   O     O_2   0.642490 0.277680 0.454580 -0.413183
O35   O     O_3   0.475030 0.305808 0.766548 -0.666674
O36   O     O_3   0.616105 0.123698 0.373412 -0.666637
O37   O     O_2   0.921935 0.511432 0.072913 -0.196119
O38   O     O_2   0.704481 0.553924 0.987974 -0.346877
O39   O     O_3   0.877284 0.678039 0.088411 -0.452987
O40   O     O_2   0.995182 0.019551 0.344641 -0.339676
O41   O     O_2   0.062976 0.875256 0.378234 -0.291308
O42   O     O_3   0.198020 0.945108 0.266517 -0.460845
O43   O     O_2   0.824449 0.000092 0.156143 -0.209275
O44   O     O_2   0.015220 0.896536 0.119903 -0.260839
O45   O     O_3   0.914650 0.391160 0.457140 -0.508929
O46   O     O_3   0.705687 0.840239 0.088922 -0.453074
O47   O     O_3   0.426920 0.333260 0.593990 -0.457476
O48   O     O_3   0.789544 0.270288 0.329617 -0.623867
O49   O     O_3   0.389280 0.546240 0.592390 -0.484567
O50   O     O_3   0.854100 0.379030 0.633890 -0.494783
P1    P     P_3+3 0.994840 0.708040 0.567640 0.999787
P2    P     P_3+3 0.329360 0.428650 0.323990 1.003725
P3    P     P_3+3 0.920395 0.616602 0.263963 1.111818
P4    P     P_3+3 0.815450 0.291950 0.432300 1.059106
P5    P     P_3+3 0.879649 0.377926 0.735437 1.041846
P6    P     P_3+3 0.430629 0.783297 0.409745 1.045062
P7    P     P_3+3 0.471952 0.566638 0.691172 0.958653
P8    P     P_3+3 0.377879 0.215116 0.588666 1.035349
S1    S     S_3+6 0.745550 0.300159 0.133404 -0.065407
S2    S     S_3+6 0.314369 0.708958 0.094660 -0.069082
S3    S     S_3+6 0.179977 0.176933 0.171367 -0.003609
S4    S     S_3+6 0.597134 0.924738 0.676549 -0.150167
S5    S     S_3+6 0.789887 0.569410 0.069997 -0.000198
S6    S     S_3+6 0.029747 0.928877 0.312130 -0.037183
S7    S     S_3+6 0.854998 0.904020 0.151441 0.019437

loop_
_geom_bond_atom_site_label_1
_geom_bond_atom_site_label_2
_ccdc_geom_bond_type
Ba2   O50   S    
C21   P2    S    
C1    O30   S    
O13   P1    S    
Ba1   O45   S    
C14   H24   S    
C38   H45   S    
C2    C6    A    
O33   S4    S    
C26   P3    S    
O25   S2    D    
C5    C6    A    
Ba2   O45   S    
C23   O7    S    
C24   C25   A    
Ba2   O34   S    
H40   O29   S    
O4    P1    S    
C33   C35   T    
C23   H5    S    
C20   H31   S    
C32   C33   S    
O42   S6    S    
C8    H25   S    
C12   H1    S    
O8    P8    D    
C42   H11   S    
C13   C14   A    
C43   H14   S    
C2    C11   A    
C15   C18   A    
C2    C46   A    
Ba1   P2    S    
Ba1   Ba2   S    
C39   O21   S    
C28   H35   S    
C40   O12   S    
O43   S7    D    
C31   H28   S    
C9    P4    S    
C25   S5    S    
C44   O35   S    
C16   S6    S    
C16   S7    S    
C12   H3    S    
C42   H10   S    
C14   C15   A    
O15   P2    D    
H38   O22   S    
O20   S1    S    
C21   C22   A    
O12   P2    S    
H37   O21   S    
O38   S5    D    
Ba1   O16   S    
C30   C36   A    
C7    C8    A    
C45   H18   S    
C19   C46   A    
Ba2   O49   S    
O27   S3    D    
C20   C26   A    
C34   S4    S    
H46   O39   S    
O18   S1    D    
H44   O36   S    
O48   P4    S    
C4    O23   S    
O9    P8    S    
O14   P6    S    
O7    P7    S    
C42   O3    S    
C4    C16   S    
C11   C17   A    
C38   H34   S    
O10   P6    S    
C41   H52   S    
C8    C18   A    
C3    C5    A    
H42   O33   S    
C4    H29   S    
C13   O36   S    
O31   S4    D    
Ba2   O47   S    
C12   O14   S    
C46   P8    S    
C19   H26   S    
C43   H15   S    
H41   O30   S    
C44   H16   S    
C27   C32   A    
C3    C7    A    
Ba1   O10   S    
C30   P5    S    
C1    H8    S    
C16   H9    S    
C38   O13   S    
C10   C13   A    
Ba2   O4    S    
H36   O20   S    
C31   C32   A    
O29   S3    S    
C24   C35   S    
Ba1   O49   S    
Ba1   O4    S    
O16   P3    S    
C29   P7    S    
C1    C12   S    
H47   O42   S    
C27   H27   S    
O45   P4    S    
C41   S3    S    
O3    P5    S    
C38   C39   S    
O46   S7    S    
O50   P5    S    
O17   P3    D    
C1    S2    S    
C39   H49   S    
C40   C41   S    
C9    C19   A    
Ba1   O1    S    
C45   H20   S    
C42   C43   S    
C40   O22   S    
O37   S5    D    
O23   P3    S    
C22   H30   S    
O5    P2    S    
C44   C45   S    
C7    P1    S    
C18   P6    S    
C37   S1    S    
C39   H50   S    
O19   S1    D    
C22   C24   A    
C5    H21   S    
O1    P1    D    
C9    C10   A    
C41   H2    S    
C28   O48   S    
C3    C17   A    
O26   S2    S    
O40   S6    D    
O6    P7    D    
H48   O46   S    
Ba2   O5    S    
C6    H22   S    
C29   C36   A    
O44   S7    D    
C30   C31   A    
C28   H33   S    
O39   S5    S    
C23   H4    S    
C27   C29   A    
C34   H7    S    
C4    H19   S    
C40   H51   S    
O34   P4    D    
C36   H32   S    
C37   H12   S    
O24   S2    D    
C43   H13   S    
O28   S3    D    
C15   C17   A    
Ba2   O6    S    
C28   C37   S    
Ba1   P1    S    
O32   S4    D    
C34   H6    S    
C23   C34   S    
O11   P6    D    
H43   O35   S    
C10   C11   A    
O41   S6    D    
Ba2   P4    S    
C44   O9    S    
C25   C26   A    
C37   H23   S    
C20   C21   A    
Ba1   O15   S    
O47   P8    S    
O49   P7    S    
O2    P5    D    
C45   H17   S    
H39   O26   S    
Ba1   O5    S    
