data_mof_unit_18586.cif
_audit_creation_date              2012-12-10T18:57:08-0500
_audit_creation_method            fapswitch 2.2
_symmetry_space_group_name_H-M    P1
_symmetry_Int_Tables_number       1
_space_group_crystal_system       triclinic
_cell_length_a                    8.712246
_cell_length_b                    10.828809
_cell_length_c                    9.578663
_cell_angle_alpha                 90.794784
_cell_angle_beta                  97.160123
_cell_angle_gamma                 89.925825
_cell_volume                      896.548634773

loop_
_atom_site_label
_atom_site_type_symbol
_atom_type_description
_atom_site_fract_x
_atom_site_fract_y
_atom_site_fract_z
_atom_type_partial_charge
C1    C     C_R   0.499598 0.262834 0.498835 0.830123
C2    C     C_R   0.408542 0.934258 0.385246 0.523736
C3    C     C_R   0.495904 0.871213 0.497195 -0.161117
C4    C     C_R   0.600451 0.938293 0.590579 -0.132869
C5    C     C_3   0.646868 0.934627 0.745889 0.355950
C6    C     C_3   0.656292 0.076137 0.743839 0.855837
C7    C     C_R   0.629609 0.531822 0.088489 0.112088
C8    C     C_R   0.382086 0.448611 0.061669 -0.189859
C9    C     C_R   0.380037 0.447652 0.910778 0.618571
C10   C     C_R   0.630005 0.530895 0.941946 0.031388
C11   C     C_3   0.718167 0.648339 0.946857 -0.419628
C12   C     C_R   0.204149 0.500178 0.464250 0.882994
C13   C     C_3   0.718174 0.649861 0.105418 0.440033
C14   C     C_R   0.497000 0.737543 0.500058 0.875292
C15   C     C_R   0.795704 0.503060 0.535543 0.866224
C16   C     C_2   0.038594 0.497436 0.444223 -0.357059
C17   C     C_2   0.960883 0.511580 0.554315 -0.338262
C18   C     C_R   0.604426 0.064619 0.588271 -0.129996
C19   C     C_R   0.502614 0.130092 0.494013 -0.104306
C20   C     C_R   0.411096 0.064993 0.386383 -0.317634
Cu1   Cu    Cu3+1 0.499990 0.499980 0.640670 1.022533
Cu2   Cu    Cu3+1 0.500010 0.500020 0.359330 0.991462
H1    H     H_    0.980499 0.481370 0.338340 0.155300
H2    H     H_    0.835113 0.635807 0.913795 0.176453
H3    H     H_    0.646940 0.722015 0.893611 0.253383
H4    H     H_    0.834749 0.640160 0.166092 0.075954
H5    H     H_    0.018939 0.530988 0.659170 0.190446
H6    H     H_    0.335601 0.115873 0.309203 0.145820
H7    H     H_    0.553666 0.898740 0.803564 0.063003
H8    H     H_    0.290393 0.407073 0.110791 0.144982
N1    N     N_R   0.500980 0.500930 0.148050 -0.174989
N2    N     N_R   0.500990 0.500890 0.852140 -0.204150
O1    O     O_R   0.500000 0.319640 0.618810 -0.505712
O2    O     O_R   0.500020 0.319680 0.381230 -0.613055
O3    O     O_R   0.274830 0.499980 0.591380 -0.531820
O4    O     O_R   0.274850 0.500020 0.353800 -0.600478
O5    O     O_R   0.499980 0.680320 0.618770 -0.607065
O6    O     O_R   0.500000 0.680360 0.381190 -0.478560
O7    O     O_R   0.725150 0.499980 0.646200 -0.581805
O8    O     O_R   0.725170 0.500020 0.408620 -0.590450
O9    O     O_3   0.265537 0.386766 0.820873 -0.537276
C21   C     C_3   0.124441 0.374045 0.877757 -0.376372
H9    H     H_    0.032239 0.350464 0.791467 0.211979
H10   H     H_    0.088701 0.461734 0.926580 0.142372
H11   H     H_    0.131079 0.296387 0.952881 0.173940
F1    F     F_    0.631930 0.746701 0.150039 -0.643285
O10   O     O_3   0.307986 0.866915 0.288564 -0.573417
C22   C     C_3   0.310812 0.909248 0.150088 -0.182187
H12   H     H_    0.269562 0.833593 0.075530 0.198190
H13   H     H_    0.429375 0.934429 0.128352 0.178645
H14   H     H_    0.230323 0.988242 0.128615 0.139621
F2    F     F_    0.789583 0.878750 0.778744 -0.668204
O11   O     O_3   0.540699 0.133733 0.814184 -0.602639
C23   C     C_3   0.586230 0.139676 0.960845 -0.252427
H15   H     H_    0.673240 0.214070 0.987246 0.193623
H16   H     H_    0.631995 0.049979 0.003516 0.166136
H17   H     H_    0.483497 0.163389 0.013636 0.161140
O12   O     O_3   0.808134 0.125345 0.786263 -0.580443
C24   C     C_3   0.907806 0.120935 0.680259 -0.271825
H18   H     H_    0.875556 0.193646 0.601196 0.138106
H19   H     H_    0.909343 0.028712 0.628234 0.211166
H20   H     H_    0.027744 0.138979 0.729517 0.200401

loop_
_geom_bond_atom_site_label_1
_geom_bond_atom_site_label_2
_ccdc_geom_bond_type
C8    C9    A    
C7    C10   A    
C5    F2    S    
O11   C23   S    
Cu1   O3    S    
C2    O10   S    
C12   O4    A    
Cu2   O4    S    
O9    C21   S    
C6    O12   S    
C9    O9    S    
C19   C20   A    
Cu1   O7    S    
C8    H8    S    
C15   O8    A    
C22   H13   S    
C2    C3    A    
C4    C18   A    
C24   H18   S    
Cu1   Cu2   S    
C12   O3    A    
C11   C13   S    
C15   O7    A    
C5    C6    S    
C3    C14   S    
C21   H10   S    
C6    C18   S    
C22   H12   S    
C8    N1    A    
C7    N1    A    
C1    O2    A    
C16   H1    S    
C5    H7    S    
C10   C11   S    
C13   F1    S    
Cu2   O2    S    
Cu1   N2    S    
C23   H16   S    
C13   H4    S    
C24   H19   S    
C14   O6    A    
Cu2   N1    S    
C11   H3    S    
C6    O11   S    
C2    C20   A    
C3    C4    A    
C17   H5    S    
O10   C22   S    
C10   N2    A    
C11   H2    S    
C7    C13   S    
Cu1   O1    S    
Cu1   O5    S    
C18   C19   A    
C21   H9    S    
C15   C17   S    
C1    O1    A    
Cu2   O8    S    
C16   C17   D    
C24   H20   S    
C20   H6    S    
C9    N2    A    
O12   C24   S    
C23   H15   S    
C1    C19   S    
C21   H11   S    
C22   H14   S    
C12   C16   S    
C4    C5    S    
C14   O5    A    
C23   H17   S    
Cu2   O6    S    
