data_mof_unit_30997.cif
_audit_creation_date              2012-12-10T17:24:37-0500
_audit_creation_method            fapswitch 2.2
_symmetry_space_group_name_H-M    P1
_symmetry_Int_Tables_number       1
_space_group_crystal_system       triclinic
_cell_length_a                    18.810379
_cell_length_b                    18.549601
_cell_length_c                    19.165076
_cell_angle_alpha                 109.263442
_cell_angle_beta                  110.614039
_cell_angle_gamma                 108.740377
_cell_volume                      5133.6767131

loop_
_atom_site_label
_atom_site_type_symbol
_atom_type_description
_atom_site_fract_x
_atom_site_fract_y
_atom_site_fract_z
_atom_type_partial_charge
C1    C     C_R   0.622710 0.620106 0.502763 1.097170
C2    C     C_3   0.178629 0.423740 0.211142 0.388965
C3    C     C_3   0.226649 0.490041 0.306953 0.308494
C4    C     C_3   0.313480 0.501308 0.313022 -0.181452
C5    C     C_R   0.601932 0.765429 0.495957 0.476980
C6    C     C_R   0.606590 0.847189 0.527402 -0.324830
C7    C     C_R   0.678757 0.920416 0.550345 -0.282098
C8    C     C_R   0.743108 0.911937 0.532897 0.568762
C9    C     C_R   0.746366 0.831383 0.513578 -0.088954
C10   C     C_R   0.678076 0.759925 0.502861 -0.045623
C11   C     C_R   0.813245 0.818236 0.502939 -0.086978
C12   C     C_R   0.379722 0.500551 0.379762 1.045721
C13   C     C_R   0.818923 0.741411 0.493219 -0.118282
C14   C     C_R   0.760815 0.677379 0.499563 -0.139212
C15   C     C_R   0.687759 0.685961 0.500716 -0.134290
C16   C     C_R   0.882483 0.727513 0.476327 -0.227814
C17   C     C_R   0.902856 0.664770 0.485193 0.308761
C18   C     C_R   0.858059 0.612081 0.510191 0.248751
C19   C     C_R   0.780828 0.609846 0.506720 0.445588
C20   C     C_R   0.770091 0.661664 0.763780 0.340755
C21   C     C_R   0.803122 0.732698 0.844176 0.235351
C22   C     C_R   0.859954 0.736256 0.917006 0.421499
C23   C     C_R   0.377982 0.378627 0.497568 1.049867
C24   C     C_R   0.874571 0.664395 0.908280 0.368385
C25   C     C_R   0.817464 0.581294 0.828847 -0.163525
C26   C     C_R   0.758985 0.579978 0.757756 -0.144287
C27   C     C_R   0.814451 0.499746 0.816890 -0.032411
C28   C     C_R   0.739429 0.417423 0.746364 -0.178025
C29   C     C_R   0.670058 0.418488 0.687121 -0.072246
C30   C     C_R   0.686642 0.498579 0.686573 -0.066823
C31   C     C_R   0.727760 0.333408 0.735233 0.456973
C32   C     C_R   0.643173 0.262454 0.694886 0.460819
C33   C     C_R   0.572278 0.267910 0.645816 -0.490657
C34   C     C_R   0.621316 0.500193 0.620322 1.132620
C35   C     C_R   0.585391 0.341005 0.634637 0.390491
C36   C     C_R   0.384500 0.408496 0.660534 0.476777
C37   C     C_R   0.363931 0.445460 0.721912 0.216141
C38   C     C_R   0.294592 0.389869 0.723634 0.285276
C39   C     C_R   0.241145 0.301075 0.657372 0.326847
C40   C     C_R   0.247452 0.273068 0.581214 -0.136947
C41   C     C_R   0.316545 0.330788 0.580056 -0.189027
C42   C     C_R   0.188732 0.188847 0.507169 -0.041942
C43   C     C_R   0.196819 0.162141 0.433907 -0.090326
C44   C     C_R   0.251657 0.224391 0.423444 -0.092172
C45   C     C_3   0.326869 0.578877 0.294929 -0.341329
C46   C     C_R   0.314651 0.309900 0.499570 -0.094392
C47   C     C_R   0.147596 0.072830 0.369840 -0.371006
C48   C     C_R   0.138483 0.044761 0.289624 0.427805
C49   C     C_R   0.184918 0.105453 0.272739 0.384204
C50   C     C_R   0.240013 0.196543 0.337882 0.352707
C51   C     C_R   0.002179 0.621632 0.120728 0.997730
C52   C     C_R   0.124244 0.500713 0.125125 1.031264
C53   C     C_R   0.999615 0.380685 0.879675 1.101169
C54   C     C_R   0.882487 0.499670 0.882694 1.115910
C55   C     C_R   0.002854 0.881035 0.381615 0.947418
C56   C     C_3   0.238944 0.566094 0.288527 0.391895
C57   C     C_R   0.879995 0.884581 0.503705 1.027524
C58   C     C_R   0.996302 0.117388 0.619004 1.135394
C59   C     C_R   0.119935 0.124787 0.505826 1.040375
C60   C     C_R   0.164868 0.784062 0.255434 0.460934
C61   C     C_R   0.241503 0.823359 0.335328 0.474177
C62   C     C_R   0.241301 0.868928 0.409154 -0.465398
C63   C     C_R   0.172463 0.886512 0.402002 0.510428
C64   C     C_R   0.086764 0.823323 0.325943 -0.065699
C65   C     C_R   0.084148 0.765678 0.254009 -0.128444
C66   C     C_R   0.004783 0.814922 0.316728 -0.063826
C67   C     C_3   0.189989 0.499843 0.192104 -0.211069
C68   C     C_R   0.923078 0.748480 0.239165 -0.208716
C69   C     C_R   0.921891 0.690725 0.168636 -0.162792
C70   C     C_R   0.001982 0.693690 0.181190 -0.008417
C71   C     C_R   0.840569 0.737967 0.228324 0.471502
C72   C     C_R   0.773212 0.708429 0.146722 0.198677
C73   C     C_R   0.769586 0.650332 0.075141 0.317725
C74   C     C_R   0.840184 0.633970 0.087677 0.416104
C75   C     C_R   0.979835 0.388593 0.720806 0.411948
C76   C     C_R   0.960202 0.381847 0.640383 0.225974
C77   C     C_R   0.983866 0.332556 0.590322 0.282345
C78   C     C_3   0.276254 0.510173 0.198449 0.423374
C79   C     C_R   0.008773 0.275362 0.611400 0.342487
C80   C     C_R   0.001075 0.260851 0.678327 -0.114443
C81   C     C_R   0.995339 0.323725 0.739070 -0.199399
C82   C     C_R   0.997887 0.185314 0.685571 -0.056881
C83   C     C_R   0.997936 0.176405 0.757421 -0.187943
C84   C     C_R   0.013750 0.249934 0.826390 -0.126325
C85   C     C_R   0.003559 0.317709 0.814035 -0.046012
C86   C     C_R   0.984575 0.098902 0.765629 0.395338
C87   C     C_R   0.979426 0.096623 0.837148 0.329985
C88   C     C_R   0.006194 0.175047 0.908385 0.208966
C89   C     C_3   0.265140 0.432972 0.215808 -0.381650
C90   C     C_R   0.037005 0.253198 0.906726 0.371219
H1    H     H_    0.679873 0.982756 0.572936 0.164088
H2    H     H_    0.918014 0.765417 0.455612 0.220873
H3    H     H_    0.506383 0.214533 0.614063 0.163304
H4    H     H_    0.385668 0.642306 0.323253 0.205855
H5    H     H_    0.112920 0.022576 0.380343 0.200290
H6    H     H_    0.298622 0.899512 0.471491 0.169683
H7    H     H_    0.277964 0.379645 0.186648 0.171671
H8    H     H_    0.551921 0.853455 0.529397 0.145746
O1    O     O_R   0.592010 0.539900 0.448660 -0.634490
O2    O     O_R   0.054870 0.643310 0.094700 -0.602122
O3    O     O_R   0.044440 0.448270 0.096110 -0.585261
O4    O     O_R   0.147870 0.551680 0.096080 -0.612560
O5    O     O_R   0.952810 0.356650 0.912880 -0.576261
O6    O     O_R   0.056240 0.460060 0.912840 -0.602665
O7    O     O_R   0.859800 0.448280 0.911500 -0.618911
O8    O     O_R   0.963240 0.551690 0.911470 -0.621783
O9    O     O_R   0.052860 0.908430 0.461230 -0.573807
O10   O     O_R   0.948620 0.908400 0.356980 -0.612448
O11   O     O_R   0.960510 0.908410 0.552140 -0.657265
O12   O     O_R   0.591210 0.643320 0.551330 -0.585609
O13   O     O_R   0.856270 0.908390 0.447890 -0.567026
O14   O     O_R   0.051380 0.091620 0.643040 -0.610657
O15   O     O_R   0.947140 0.091600 0.538800 -0.599780
O16   O     O_R   0.143730 0.091640 0.552130 -0.580613
O17   O     O_R   0.039490 0.091610 0.447890 -0.641493
O18   O     O_R   0.408080 0.448290 0.356360 -0.664512
O19   O     O_R   0.407280 0.551710 0.459030 -0.610631
O20   O     O_R   0.408790 0.356680 0.448670 -0.597053
O21   O     O_R   0.407990 0.460100 0.551340 -0.582994
O22   O     O_R   0.592720 0.448290 0.540970 -0.612695
O23   O     O_R   0.591920 0.551710 0.643640 -0.582102
O24   O     O_R   0.951440 0.539900 0.094740 -0.633273
Zn1   Zn    Zn3+2 0.500540 0.430950 0.431450 0.922638
Zn2   Zn    Zn3+2 0.499460 0.569050 0.568550 1.067400
Zn3   Zn    Zn3+2 0.934770 0.430930 0.003810 1.042640
Zn4   Zn    Zn3+2 0.072900 0.569020 0.003770 0.962079
Zn5   Zn    Zn3+2 0.069600 0.000030 0.569620 0.998935
Zn6   Zn    Zn3+2 0.930400 0.000000 0.430410 1.021839
O25   O     O_3   0.219612 0.632322 0.322288 -0.604016
C91   C     C_3   0.278825 0.685497 0.411786 -0.199014
H9    H     H_    0.346139 0.723902 0.425985 0.165148
H10   H     H_    0.278319 0.646687 0.445246 0.184230
H11   H     H_    0.258862 0.732781 0.438811 0.181890
O26   O     O_3   0.802715 0.982770 0.536666 -0.610401
C92   C     C_3   0.758803 0.013795 0.487199 -0.287082
H12   H     H_    0.757104 0.070098 0.529706 0.141264
H13   H     H_    0.691383 0.962096 0.432558 0.138869
H14   H     H_    0.794352 0.037256 0.457037 0.211138
O27   O     O_3   0.967099 0.657524 0.469386 -0.761037
H15   H     H_    0.958488 0.597748 0.454634 0.341581
O28   O     O_3   0.732257 0.548186 0.520916 -0.573894
C93   C     C_3   0.705882 0.461491 0.460360 -0.086808
H16   H     H_    0.742732 0.435200 0.493449 0.202558
H17   H     H_    0.713086 0.455809 0.403703 0.091732
H18   H     H_    0.635678 0.417707 0.433328 0.155940
O29   O     O_3   0.750831 0.672810 0.692760 -0.596426
C94   C     C_3   0.829823 0.732267 0.704849 -0.272057
H19   H     H_    0.863483 0.696837 0.686183 0.186683
H20   H     H_    0.876467 0.789096 0.771384 0.152438
H21   H     H_    0.814666 0.762306 0.664599 0.198843
O30   O     O_3   0.787803 0.802203 0.852056 -0.734158
H22   H     H_    0.741750 0.786177 0.795165 0.376225
O31   O     O_3   0.904482 0.809980 0.997785 -0.586883
C95   C     C_3   0.955791 0.885727 0.998729 -0.250414
H23   H     H_    0.921796 0.924432 0.993782 0.227224
H24   H     H_    0.017952 0.927703 0.061024 0.217146
H25   H     H_    0.973709 0.871452 0.948105 0.108323
O32   O     O_3   0.941796 0.675960 0.978935 -0.566539
C96   C     C_3   0.023183 0.741009 0.999888 -0.109532
H26   H     H_    0.049914 0.800685 0.061258 0.221769
H27   H     H_    0.021050 0.759169 0.949427 0.042102
H28   H     H_    0.070155 0.716458 0.009274 0.185742
O33   O     O_3   0.797984 0.318965 0.760564 -0.578477
C97   C     C_3   0.790757 0.258535 0.686303 -0.265540
H29   H     H_    0.725523 0.198748 0.640892 0.158495
H30   H     H_    0.835181 0.233025 0.706116 0.180399
H31   H     H_    0.807310 0.291038 0.650592 0.166252
O34   O     O_3   0.634755 0.191194 0.708046 -0.565136
C98   C     C_3   0.564621 0.109960 0.635194 -0.356786
H32   H     H_    0.559868 0.104837 0.573962 0.140173
H33   H     H_    0.502135 0.098662 0.633319 0.165442
H34   H     H_    0.576040 0.056549 0.640853 0.194849
O35   O     O_3   0.513822 0.339832 0.579469 -0.748127
H35   H     H_    0.462012 0.280197 0.546188 0.324035
O36   O     O_3   0.168639 0.077798 0.189459 -0.617383
C99   C     C_3   0.207042 0.025165 0.170879 -0.356416
H36   H     H_    0.217328 0.026323 0.117614 0.162611
H37   H     H_    0.162960 0.955775 0.148457 0.226975
H38   H     H_    0.271851 0.049109 0.226427 0.139453
O37   O     O_3   0.470342 0.447449 0.679469 -0.535459
C100  C     C_3   0.524765 0.447788 0.752800 -0.184708
H39   H     H_    0.505211 0.379720 0.741208 0.116967
H40   H     H_    0.525872 0.487642 0.811023 0.196476
H41   H     H_    0.592960 0.479667 0.767794 0.190640
O38   O     O_3   0.416956 0.533959 0.782349 -0.743402
H42   H     H_    0.388853 0.552590 0.814341 0.370192
O39   O     O_3   0.280062 0.420985 0.790708 -0.602266
C101  C     C_3   0.338116 0.421262 0.861867 -0.340678
H43   H     H_    0.322354 0.440613 0.913333 0.218147
H44   H     H_    0.407102 0.469836 0.888541 0.168447
H45   H     H_    0.331132 0.354939 0.845089 0.155586
O40   O     O_3   0.184654 0.241551 0.667119 -0.729920
H46   H     H_    0.185759 0.270729 0.721271 0.374214
O41   O     O_3   0.083821 0.956923 0.226908 -0.605912
C102  C     C_3   0.996037 0.935343 0.200585 -0.220184
H47   H     H_    0.976546 0.971183 0.167987 0.171280
H48   H     H_    0.983438 0.948900 0.254501 0.158593
H49   H     H_    0.953548 0.863780 0.154823 0.236793
O42   O     O_3   0.299665 0.520347 0.139292 -0.719647
H50   H     H_    0.358269 0.525422 0.159836 0.332873
O43   O     O_3   0.269342 0.258682 0.314402 -0.610634
C103  C     C_3   0.312445 0.238551 0.269305 -0.161970
H51   H     H_    0.267171 0.204833 0.198863 0.176060
H52   H     H_    0.344585 0.201455 0.287595 0.114877
H53   H     H_    0.365560 0.299494 0.284737 0.180818
O44   O     O_3   0.696900 0.605824 0.993024 -0.570807
C104  C     C_3   0.621228 0.550805 0.989182 -0.342194
H54   H     H_    0.572902 0.573534 0.973866 0.201983
H55   H     H_    0.633004 0.546646 0.048636 0.143421
H56   H     H_    0.591079 0.482912 0.936400 0.148681
O45   O     O_3   0.169546 0.795926 0.188481 -0.623607
C105  C     C_3   0.236074 0.785979 0.175811 -0.186425
H57   H     H_    0.239343 0.728196 0.178851 0.220426
H58   H     H_    0.299846 0.847603 0.221804 0.172048
H59   H     H_    0.221158 0.774339 0.110478 0.107557
O46   O     O_3   0.312541 0.812908 0.338600 -0.594217
C106  C     C_3   0.393397 0.890860 0.400740 -0.402649
H60   H     H_    0.415862 0.896648 0.465227 0.164626
H61   H     H_    0.390822 0.950629 0.402654 0.157488
H62   H     H_    0.442984 0.886956 0.383440 0.198110
O47   O     O_3   0.188527 0.962389 0.467579 -0.577560
C107  C     C_3   0.273928 0.034140 0.508872 -0.310650
H63   H     H_    0.294046 0.040541 0.462097 0.148451
H64   H     H_    0.321916 0.029172 0.558400 0.151696
H65   H     H_    0.275567 0.095992 0.543764 0.204120
O48   O     O_3   0.826021 0.757904 0.296555 -0.559857
C108  C     C_3   0.761637 0.680091 0.282153 -0.292775
H66   H     H_    0.789155 0.636976 0.291607 0.148601
H67   H     H_    0.701346 0.642399 0.217705 0.178784
H68   H     H_    0.739800 0.698042 0.328548 0.198062
O49   O     O_3   0.708724 0.730633 0.140298 -0.730286
H69   H     H_    0.677969 0.722255 0.081966 0.367490
O50   O     O_3   0.829739 0.566136 0.019254 -0.568689
C109  C     C_3   0.762622 0.484220 0.995994 -0.153213
H70   H     H_    0.707691 0.455755 0.930120 0.167365
H71   H     H_    0.737504 0.486764 0.041034 0.084395
H72   H     H_    0.787485 0.437481 0.994506 0.186285
O51   O     O_3   0.001624 0.177650 0.979369 -0.746207
H73   H     H_    0.952145 0.121102 0.960299 0.364747
O52   O     O_3   0.976790 0.455135 0.777550 -0.576262
C110  C     C_3   0.039960 0.538585 0.799148 -0.101454
H74   H     H_    0.006661 0.567015 0.765786 0.190552
H75   H     H_    0.092358 0.537668 0.784754 0.103852
H76   H     H_    0.074071 0.584221 0.869238 0.150064
O53   O     O_3   0.923925 0.429902 0.616274 -0.736251
H77   H     H_    0.904760 0.411362 0.555057 0.382332
O54   O     O_3   0.981522 0.338983 0.519652 -0.617463
C111  C     C_3   0.058806 0.414481 0.548575 -0.302472
H78   H     H_    0.118263 0.412016 0.584740 0.171412
H79   H     H_    0.061859 0.475669 0.588952 0.180960
H80   H     H_    0.058998 0.417204 0.491682 0.204979
O55   O     O_3   0.044979 0.237148 0.570454 -0.733419
H81   H     H_    0.043989 0.250823 0.524541 0.371697
O56   O     O_3   0.971873 0.023717 0.703081 -0.578183
C112  C     C_3   0.035715 0.001116 0.739590 -0.129457
H82   H     H_    0.003439 0.939137 0.739100 0.167683
H83   H     H_    0.091714 0.053240 0.805510 0.076702
H84   H     H_    0.066594 0.989286 0.700702 0.182803
O57   O     O_3   0.948776 0.016728 0.835379 -0.573102
C113  C     C_3   0.014172 0.017520 0.901948 -0.300351
H85   H     H_    0.999940 0.023834 0.954361 0.190101
H86   H     H_    0.082091 0.070067 0.929759 0.138873
H87   H     H_    0.012340 0.953584 0.875528 0.152113
O58   O     O_3   0.088597 0.333333 0.982099 -0.733823
H88   H     H_    0.111760 0.323731 0.031209 0.388070
O59   O     O_3   0.097704 0.345825 0.166568 -0.577311
C114  C     C_3   0.110576 0.283529 0.187962 -0.115758
H89   H     H_    0.143409 0.309611 0.258648 0.189595
H90   H     H_    0.148111 0.260565 0.161696 0.171540
H91   H     H_    0.045812 0.225498 0.158068 0.186213
O60   O     O_3   0.202489 0.478639 0.365335 -0.773732
H92   H     H_    0.143693 0.473116 0.344366 0.350817
O61   O     O_3   0.887111 0.561704 0.538123 -0.765125
H93   H     H_    0.950962 0.588241 0.561468 0.343239
O62   O     O_3   0.522184 0.690613 0.453384 -0.801139
H94   H     H_    0.481094 0.706732 0.466401 0.320979

loop_
_geom_bond_atom_site_label_1
_geom_bond_atom_site_label_2
_ccdc_geom_bond_type
C8    C9    A    
C92   H14   S    
C66   C68   A    
C87   C88   A    
C112  H83   S    
C59   O16   A    
C42   C43   A    
C39   O40   S    
O18   Zn1   S    
C62   H6    S    
C11   C13   A    
C79   O55   S    
C63   O47   S    
C76   O53   S    
C36   O37   S    
C43   C44   A    
C1    O1    A    
C23   O20   A    
O25   C91   S    
C75   O52   S    
C27   C54   S    
C7    C8    A    
O15   Zn6   S    
C57   O13   A    
O21   Zn2   S    
C111  H78   S    
C106  H62   S    
C28   C29   A    
C29   C30   A    
C103  H52   S    
C101  H45   S    
O2    Zn4   S    
C6    H8    S    
C27   C28   A    
C97   H29   S    
C94   H20   S    
O19   Zn2   S    
C53   O5    A    
C110  H74   S    
C10   C15   A    
C58   C82   S    
C23   O21   A    
C5    C6    A    
C33   C35   A    
C114  H91   S    
C24   O32   S    
C100  H41   S    
C53   O6    A    
O60   H92   S    
C2    O59   S    
C112  H82   S    
C3    O60   S    
C64   C65   A    
C101  H44   S    
C18   C19   A    
C73   C74   A    
C49   C50   A    
C108  H66   S    
O52   C110  S    
O23   Zn2   S    
C94   H19   S    
O12   Zn2   S    
C21   C22   A    
O11   Zn5   S    
C99   H38   S    
C37   O38   S    
C96   H26   S    
C45   C56   S    
C111  H79   S    
C16   C17   A    
O14   Zn5   S    
C103  H53   S    
C58   O15   A    
O3    Zn3   S    
O30   H22   S    
C96   H27   S    
C24   C25   A    
C45   C78   S    
C1    C15   S    
C51   C70   S    
C4    C12   S    
C90   O58   S    
C9    C10   A    
C106  H61   S    
C95   H24   S    
C56   O25   S    
C111  H80   S    
C72   C73   A    
C18   O61   S    
C99   H37   S    
O41   C102  S    
C112  H84   S    
C88   O51   S    
O42   H50   S    
C19   O28   S    
C23   C46   S    
O35   H35   S    
C13   C14   A    
C52   O4    A    
C98   H33   S    
C93   H18   S    
C36   C41   A    
C69   C70   A    
C67   C78   S    
C109  H71   S    
C113  H87   S    
C45   H4    S    
C5    C10   A    
C44   C46   A    
O61   H93   S    
C58   O14   A    
C4    C45   S    
C97   H31   S    
C78   C89   S    
C34   O22   A    
C31   O33   S    
C52   O3    A    
C96   H28   S    
C103  H51   S    
C30   C34   S    
C8    O26   S    
C104  H54   S    
C35   O35   S    
C98   H32   S    
O34   C98   S    
C92   H12   S    
C94   H21   S    
C84   C85   A    
C95   H25   S    
C80   C82   A    
C2    C67   S    
C100  H40   S    
C87   O57   S    
C39   C40   A    
C54   O8    A    
O44   C104  S    
C68   C69   A    
C107  H65   S    
O4    Zn4   S    
C25   C26   A    
C100  H39   S    
O10   Zn6   S    
O17   Zn6   S    
C63   C64   A    
C32   C33   A    
C57   O11   A    
C101  H43   S    
C77   O54   S    
C109  H72   S    
C64   C66   A    
C37   C38   A    
C2    C89   S    
C91   H10   S    
C75   C76   A    
C28   C31   A    
O45   C105  S    
O47   C107  S    
C1    O12   A    
C104  H56   S    
C65   C70   A    
C3    C56   S    
O36   C99   S    
C14   C15   A    
C105  H59   S    
C41   C46   A    
O46   C106  S    
C7    H1    S    
C108  H68   S    
C62   C63   A    
C17   C18   A    
C77   C79   A    
C69   C74   A    
C17   O27   S    
C76   C77   A    
C74   O50   S    
C107  H64   S    
C9    C11   A    
C95   H23   S    
C6    C7    A    
C52   C67   S    
C102  H48   S    
C5    O62   S    
C113  H86   S    
C99   H36   S    
C61   O46   S    
O62   H94   S    
C105  H58   S    
C60   C65   A    
C16   H2    S    
C34   O23   A    
C32   O34   S    
O32   C96   S    
C98   H34   S    
C22   C24   A    
C79   C80   A    
C83   C84   A    
C91   H11   S    
C86   O56   S    
C78   O42   S    
C38   O39   S    
C59   O17   A    
O57   C113  S    
C49   O36   S    
C55   C66   S    
O37   C100  S    
O1    Zn1   S    
C4    C89   S    
O50   C109  S    
C50   O43   S    
C44   C50   A    
C51   O2    A    
C92   H13   S    
O8    Zn4   S    
O51   H73   S    
C40   C41   A    
C54   O7    A    
C48   O41   S    
C20   C21   A    
C86   C87   A    
C14   C19   A    
C31   C32   A    
C75   C81   A    
O48   C108  S    
C88   C90   A    
C80   C81   A    
C47   C48   A    
C73   O44   S    
C33   H3    S    
C42   C59   S    
C20   O29   S    
O27   H15   S    
O22   Zn1   S    
C26   C30   A    
O26   C92   S    
C25   C27   A    
C56   C67   S    
C29   C35   A    
O43   C103  S    
O7    Zn3   S    
C55   O10   A    
C114  H89   S    
O40   H46   S    
C110  H76   S    
O56   C112  S    
C97   H30   S    
C2    C3    S    
O58   H88   S    
O9    Zn5   S    
C71   C72   A    
C108  H67   S    
C11   C57   S    
O28   C93   S    
C113  H85   S    
O16   Zn5   S    
C114  H90   S    
O38   H42   S    
C38   C39   A    
C20   C26   A    
O24   Zn3   S    
C68   C71   A    
C48   C49   A    
C106  H60   S    
C40   C42   A    
O13   Zn6   S    
C71   O48   S    
C91   H9    S    
O29   C94   S    
O20   Zn1   S    
C21   O30   S    
C61   C62   A    
O5    Zn3   S    
C60   O45   S    
C81   C85   A    
O33   C97   S    
O59   C114  S    
C84   C90   A    
C102  H47   S    
C102  H49   S    
O39   C101  S    
C83   C86   A    
O6    Zn4   S    
C105  H57   S    
C36   C37   A    
C82   C83   A    
C109  H70   S    
C13   C16   A    
C89   H7    S    
O49   H69   S    
C104  H55   S    
C51   O24   A    
C47   H5    S    
C93   H16   S    
C60   C61   A    
C53   C85   S    
C12   O19   A    
C55   O9    A    
C110  H75   S    
O31   C95   S    
O53   H77   S    
C72   O49   S    
C43   C47   A    
C107  H63   S    
C93   H17   S    
C3    C4    S    
O54   C111  S    
O55   H81   S    
C12   O18   A    
C22   O31   S    
