data_mof_unit_61400.cif
_audit_creation_date              2013-03-05T16:01:41-0500
_audit_creation_method            fapswitch 2.2
_symmetry_space_group_name_H-M    P1
_symmetry_Int_Tables_number       1
_space_group_crystal_system       triclinic
_cell_length_a                    18.635066
_cell_length_b                    18.544013
_cell_length_c                    18.694202
_cell_angle_alpha                 109.294254
_cell_angle_beta                  109.770664
_cell_angle_gamma                 109.064697
_cell_volume                      4990.22290268

loop_
_atom_site_label
_atom_site_type_symbol
_atom_site_description
_atom_site_fract_x
_atom_site_fract_y
_atom_site_fract_z
_atom_type_partial_charge
O1    O     O_R   0.591300 0.538410 0.447360 -0.580483
O2    O     O_R   0.591030 0.643900 0.552660 -0.575647
C1    C     C_R   0.622113 0.620082 0.502263 0.799522
O3    O     O_R   0.408770 0.447260 0.356000 -0.598541
O4    O     O_R   0.408500 0.552750 0.461290 -0.543381
C2    C     C_R   0.380881 0.501222 0.380076 0.819272
Cu1   Cu    Cu3+1 0.500160 0.437540 0.437660 1.048914
Cu2   Cu    Cu3+1 0.499840 0.562460 0.562340 0.995570
O5    O     O_R   0.408970 0.356100 0.447340 -0.536871
O6    O     O_R   0.408700 0.461590 0.552640 -0.604464
O7    O     O_R   0.591500 0.447250 0.538710 -0.545807
O8    O     O_R   0.591230 0.552740 0.644000 -0.606616
C3    C     C_R   0.380089 0.379789 0.500101 0.747754
C4    C     C_R   0.622759 0.502314 0.620068 0.778829
C5    C     C_3   0.317342 0.581782 0.302047 0.507397
C6    C     C_3   0.223918 0.554171 0.287119 -0.174516
H1    H     H_    0.201299 0.598362 0.316337 0.168548
C7    C     C_3   0.188936 0.499162 0.188920 -0.059993
C8    C     C_3   0.282090 0.527921 0.203432 -0.211501
C9    C     C_3   0.277201 0.446972 0.213285 -0.228563
C10   C     C_3   0.182820 0.418047 0.197442 -0.133228
C11   C     C_3   0.219343 0.473164 0.296964 -0.208813
C12   C     C_3   0.312972 0.502103 0.311992 -0.097835
H2    H     H_    0.307255 0.550691 0.164492 0.175042
H3    H     H_    0.299654 0.402960 0.183450 0.171487
H4    H     H_    0.126016 0.350442 0.152991 0.149983
H5    H     H_    0.194610 0.450596 0.336237 0.153772
C13   C     C_3   0.747072 0.654920 0.472506 -0.348271
H6    H     H_    0.704491 0.596956 0.405325 0.189958
H7    H     H_    0.779209 0.633433 0.516678 0.242223
C14   C     C_3   0.817343 0.726824 0.471970 -0.331434
H8    H     H_    0.882829 0.738272 0.514122 0.267973
H9    H     H_    0.807447 0.703476 0.404558 0.175128
H10   H     H_    0.600912 0.662265 0.374232 0.195535
H11   H     H_    0.706572 0.764537 0.370933 0.202740
C15   C     C_3   0.648007 0.719439 0.441468 -0.341475
C16   C     C_3   0.753851 0.770392 0.597102 -0.400893
C17   C     C_3   0.691480 0.689600 0.503361 0.035888
H12   H     H_    0.716023 0.796245 0.622022 0.168073
H13   H     H_    0.785639 0.749722 0.642413 0.210044
C18   C     C_3   0.811923 0.812435 0.502987 -0.001488
C19   C     C_3   0.718163 0.789627 0.439011 -0.420819
C20   C     C_3   0.822685 0.844649 0.596722 0.195623
H14   H     H_    0.808752 0.900310 0.611542 0.075025
H15   H     H_    0.610787 0.747482 0.465007 0.239966
H16   H     H_    0.711283 0.849548 0.456970 0.188888
C21   C     C_3   0.748394 0.470164 0.654572 0.225741
H17   H     H_    0.703966 0.400412 0.601076 0.131608
C22   C     C_3   0.820184 0.471111 0.727940 -0.424584
H18   H     H_    0.812648 0.404121 0.705321 0.123692
H19   H     H_    0.886720 0.515507 0.742996 0.219699
H20   H     H_    0.782386 0.645827 0.755996 0.204444
H21   H     H_    0.890333 0.640738 0.856547 0.207336
C23   C     C_3   0.752864 0.595238 0.772015 -0.334371
C24   C     C_3   0.648293 0.438449 0.716219 -0.471213
C25   C     C_3   0.692493 0.502474 0.688910 0.035075
H22   H     H_    0.607385 0.458578 0.740757 0.180972
H23   H     H_    0.603860 0.371017 0.658829 0.210667
C26   C     C_3   0.812344 0.500501 0.811440 0.093172
C27   C     C_3   0.825076 0.594549 0.842660 -0.371975
C28   C     C_3   0.718563 0.437182 0.788149 -0.361878
H24   H     H_    0.707542 0.368927 0.764950 0.186751
H25   H     H_    0.711518 0.457040 0.847381 0.180507
H26   H     H_    0.713601 0.615120 0.799455 0.175804
H27   H     H_    0.823016 0.618467 0.904578 0.140517
C29   C     C_3   0.228433 0.251717 0.407199 -0.353775
H28   H     H_    0.244302 0.224609 0.355838 0.219376
H29   H     H_    0.200669 0.292562 0.390620 0.144584
C30   C     C_3   0.158885 0.176229 0.404965 -0.356591
H30   H     H_    0.095850 0.176713 0.379417 0.181063
H31   H     H_    0.147656 0.112046 0.358979 0.178581
H32   H     H_    0.260619 0.114088 0.485308 0.192453
C31   C     C_3   0.346751 0.252595 0.528370 0.210316
C32   C     C_3   0.282630 0.350851 0.564733 -0.415960
C33   C     C_3   0.311277 0.309888 0.499623 0.042174
H33   H     H_    0.339634 0.392514 0.632604 0.173901
H34   H     H_    0.258574 0.393922 0.548076 0.196273
C34   C     C_3   0.189134 0.186759 0.497959 0.100500
C35   C     C_3   0.274802 0.181006 0.528323 -0.399526
C36   C     C_3   0.209282 0.278339 0.561768 -0.410604
H35   H     H_    0.149190 0.284578 0.540394 0.177638
H36   H     H_    0.229934 0.286893 0.628642 0.161645
H37   H     H_    0.402534 0.296713 0.597001 0.065181
H38   H     H_    0.299489 0.190691 0.595825 0.158090
O9    O     O_R   0.948230 0.538430 0.092080 -0.587287
O10   O     O_R   0.053760 0.643910 0.092060 -0.581933
C37   C     C_R   0.999365 0.620172 0.119156 0.769278
O11   O     O_R   0.039800 0.447260 0.092470 -0.584535
O12   O     O_R   0.145330 0.552750 0.092450 -0.572268
C38   C     C_R   0.121046 0.499429 0.120701 0.811155
Cu3   Cu    Cu3+1 0.938720 0.437560 0.001120 0.950360
Cu4   Cu    Cu3+1 0.063680 0.562470 0.001100 0.976134
O13   O     O_R   0.948640 0.356110 0.910160 -0.592147
O14   O     O_R   0.054170 0.461590 0.910140 -0.590932
O15   O     O_R   0.857070 0.447280 0.909760 -0.593613
O16   O     O_R   0.962600 0.552760 0.909740 -0.584395
C39   C     C_R   0.002832 0.379882 0.882704 0.745228
C40   C     C_R   0.880929 0.500247 0.880953 0.765046
O17   O     O_R   0.053170 0.908900 0.462020 -0.548294
O18   O     O_R   0.947410 0.908840 0.356190 -0.601045
C41   C     C_R   0.997515 0.876677 0.380739 0.786072
O19   O     O_R   0.961720 0.908880 0.552900 -0.497037
O20   O     O_R   0.855960 0.908820 0.447080 -0.605298
C42   C     C_R   0.880024 0.880967 0.501279 0.784649
Cu5   Cu    Cu3+1 0.062620 0.000040 0.562660 1.063025
Cu6   Cu    Cu3+1 0.937380 0.999960 0.437350 0.941734
O21   O     O_R   0.052590 0.091170 0.643810 -0.573783
O22   O     O_R   0.946830 0.091100 0.537990 -0.596738
O23   O     O_R   0.144040 0.091190 0.552920 -0.595073
O24   O     O_R   0.038280 0.091120 0.447100 -0.593632
C43   C     C_R   0.998716 0.119375 0.619559 0.747868
C44   C     C_R   0.119988 0.118019 0.497963 0.756942
C45   C     C_3   0.903805 0.665721 0.166158 -0.358989
H39   H     H_    0.869117 0.601938 0.162477 0.219415
H40   H     H_    0.867162 0.658483 0.100941 0.138821
C46   C     C_3   0.902936 0.737808 0.236260 -0.339168
H41   H     H_    0.872708 0.770150 0.205396 0.174091
H42   H     H_    0.860715 0.708728 0.260182 0.208848
H43   H     H_    0.016295 0.625126 0.267691 0.224028
C47   C     C_3   0.047060 0.692089 0.276172 -0.406586
C48   C     C_3   0.047608 0.781191 0.200062 -0.353166
C49   C     C_3   0.999492 0.688731 0.188650 0.066312
H44   H     H_    0.116322 0.799428 0.215597 0.201676
H45   H     H_    0.013988 0.780769 0.137962 0.176685
C50   C     C_3   0.997762 0.806603 0.312732 0.019475
C51   C     C_3   0.044642 0.759425 0.349827 0.331450
C52   C     C_3   0.048780 0.850671 0.274654 -0.478247
H46   H     H_    0.019336 0.886474 0.249107 0.194130
H47   H     H_    0.117853 0.900051 0.327160 0.171785
H48   H     H_    0.116491 0.710985 0.294256 0.144766
H49   H     H_    0.113758 0.810162 0.401035 0.102687
C53   C     C_3   0.989324 0.230747 0.827659 -0.380247
H50   H     H_    0.927331 0.203201 0.828991 0.188152
H51   H     H_    0.044159 0.251843 0.891959 0.157959
C54   C     C_3   0.985874 0.158247 0.753695 -0.337428
H52   H     H_    0.037949 0.143194 0.783022 0.212895
H53   H     H_    0.921660 0.097043 0.718456 0.169234
H54   H     H_    0.861963 0.251920 0.721515 0.169261
H55   H     H_    0.859440 0.147426 0.611659 0.169595
C55   C     C_3   0.925534 0.279257 0.722895 -0.393017
C56   C     C_3   0.089411 0.346423 0.811703 -0.350847
C57   C     C_3   0.002047 0.310704 0.813011 0.148179
H56   H     H_    0.099721 0.402728 0.799336 0.186305
H57   H     H_    0.145693 0.370704 0.876404 0.158237
C58   C     C_3   0.998735 0.188345 0.688648 0.128670
C59   C     C_3   0.924326 0.208317 0.649488 -0.344689
C60   C     C_3   0.087862 0.274009 0.739528 -0.396556
H58   H     H_    0.142416 0.262228 0.769812 0.176384
H59   H     H_    0.099050 0.296311 0.693881 0.151342
H60   H     H_    0.932685 0.335689 0.711235 0.162387
H61   H     H_    0.932700 0.231639 0.603594 0.181520
N1    N     N_R   0.911467 0.876841 0.665775 0.143679
O25   O     O_R   0.941497 0.823409 0.671048 -0.311584
O26   O     O_R   0.958719 0.958983 0.726745 -0.384047
N2    N     N_R   0.786465 0.521022 0.618367 0.109518
O27   O     O_R   0.762016 0.482501 0.535576 -0.357222
O28   O     O_R   0.848831 0.602546 0.668654 -0.369228
S1    S     S_3+6 0.404097 0.692841 0.367487 -0.026997
O29   O     O_2   0.451689 0.715044 0.461151 -0.298148
O30   O     O_2   0.466488 0.705062 0.332866 -0.345359
O31   O     O_3   0.361511 0.759173 0.361283 -0.529555
H62   H     H_    0.412714 0.819291 0.397152 0.381288
N3    N     N_R   0.379574 0.212886 0.474211 0.143595
O32   O     O_R   0.326263 0.149798 0.393437 -0.365724
O33   O     O_R   0.462403 0.236137 0.509125 -0.377873
S2    S     S_3+6 0.999547 0.705730 0.401751 -0.022581
O34   O     O_2   0.053242 0.665829 0.432805 -0.266909
O35   O     O_2   0.004307 0.770255 0.479545 -0.280622
O36   O     O_3   0.895051 0.625107 0.330856 -0.585772
H63   H     H_    0.877193 0.599032 0.364604 0.378917

loop_
_geom_bond_atom_site_label_1
_geom_bond_atom_site_label_2
_geom_bond_distance
_ccdc_geom_bond_type
C29   H29   1.113610 S    
C24   C25   1.547546 S    
H55   C59   1.113133 S    
C55   H60   1.113414 S    
N2    O28   1.301472 A    
C7    C10   1.536088 S    
C31   C33   1.565363 S    
O36   H63   0.990490 S    
C4    C25   1.486091 S    
C8    C9    1.549296 S    
C60   H58   1.113193 S    
C10   H4    1.110080 S    
C52   H47   1.113597 S    
C58   C59   1.556847 S    
O9    Cu3   1.974687 S    
O15   C40   1.295637 A    
Cu1   Cu2   2.692440 S    
C21   C22   1.548753 S    
C23   C27   1.541163 S    
C5    C8    1.537215 S    
Cu5   O21   1.973865 S    
C32   H33   1.113287 S    
C47   H48   1.113892 S    
C13   H6    1.113029 S    
C60   H59   1.113519 S    
C55   C57   1.547153 S    
C48   C52   1.542298 S    
C16   H13   1.112975 S    
C56   H56   1.113128 S    
O4    C2    1.293972 A    
O7    C4    1.296514 A    
C47   C51   1.549089 S    
C29   C30   1.542897 S    
C9    H3    1.110135 S    
C2    C12   1.469453 S    
C5    C6    1.538040 S    
Cu4   O16   1.973891 S    
C46   H41   1.113293 S    
O19   Cu5   1.978394 S    
C28   H25   1.113298 S    
C7    C8    1.533774 S    
C19   H16   1.113350 S    
C30   H31   1.113040 S    
H11   C19   1.113499 S    
O5    C3    1.297204 A    
C48   H45   1.113128 S    
S1    O31   1.681071 S    
N3    O32   1.301616 A    
C15   C19   1.540745 S    
S1    O30   1.501969 D    
C45   C49   1.554223 S    
C3    C33   1.491111 S    
C1    C17   1.486340 S    
C47   C49   1.543402 S    
C53   H50   1.112875 S    
C54   C58   1.551094 S    
C32   H34   1.113423 S    
O16   C40   1.298320 A    
C41   C50   1.490322 S    
O11   Cu3   1.973888 S    
C14   H8    1.106741 S    
C45   C46   1.541257 S    
C5    C12   1.528913 S    
C29   H28   1.110085 S    
C26   C27   1.549809 S    
C32   C36   1.542156 S    
C10   C11   1.549700 S    
S2    O35   1.499334 D    
C18   C20   1.568404 S    
C30   C34   1.555290 S    
C30   H30   1.112732 S    
O3    Cu1   1.971514 S    
C58   C60   1.547873 S    
H21   C27   1.113062 S    
H20   C23   1.110112 S    
O31   H62   0.990529 S    
O9    C37   1.298077 A    
C53   C57   1.553154 S    
O17   Cu5   1.976665 S    
C23   C25   1.557467 S    
C26   C28   1.558611 S    
C32   C33   1.561092 S    
C7    C38   1.464164 S    
C54   H52   1.112822 S    
C5    S1    1.781484 S    
C36   H36   1.113437 S    
C56   H57   1.113165 S    
C55   C59   1.543052 S    
Cu3   Cu4   2.695446 S    
O10   C37   1.296564 A    
C6    H1    1.110475 S    
O14   C39   1.296780 A    
C22   H19   1.112787 S    
C21   N2    1.469841 S    
O1    C1    1.297259 A    
C16   C20   1.549315 S    
Cu1   O7    1.974311 S    
C20   H14   1.115492 S    
C18   C19   1.559271 S    
C16   C17   1.554346 S    
Cu3   O13   1.976043 S    
C21   H17   1.115400 S    
C9    C12   1.539628 S    
C13   C17   1.553653 S    
Cu2   O8    1.971513 S    
Cu4   O14   1.974805 S    
C31   C35   1.547818 S    
C15   H15   1.111782 S    
C6    C7    1.534275 S    
N1    O25   1.301572 A    
O12   Cu4   1.971963 S    
O19   C42   1.295421 A    
C48   C49   1.553638 S    
H54   C55   1.113274 S    
C53   H51   1.113203 S    
O3    C2    1.293975 A    
O17   C41   1.292493 A    
O11   C38   1.293014 A    
C27   H27   1.113531 S    
C11   H5    1.110222 S    
C24   H22   1.113649 S    
S1    O29   1.502164 D    
O23   C44   1.294539 A    
C52   H46   1.113627 S    
O13   C39   1.298843 A    
O20   C42   1.297790 A    
C45   H39   1.112763 S    
Cu6   O24   1.978494 S    
C54   H53   1.113305 S    
Cu5   O23   1.976669 S    
C14   H9    1.113376 S    
C6    C11   1.551571 S    
C14   C18   1.550116 S    
C35   H38   1.113455 S    
N3    O33   1.300790 A    
O1    Cu1   1.976979 S    
O21   C43   1.295697 A    
C13   C14   1.539438 S    
O2    Cu2   1.978219 S    
N1    O26   1.300854 A    
C36   H35   1.113338 S    
C51   S2    1.812128 S    
O6    C3    1.297214 A    
O4    Cu2   1.974310 S    
H43   C47   1.113163 S    
C18   C42   1.492392 S    
H32   C35   1.113077 S    
Cu5   Cu6   2.689111 S    
O18   Cu6   1.973846 S    
C22   C26   1.548894 S    
O22   C43   1.295384 A    
C46   C50   1.551412 S    
C15   C17   1.543707 S    
O2    C1    1.295966 A    
O8    C4    1.296179 A    
C31   N3    1.470366 S    
O10   Cu4   1.975952 S    
C56   C57   1.556588 S    
C34   C35   1.555759 S    
C50   C51   1.581084 S    
S2    O34   1.503429 D    
Cu6   O22   1.976663 S    
C51   H49   1.113356 S    
C53   C54   1.542210 S    
C29   C33   1.551816 S    
C24   C28   1.540524 S    
C13   H7    1.112698 S    
O18   C41   1.301134 A    
H10   C15   1.113284 S    
C46   H42   1.109076 S    
C8    H2    1.110329 S    
O20   Cu6   1.976431 S    
C34   C36   1.545876 S    
C28   H24   1.113321 S    
C43   C58   1.487179 S    
O24   C44   1.297029 A    
C39   C57   1.487845 S    
C48   H44   1.113099 S    
C37   C49   1.486122 S    
C56   C60   1.541289 S    
Cu3   O15   1.972083 S    
C59   H61   1.113162 S    
Cu1   O5    1.978220 S    
C16   H12   1.113164 S    
C9    C10   1.547616 S    
C23   H26   1.113351 S    
S2    O36   1.681197 S    
Cu2   O6    1.976981 S    
C22   H18   1.113755 S    
C24   H23   1.111907 S    
N2    O27   1.301148 A    
C50   C52   1.553427 S    
C26   C40   1.485461 S    
C11   C12   1.538913 S    
C34   C44   1.487410 S    
O12   C38   1.294559 A    
C31   H37   1.115569 S    
C20   N1    1.469932 S    
C21   C25   1.569145 S    
C45   H40   1.113325 S    
