data_mof_unit_32730.cif
_audit_creation_date              2013-03-05T15:45:57-0500
_audit_creation_method            fapswitch 2.2
_symmetry_space_group_name_H-M    P1
_symmetry_Int_Tables_number       1
_space_group_crystal_system       triclinic
_cell_length_a                    18.968079
_cell_length_b                    10.989737
_cell_length_c                    18.707147
_cell_angle_alpha                 90.053176
_cell_angle_beta                  88.884895
_cell_angle_gamma                 89.980427
_cell_volume                      3898.84290588

loop_
_atom_site_label
_atom_site_type_symbol
_atom_site_description
_atom_site_fract_x
_atom_site_fract_y
_atom_site_fract_z
_atom_type_partial_charge
O1    O     O_R   0.787510 0.042610 0.670410 -0.471487
O2    O     O_R   0.212490 0.042610 0.329590 -0.474304
O3    O     O_R   0.287510 0.542610 0.670410 -0.474338
O4    O     O_R   0.712490 0.542610 0.329590 -0.473973
O5    O     O_R   0.765670 0.292090 0.675090 -0.477376
O6    O     O_R   0.234330 0.292090 0.324910 -0.477586
O7    O     O_R   0.265670 0.792090 0.675090 -0.477689
O8    O     O_R   0.734330 0.792090 0.324910 -0.478119
C1    C     C_R   0.733805 0.383786 0.648635 0.575114
C2    C     C_R   0.266186 0.383850 0.351351 0.574639
C3    C     C_R   0.233807 0.883789 0.648637 0.574517
C4    C     C_R   0.766187 0.883847 0.351353 0.572592
O9    O     O_R   0.670220 0.409020 0.668560 -0.444833
O10   O     O_R   0.329780 0.409020 0.331440 -0.444954
O11   O     O_R   0.170220 0.909020 0.668560 -0.444924
O12   O     O_R   0.829780 0.909020 0.331440 -0.446570
O13   O     O_R   0.556580 0.251590 0.674980 -0.478347
O14   O     O_R   0.443420 0.251590 0.325020 -0.477276
O15   O     O_R   0.056580 0.751590 0.674980 -0.476913
O16   O     O_R   0.943420 0.751590 0.325020 -0.478492
C5    C     C_R   0.532403 0.154312 0.646888 0.550611
C6    C     C_R   0.467584 0.154339 0.353127 0.553021
C7    C     C_R   0.032407 0.654312 0.646885 0.553539
C8    C     C_R   0.967586 0.654339 0.353126 0.550817
O17   O     O_R   0.545890 0.049670 0.670030 -0.515031
O18   O     O_R   0.454110 0.049670 0.329970 -0.512999
O19   O     O_R   0.045890 0.549670 0.670030 -0.512949
O20   O     O_R   0.954110 0.549670 0.329970 -0.514934
O21   O     O_R   0.681340 0.957860 0.676500 -0.504383
O22   O     O_R   0.318660 0.957860 0.323500 -0.505764
O23   O     O_R   0.181340 0.457860 0.676500 -0.505667
O24   O     O_R   0.818660 0.457860 0.323500 -0.506444
C9    C     C_R   0.726845 0.021744 0.639857 0.558297
C10   C     C_R   0.273123 0.021736 0.360186 0.557610
C11   C     C_R   0.226845 0.521742 0.639857 0.557629
C12   C     C_R   0.773125 0.521742 0.360186 0.557773
O25   O     O_R   0.787380 0.044010 0.830940 -0.522146
O26   O     O_R   0.212620 0.044010 0.169060 -0.518008
O27   O     O_R   0.287380 0.544010 0.830940 -0.518462
O28   O     O_R   0.712620 0.544010 0.169060 -0.520552
O29   O     O_R   0.765540 0.293390 0.823910 -0.504772
O30   O     O_R   0.234460 0.293390 0.176090 -0.500512
O31   O     O_R   0.265540 0.793390 0.823910 -0.500195
O32   O     O_R   0.734460 0.793390 0.176090 -0.503508
C13   C     C_R   0.727844 0.375115 0.853930 0.542992
C14   C     C_R   0.272493 0.374142 0.145694 0.543009
C15   C     C_R   0.227450 0.874123 0.854317 0.542705
C16   C     C_R   0.769790 0.879530 0.148439 0.543231
O33   O     O_R   0.670090 0.410410 0.829090 -0.530741
O34   O     O_R   0.329910 0.410410 0.170910 -0.530670
O35   O     O_R   0.170090 0.910410 0.829090 -0.530252
O36   O     O_R   0.829910 0.910410 0.170910 -0.528319
O37   O     O_R   0.556450 0.252890 0.823790 -0.510876
O38   O     O_R   0.443550 0.252890 0.176210 -0.508929
O39   O     O_R   0.056450 0.752890 0.823790 -0.508082
O40   O     O_R   0.943550 0.752890 0.176210 -0.507760
C17   C     C_R   0.530305 0.157395 0.852207 0.545483
C18   C     C_R   0.466014 0.156432 0.145265 0.545973
C19   C     C_R   0.034297 0.656418 0.854865 0.546758
C20   C     C_R   0.969474 0.657516 0.147718 0.546833
O41   O     O_R   0.545750 0.051070 0.830560 -0.516004
O42   O     O_R   0.454250 0.051070 0.169440 -0.519465
O43   O     O_R   0.045750 0.551070 0.830560 -0.519798
O44   O     O_R   0.954250 0.551070 0.169440 -0.517682
O45   O     O_R   0.681210 0.959150 0.825320 -0.497462
O46   O     O_R   0.318790 0.959150 0.174680 -0.504556
O47   O     O_R   0.181210 0.459150 0.825320 -0.504710
O48   O     O_R   0.818790 0.459150 0.174680 -0.502126
C21   C     C_R   0.739601 0.976766 0.856420 0.552798
C22   C     C_R   0.258527 0.968692 0.146632 0.551872
C23   C     C_R   0.241587 0.468638 0.853309 0.551754
C24   C     C_R   0.758715 0.469173 0.146419 0.552149
Cr1   Cr    Cr6+3 0.771950 0.169480 0.750100 1.084529
Cr2   Cr    Cr6+3 0.228050 0.169480 0.249900 1.084431
Cr3   Cr    Cr6+3 0.271950 0.669480 0.750100 1.084260
Cr4   Cr    Cr6+3 0.728050 0.669480 0.249900 1.084319
Cr5   Cr    Cr6+3 0.614930 0.323340 0.749170 1.065310
Cr6   Cr    Cr6+3 0.385070 0.323340 0.250830 1.067493
Cr7   Cr    Cr6+3 0.114930 0.823340 0.749170 1.069462
Cr8   Cr    Cr6+3 0.885070 0.823340 0.250830 1.067163
Cr9   Cr    Cr6+3 0.616590 0.010620 0.750610 1.051185
Cr10  Cr    Cr6+3 0.383410 0.010620 0.249390 1.048760
Cr11  Cr    Cr6+3 0.116590 0.510620 0.750610 1.048492
Cr12  Cr    Cr6+3 0.883410 0.510620 0.249390 1.047783
O49   O     O_3   0.667820 0.167810 0.749960 -0.294568
O50   O     O_3   0.332180 0.167810 0.250040 -0.294020
O51   O     O_3   0.167820 0.667810 0.749960 -0.294652
O52   O     O_3   0.832180 0.667810 0.250040 -0.290779
C25   C     C_R   0.493149 0.156142 0.424905 0.010364
C26   C     C_R   0.506776 0.156112 0.575141 0.010941
C27   C     C_R   0.993158 0.656142 0.424899 0.011048
C28   C     C_R   0.006789 0.656113 0.575135 0.010505
C29   C     C_R   0.497587 0.262207 0.464070 -0.008597
C30   C     C_R   0.502269 0.262202 0.536094 -0.008234
C31   C     C_R   0.997599 0.762207 0.464063 -0.008419
C32   C     C_R   0.002284 0.762203 0.536086 -0.008397
C33   C     C_R   0.502822 0.045451 0.536922 -0.122170
C34   C     C_R   0.497123 0.045465 0.463015 -0.122123
C35   C     C_R   0.002836 0.545451 0.536916 -0.122370
C36   C     C_R   0.997136 0.545464 0.463009 -0.121867
C37   C     C_3   0.495934 0.397121 0.459396 0.137111
C38   C     C_3   0.503899 0.397141 0.540871 0.137093
C39   C     C_3   0.995945 0.897121 0.459387 0.136986
C40   C     C_3   0.003913 0.897143 0.540861 0.137184
H1    H     H_    0.507101 0.958110 0.563175 0.220790
H2    H     H_    0.492870 0.958118 0.436676 0.220930
H3    H     H_    0.007114 0.458110 0.563169 0.220769
H4    H     H_    0.992881 0.458118 0.436670 0.220946
H5    H     H_    0.540184 0.437055 0.427235 0.168338
H6    H     H_    0.459646 0.437143 0.573064 0.168117
H7    H     H_    0.040193 0.937054 0.427223 0.168189
H8    H     H_    0.959660 0.937145 0.573055 0.168635
C41   C     C_R   0.678475 0.917271 0.531085 -0.128010
C42   C     C_R   0.321462 0.917133 0.468857 -0.128023
C43   C     C_R   0.178478 0.417264 0.531086 -0.128141
C44   C     C_R   0.821463 0.417137 0.468855 -0.128012
H9    H     H_    0.640439 0.869967 0.564784 0.182548
H10   H     H_    0.359514 0.869832 0.435101 0.182726
H11   H     H_    0.140444 0.369956 0.564785 0.182665
H12   H     H_    0.859517 0.369839 0.435099 0.182643
C45   C     C_R   0.679644 0.894528 0.456983 0.159814
C46   C     C_R   0.320317 0.894376 0.542942 0.159389
C47   C     C_R   0.179645 0.394525 0.456983 0.159609
C48   C     C_R   0.820315 0.394376 0.542939 0.159242
C49   C     C_R   0.733795 0.948300 0.414462 0.035141
C50   C     C_R   0.266155 0.948151 0.585539 0.034763
C51   C     C_R   0.233793 0.448301 0.414461 0.034803
C52   C     C_R   0.766153 0.448148 0.585536 0.034999
C53   C     C_R   0.766852 0.052468 0.441582 -0.071869
C54   C     C_R   0.233047 0.052315 0.558519 -0.071842
C55   C     C_R   0.266849 0.552470 0.441582 -0.071882
C56   C     C_R   0.733040 0.552308 0.558516 -0.071493
H13   H     H_    0.800380 0.107642 0.407360 0.185445
H14   H     H_    0.199504 0.107502 0.592803 0.185950
H15   H     H_    0.300374 0.607649 0.407359 0.185836
H16   H     H_    0.699494 0.607490 0.592799 0.186075
C57   C     C_R   0.764749 0.075814 0.515107 -0.077538
C58   C     C_R   0.235142 0.075692 0.485019 -0.077676
C59   C     C_R   0.264748 0.575813 0.515107 -0.077516
C60   C     C_R   0.735138 0.575689 0.485017 -0.077636
H17   H     H_    0.795440 0.149022 0.536239 0.182978
H18   H     H_    0.204453 0.148960 0.463985 0.183138
H19   H     H_    0.295440 0.649021 0.536239 0.183100
H20   H     H_    0.704447 0.648955 0.463983 0.183167
C61   C     C_R   0.725645 0.001143 0.561401 -0.018522
C62   C     C_R   0.274272 0.001040 0.438629 -0.018105
C63   C     C_R   0.225646 0.501139 0.561402 -0.018149
C64   C     C_R   0.774272 0.501043 0.438627 -0.018003
C65   C     C_R   0.481859 0.057619 0.957457 -0.131938
C66   C     C_R   0.478495 0.054399 0.030429 -0.126626
C67   C     C_R   0.026946 0.556346 0.970599 -0.129069
C68   C     C_R   0.022337 0.560483 0.043573 -0.136889
H21   H     H_    0.477134 0.972354 0.928762 0.132077
H22   H     H_    0.468799 0.966881 0.055225 0.131744
H23   H     H_    0.040452 0.469832 0.946346 0.131270
H24   H     H_    0.029935 0.476772 0.073058 0.129687
C69   C     C_R   0.485382 0.161852 0.070285 0.038042
C70   C     C_R   0.498559 0.166456 0.922726 0.034050
C71   C     C_R   0.001022 0.667822 0.077287 0.031591
C72   C     C_R   0.015775 0.661782 0.929981 0.036619
C73   C     C_R   0.495608 0.273413 0.035492 -0.144241
C74   C     C_R   0.502491 0.275685 0.961470 -0.140454
C75   C     C_R   0.992812 0.775491 0.037708 -0.137363
C76   C     C_R   0.000741 0.772530 0.963838 -0.143918
H25   H     H_    0.498500 0.357778 0.065277 0.115197
H26   H     H_    0.514263 0.361111 0.935087 0.118276
H27   H     H_    0.976343 0.859704 0.063128 0.133364
H28   H     H_    0.994361 0.855454 0.933375 0.122840
C77   C     C_R   0.788728 0.024452 0.972737 -0.127830
C78   C     C_R   0.183380 0.936070 0.044380 -0.131294
C79   C     C_R   0.316339 0.440925 0.956292 -0.130370
C80   C     C_R   0.684367 0.438946 0.043599 -0.136190
H29   H     H_    0.822054 0.093899 0.948740 0.139123
H30   H     H_    0.137147 0.963769 0.075253 0.132842
H31   H     H_    0.362175 0.472163 0.926065 0.132736
H32   H     H_    0.638038 0.466403 0.074406 0.128890
C81   C     C_R   0.790371 0.011357 0.045641 -0.136482
C82   C     C_R   0.178568 0.929200 0.971380 -0.125274
C83   C     C_R   0.320592 0.434609 0.029305 -0.125309
C84   C     C_R   0.679800 0.433335 0.970629 -0.128736
H33   H     H_    0.826853 0.066571 0.075557 0.131467
H34   H     H_    0.127609 0.946385 0.948254 0.137184
H35   H     H_    0.370794 0.456025 0.052897 0.135478
H36   H     H_    0.629082 0.452070 0.947516 0.130699
C85   C     C_R   0.749700 0.921088 0.078521 0.033315
C86   C     C_R   0.237998 0.898401 0.929263 0.037339
C87   C     C_R   0.261759 0.398790 0.070778 0.037124
C88   C     C_R   0.738990 0.401318 0.928540 0.037785
C89   C     C_R   0.701695 0.852286 0.038661 -0.127451
C90   C     C_R   0.301751 0.869274 0.961568 -0.134548
C91   C     C_R   0.199165 0.364729 0.037686 -0.134746
C92   C     C_R   0.802872 0.372793 0.960764 -0.143490
H37   H     H_    0.669515 0.781959 0.063368 0.138679
H38   H     H_    0.347243 0.840386 0.930001 0.123375
H39   H     H_    0.154262 0.331811 0.068664 0.124134
H40   H     H_    0.848347 0.344014 0.929132 0.125475
C93   C     C_R   0.699071 0.867131 0.965160 -0.136877
C94   C     C_R   0.306983 0.878893 0.035236 -0.132450
C95   C     C_R   0.194380 0.374089 0.963934 -0.133716
C96   C     C_R   0.808205 0.382801 0.034431 -0.139117
H41   H     H_    0.662841 0.812686 0.934523 0.126910
H42   H     H_    0.357485 0.862592 0.059374 0.124455
H43   H     H_    0.144783 0.353264 0.939110 0.122740
H44   H     H_    0.859041 0.368094 0.058393 0.133627
C97   C     C_R   0.744615 0.950126 0.931744 0.033143
C98   C     C_R   0.248438 0.917646 0.076344 0.031234
C99   C     C_R   0.252143 0.417686 0.923549 0.031503
C100  C     C_R   0.749274 0.419862 0.075666 0.030433
N1    N     N_R   0.927493 0.942090 0.440605 0.084283
O53   O     O_R   0.923100 0.047794 0.409881 -0.307385
O54   O     O_R   0.871898 0.891430 0.469472 -0.388581
N2    N     N_R   0.072361 0.942098 0.559657 0.084085
O55   O     O_R   0.076738 0.047872 0.590412 -0.306723
O56   O     O_R   0.127950 0.891421 0.530688 -0.389213
N3    N     N_R   0.427483 0.442092 0.440613 0.084088
O57   O     O_R   0.423092 0.547805 0.409900 -0.306796
O58   O     O_R   0.371889 0.391427 0.469475 -0.389168
N4    N     N_R   0.572347 0.442093 0.559670 0.084224
O59   O     O_R   0.576724 0.547857 0.590438 -0.307179
O60   O     O_R   0.627937 0.391421 0.530700 -0.389075
N5    N     N_R   0.624235 0.823488 0.425779 0.052594
O61   O     O_R   0.603552 0.847971 0.361437 -0.327545
O62   O     O_R   0.584838 0.753106 0.465738 -0.302376
N6    N     N_R   0.375768 0.823330 0.574045 0.052453
O63   O     O_R   0.396349 0.847582 0.638484 -0.328359
O64   O     O_R   0.415263 0.753120 0.533963 -0.301947
N7    N     N_R   0.124235 0.323484 0.425779 0.052595
O65   O     O_R   0.103551 0.347969 0.361439 -0.328769
O66   O     O_R   0.084840 0.253099 0.465738 -0.302358
N8    N     N_R   0.875766 0.323329 0.574043 0.052411
O67   O     O_R   0.896351 0.347584 0.638478 -0.326700
O68   O     O_R   0.915254 0.253103 0.533964 -0.301951

loop_
_geom_bond_atom_site_label_1
_geom_bond_atom_site_label_2
_geom_bond_distance
_ccdc_geom_bond_type
C18   O42   1.261859 A    
O17   Cr9   2.081915 S    
C17   C70   1.442784 S    
O4    C12   1.314785 A    
C46   C50   1.416514 A    
C29   C30   1.352003 A    
C66   C69   1.403460 A    
O39   C19   1.276897 A    
O20   Cr12  2.081529 S    
C93   C97   1.396260 A    
C31   C32   1.352004 A    
C20   C71   1.441002 S    
C28   C32   1.379925 A    
N6    O63   1.301673 A    
C60   C64   1.396531 A    
N8    O68   1.302085 A    
O26   C22   1.266501 A    
C33   C34   1.388905 A    
O1    C9    1.314890 A    
C24   C100  1.444159 S    
O7    C3    1.279795 A    
C59   C63   1.396534 A    
C37   C38   1.534561 S    
C5    O17   1.257129 A    
C78   C82   1.372461 A    
C73   H25   1.083202 S    
C72   C76   1.398251 A    
C57   C61   1.396535 A    
O40   C20   1.269999 A    
C91   C95   1.388329 A    
C78   C98   1.396465 A    
C55   H15   1.080318 S    
N3    O58   1.300918 A    
O26   Cr2   2.070656 S    
C81   H33   1.083963 S    
O47   C23   1.272759 A    
C47   N7    1.441690 S    
C50   C54   1.404712 A    
C81   C85   1.393117 A    
C37   H5    1.113611 S    
O21   C9    1.298491 A    
O8    Cr4   1.949859 S    
C7    C28   1.436517 S    
O23   Cr11  1.923133 S    
C39   H7    1.113611 S    
O30   C14   1.271509 A    
C69   C73   1.400404 A    
C41   C61   1.411062 A    
O32   Cr4   1.942349 S    
N7    O65   1.301524 A    
C65   H21   1.084081 S    
O44   Cr12  2.040461 S    
C1    O9    1.285528 A    
C84   C88   1.403236 A    
C45   C49   1.416495 A    
C74   H26   1.082369 S    
C3    O11   1.285531 A    
C12   C64   1.485731 S    
O11   Cr7   2.049940 S    
C56   C60   1.398805 A    
C4    O12   1.285790 A    
C94   H42   1.081888 S    
C67   C68   1.366937 A    
C93   H41   1.083386 S    
O6    Cr2   1.949859 S    
O27   Cr3   2.072393 S    
C14   C87   1.445912 S    
C96   H44   1.083385 S    
O3    Cr3   2.057238 S    
C65   C70   1.395265 A    
Cr4   O52   1.975280 S    
C26   C33   1.412909 A    
C87   C91   1.400544 A    
O2    Cr2   2.059250 S    
O8    C4    1.279766 A    
C48   C52   1.416517 A    
C33   H1    1.082352 S    
O2    C10   1.314770 A    
C23   C99   1.446278 S    
O42   Cr10  2.040461 S    
C68   C71   1.393252 A    
Cr5   O49   1.981818 S    
C96   C100  1.405693 A    
C66   H22   1.082430 S    
C46   N6    1.441728 S    
C95   H43   1.081678 S    
C79   C83   1.371617 A    
C54   H14   1.080322 S    
C59   H19   1.072927 S    
O34   Cr6   2.075673 S    
Cr7   O51   1.981818 S    
C53   C57   1.398736 A    
C31   C39   1.485686 S    
Cr9   O49   1.982251 S    
C73   C74   1.388605 A    
C90   H38   1.083375 S    
C83   H35   1.083160 S    
C5    C26   1.436505 S    
O31   Cr3   1.940493 S    
O24   Cr12  1.924162 S    
O16   Cr8   1.958104 S    
O9    Cr5   2.049940 S    
C36   H4    1.082333 S    
C1    C52   1.497922 S    
O30   Cr2   1.942349 S    
O22   C10   1.298250 A    
O48   Cr12  1.959932 S    
C68   H24   1.084107 S    
C80   C100  1.395842 A    
C3    C50   1.497926 S    
C43   C47   1.408109 A    
C42   C62   1.411158 A    
N1    O53   1.299911 A    
C58   H18   1.072948 S    
C29   C37   1.485690 S    
C44   C64   1.411158 A    
C38   N4    1.439193 S    
C92   C96   1.388025 A    
O7    Cr3   1.951603 S    
C4    C49   1.497636 S    
O27   C23   1.265974 A    
Cr10  O50   1.981652 S    
C79   H31   1.083941 S    
O13   C5    1.279862 A    
C42   C46   1.408282 A    
O28   Cr4   2.070656 S    
C37   N3    1.439156 S    
O43   Cr11  2.039657 S    
O48   C24   1.270258 A    
O12   Cr8   2.048322 S    
Cr12  O52   1.981652 S    
C86   C90   1.399487 A    
O15   C7    1.279854 A    
N3    O57   1.299909 A    
O5    C1    1.279795 A    
N5    O61   1.301525 A    
C89   H37   1.083301 S    
C94   C98   1.404209 A    
O46   Cr10  1.959932 S    
O39   Cr7   1.928938 S    
C19   C72   1.442961 S    
N4    O60   1.300933 A    
C35   C36   1.388901 A    
O3    C11   1.314881 A    
C75   H27   1.083244 S    
C56   H16   1.080324 S    
C95   C99   1.403418 A    
C13   O33   1.259490 A    
C41   C45   1.408113 A    
O36   Cr8   2.075673 S    
C11   C63   1.485441 S    
O47   Cr11  1.960440 S    
Cr2   O50   1.975280 S    
C15   C86   1.444687 S    
O15   Cr7   1.957373 S    
O35   Cr7   2.074722 S    
Cr1   O49   1.975290 S    
C42   H10   1.082290 S    
C9    C61   1.485442 S    
C85   C89   1.408094 A    
C41   H9    1.082288 S    
C76   H28   1.083268 S    
Cr3   O51   1.975290 S    
O14   Cr6   1.958104 S    
N7    O66   1.302009 A    
N2    O56   1.300932 A    
O21   Cr9   1.923133 S    
C7    O19   1.257128 A    
C77   C81   1.372495 A    
C49   C53   1.404586 A    
C2    O10   1.285791 A    
O37   Cr5   1.928938 S    
C27   C36   1.413164 A    
O25   C21   1.256563 A    
C53   H13   1.080321 S    
C39   N1    1.439164 S    
C38   H6    1.113610 S    
C22   C98   1.445251 S    
O18   Cr10  2.081529 S    
C40   N2    1.439194 S    
C79   C99   1.397177 A    
C2    C51   1.497653 S    
C54   C58   1.398814 A    
C8    C27   1.436577 S    
C92   H40   1.083428 S    
C47   C51   1.416497 A    
C90   C94   1.387548 A    
C8    O20   1.256869 A    
C40   H8    1.113609 S    
O38   C18   1.276449 A    
O25   Cr1   2.072393 S    
C89   C93   1.386645 A    
C19   O43   1.260682 A    
C57   H17   1.072926 S    
C52   C56   1.404715 A    
O37   C17   1.273203 A    
O22   Cr10  1.924162 S    
O28   C24   1.266778 A    
O14   C6    1.280193 A    
C21   C97   1.444405 S    
C26   C30   1.379915 A    
O5    Cr1   1.951603 S    
C60   H20   1.072953 S    
C18   C69   1.444324 S    
N6    O64   1.302109 A    
Cr11  O51   1.982251 S    
O6    C2    1.279763 A    
C15   O35   1.259178 A    
O24   C12   1.298265 A    
C13   C88   1.444482 S    
C17   O41   1.268645 A    
C78   H30   1.083987 S    
C82   H34   1.083250 S    
C35   H3    1.082353 S    
C14   O34   1.259941 A    
C43   H11   1.082282 S    
C67   H23   1.081643 S    
C34   H2    1.082334 S    
C20   O44   1.270246 A    
C25   C34   1.413166 A    
C88   C92   1.399447 A    
C43   C63   1.411066 A    
O1    Cr1   2.057238 S    
C67   C72   1.404497 A    
C51   C55   1.404589 A    
C32   C40   1.485923 S    
O40   Cr8   1.927597 S    
C16   C85   1.443940 S    
N5    O62   1.302009 A    
O32   C16   1.265168 A    
O29   C13   1.271329 A    
C65   C66   1.365856 A    
C77   C97   1.406998 A    
O13   Cr5   1.957373 S    
C10   C62   1.485747 S    
C77   H29   1.083285 S    
C80   C84   1.370819 A    
N4    O59   1.299930 A    
O46   C22   1.271336 A    
C58   C62   1.396531 A    
O45   C21   1.275806 A    
O23   C11   1.298486 A    
O19   Cr11  2.081915 S    
N1    O54   1.300919 A    
C6    C25   1.436599 S    
O33   Cr5   2.074722 S    
C71   C75   1.406603 A    
O10   Cr6   2.048322 S    
C25   C29   1.379651 A    
N8    O67   1.301652 A    
C44   H12   1.082297 S    
C91   H39   1.083296 S    
O4    Cr4   2.059250 S    
C75   C76   1.387500 A    
C55   C59   1.398739 A    
C70   C74   1.404413 A    
O29   Cr1   1.940493 S    
C82   C86   1.403843 A    
C80   H32   1.084077 S    
C16   O36   1.269239 A    
C83   C87   1.403352 A    
N2    O55   1.299933 A    
C30   C38   1.485917 S    
C27   C31   1.379642 A    
Cr8   O52   1.982385 S    
Cr6   O50   1.982385 S    
C6    O18   1.256872 A    
C39   C40   1.534562 S    
C45   N5    1.441689 S    
O45   Cr9   1.960440 S    
O41   Cr9   2.039657 S    
C44   C48   1.408280 A    
O31   C15   1.270985 A    
O16   C8    1.280198 A    
C48   N8    1.441726 S    
C84   H36   1.082148 S    
C28   C35   1.412910 A    
O38   Cr6   1.927597 S    
