data_mof_unit_65570.cif
_audit_creation_date              2013-03-05T16:01:34-0500
_audit_creation_method            fapswitch 2.2
_symmetry_space_group_name_H-M    P1
_symmetry_Int_Tables_number       1
_space_group_crystal_system       triclinic
_cell_length_a                    21.413028
_cell_length_b                    29.189834
_cell_length_c                    29.186025
_cell_angle_alpha                 89.997824
_cell_angle_beta                  90.020371
_cell_angle_gamma                 90.003452
_cell_volume                      18242.5116251

loop_
_atom_site_label
_atom_site_type_symbol
_atom_site_description
_atom_site_fract_x
_atom_site_fract_y
_atom_site_fract_z
_atom_type_partial_charge
O1    O     O_R   0.000000 0.964340 0.063140 -0.603343
O2    O     O_R   0.000000 0.964340 0.936860 -0.603371
O3    O     O_R   0.500000 0.464340 0.563140 -0.603039
O4    O     O_R   0.500000 0.464340 0.436860 -0.603256
O5    O     O_R   0.000000 0.035640 0.063120 -0.599147
O6    O     O_R   0.000000 0.035640 0.936880 -0.599112
O7    O     O_R   0.500000 0.535640 0.563120 -0.599757
O8    O     O_R   0.500000 0.535640 0.436880 -0.599341
C1    C     C_R   0.999905 0.999994 0.086739 0.908360
C2    C     C_R   0.000095 0.999995 0.913261 0.908362
C3    C     C_R   0.500099 0.499994 0.586739 0.908565
C4    C     C_R   0.499898 0.499995 0.413261 0.908628
O9    O     O_R   0.093030 0.964340 0.000000 -0.620525
O10   O     O_R   0.906970 0.964340 0.000000 -0.620519
O11   O     O_R   0.593030 0.464340 0.500000 -0.620538
O12   O     O_R   0.406970 0.464340 0.500000 -0.620634
O13   O     O_R   0.093040 0.035640 0.000000 -0.621262
O14   O     O_R   0.906960 0.035640 0.000000 -0.621260
O15   O     O_R   0.593040 0.535640 0.500000 -0.621381
O16   O     O_R   0.406960 0.535640 0.500000 -0.621511
C5    C     C_R   0.122640 0.000021 0.000210 0.958785
C6    C     C_R   0.877360 0.000019 0.999790 0.958766
C7    C     C_R   0.622637 0.500020 0.499764 0.958970
C8    C     C_R   0.377369 0.500014 0.500270 0.959373
Zn1   Zn    Zn3+2 0.000000 0.952380 0.000000 0.967020
Zn2   Zn    Zn3+2 0.500000 0.452380 0.500000 0.967735
Zn3   Zn    Zn3+2 0.000000 0.047600 0.000000 0.977826
Zn4   Zn    Zn3+2 0.500000 0.547600 0.500000 0.976610
C9    C     C_3   0.229474 0.972199 0.033451 -0.240598
C10   C     C_3   0.770517 0.972254 0.966503 -0.240584
C11   C     C_3   0.771654 0.043758 0.992100 -0.243626
C12   C     C_3   0.228357 0.043747 0.007971 -0.243628
C13   C     C_3   0.728390 0.543533 0.491082 -0.243683
C14   C     C_3   0.271523 0.542939 0.511073 -0.243666
C15   C     C_3   0.270693 0.469776 0.531455 -0.241381
C16   C     C_3   0.729396 0.471471 0.467099 -0.240829
C17   C     C_3   0.269690 0.015447 0.040722 0.391643
C18   C     C_3   0.730313 0.015517 0.959304 0.391616
C19   C     C_3   0.769656 0.514529 0.458927 0.391953
C20   C     C_3   0.230331 0.512311 0.541749 0.392529
H1    H     H_    0.211419 0.949015 0.060540 0.175379
H2    H     H_    0.788566 0.949115 0.939377 0.175342
H3    H     H_    0.790374 0.078628 0.985583 0.185385
H4    H     H_    0.209646 0.078606 0.014546 0.185373
H5    H     H_    0.709702 0.578256 0.483784 0.185160
H6    H     H_    0.290150 0.577278 0.520082 0.184750
H7    H     H_    0.288852 0.444783 0.556852 0.176676
H8    H     H_    0.711287 0.447741 0.440500 0.175766
C21   C     C_3   0.310684 0.001424 0.000090 -0.144359
C22   C     C_3   0.689316 0.001428 0.999912 -0.144347
C23   C     C_3   0.810675 0.501324 0.499845 -0.144431
C24   C     C_3   0.189344 0.501085 0.500215 -0.144658
C25   C     C_3   0.270879 0.958550 0.992265 0.144664
C26   C     C_3   0.729107 0.958538 0.007667 0.144694
C27   C     C_3   0.730362 0.029046 0.032848 0.127535
C28   C     C_3   0.269646 0.029102 0.967200 0.127542
C29   C     C_3   0.769706 0.529708 0.532149 0.128168
C30   C     C_3   0.230236 0.531101 0.469366 0.129311
C31   C     C_3   0.229318 0.458960 0.489401 0.142691
C32   C     C_3   0.770821 0.458650 0.508563 0.143984
C33   C     C_3   0.229578 0.986153 0.959232 0.231711
C34   C     C_3   0.770416 0.986081 0.040745 0.231654
C35   C     C_3   0.729591 0.486959 0.541011 0.231985
C36   C     C_3   0.270473 0.488906 0.458404 0.232801
C37   C     C_3   0.189233 0.000257 0.000071 -0.151865
C38   C     C_3   0.810766 0.000252 0.999929 -0.151862
C39   C     C_3   0.689225 0.500243 0.499887 -0.151858
C40   C     C_3   0.310792 0.500201 0.500142 -0.151847
C41   C     C_1   0.999845 0.999997 0.137406 -0.210369
C42   C     C_1   0.000155 0.000002 0.862594 -0.210375
C43   C     C_1   0.500144 0.499998 0.637406 -0.209909
C44   C     C_1   0.499850 0.500003 0.362594 -0.210088
C45   C     C_1   0.999819 0.999996 0.179606 0.013818
C46   C     C_1   0.000181 0.000001 0.820394 0.013811
C47   C     C_1   0.500156 0.499996 0.679606 0.014222
C48   C     C_1   0.499837 0.500002 0.320395 0.014118
C49   C     C_1   0.999829 0.999993 0.229429 0.016658
C50   C     C_1   0.000172 0.999998 0.770571 0.016646
C51   C     C_1   0.500129 0.499994 0.729429 0.016951
C52   C     C_1   0.499865 0.499999 0.270571 0.016801
C53   C     C_1   0.999860 0.999992 0.271630 0.014013
C54   C     C_1   0.000140 0.999995 0.728370 0.013999
C55   C     C_1   0.500086 0.499992 0.771630 0.014222
C56   C     C_1   0.499910 0.499997 0.228370 0.014107
C57   C     C_1   0.999911 0.999991 0.321455 0.010325
C58   C     C_1   0.000089 0.999993 0.678545 0.010308
C59   C     C_1   0.500028 0.499991 0.821455 0.010474
C60   C     C_1   0.499969 0.499994 0.178545 0.010399
C61   C     C_1   0.999953 0.999990 0.363658 -0.194734
C62   C     C_1   0.000047 0.999991 0.636342 -0.194751
C63   C     C_1   0.499993 0.499991 0.863657 -0.194603
C64   C     C_1   0.500006 0.499992 0.136343 -0.194657
O17   O     O_R   0.500000 0.063090 0.964350 -0.596061
O18   O     O_R   0.500000 0.063090 0.035650 -0.596106
O19   O     O_R   1.000000 0.563090 0.464350 -0.595608
O20   O     O_R   0.000000 0.563090 0.535650 -0.596722
C65   C     C_R   0.500000 0.086705 0.999999 0.901181
C66   C     C_R   0.000006 0.586705 0.499999 0.900665
O21   O     O_R   0.406990 0.999940 0.964350 -0.631036
O22   O     O_R   0.593010 0.999940 0.035650 -0.631029
O23   O     O_R   0.593010 0.999940 0.964350 -0.575105
O24   O     O_R   0.406990 0.999940 0.035650 -0.575071
O25   O     O_R   0.906990 0.499940 0.464350 -0.574767
O26   O     O_R   0.093010 0.499940 0.535650 -0.573964
O27   O     O_R   0.093010 0.499940 0.464350 -0.630976
O28   O     O_R   0.906990 0.499940 0.535650 -0.630964
C67   C     C_R   0.377410 0.001658 0.000021 0.956495
C68   C     C_R   0.622590 0.001670 0.999979 0.956520
C69   C     C_R   0.877400 0.501499 0.499959 0.956115
C70   C     C_R   0.122618 0.501152 0.500053 0.955368
Zn5   Zn    Zn3+2 0.500000 0.999950 0.952390 1.014267
Zn6   Zn    Zn3+2 0.500000 0.999950 0.047610 1.014312
Zn7   Zn    Zn3+2 1.000000 0.499950 0.452390 1.014788
Zn8   Zn    Zn3+2 0.000000 0.499950 0.547610 1.015672
O29   O     O_R   0.500000 0.936790 0.964340 -0.600814
O30   O     O_R   0.500000 0.936790 0.035660 -0.600771
O31   O     O_R   0.000000 0.436790 0.464340 -0.600982
O32   O     O_R   0.000000 0.436790 0.535660 -0.600173
C71   C     C_R   0.500000 0.913190 0.000001 0.899423
C72   C     C_R   0.999994 0.413189 0.500001 0.898603
O33   O     O_R   0.052540 0.063140 0.500000 -0.590938
O34   O     O_R   0.947460 0.063140 0.500000 -0.590958
O35   O     O_R   0.552540 0.563140 0.000000 -0.590986
O36   O     O_R   0.447460 0.563140 0.000000 -0.590980
C73   C     C_R   0.000002 0.085643 0.500000 0.876728
C74   C     C_R   0.500002 0.585644 0.000000 0.876620
O37   O     O_R   0.052540 0.999990 0.436840 -0.589746
O38   O     O_R   0.947460 0.999990 0.563160 -0.589740
O39   O     O_R   0.947460 0.999990 0.436840 -0.591713
O40   O     O_R   0.052540 0.999990 0.563160 -0.591729
O41   O     O_R   0.552540 0.499990 0.936840 -0.591710
O42   O     O_R   0.447460 0.499990 0.063160 -0.591694
O43   O     O_R   0.447460 0.499990 0.936840 -0.589676
O44   O     O_R   0.552540 0.499990 0.063160 -0.589732
C75   C     C_R   0.999988 0.999990 0.414334 0.876718
C76   C     C_R   0.000012 0.999990 0.585666 0.876709
C77   C     C_R   0.499993 0.499990 0.914334 0.876684
C78   C     C_R   0.500007 0.499990 0.085666 0.876674
Zn9   Zn    Zn3+2 0.070140 0.999990 0.500000 0.981210
Zn10  Zn    Zn3+2 0.929860 0.999990 0.500000 0.981266
Zn11  Zn    Zn3+2 0.570140 0.499990 0.000000 0.981412
Zn12  Zn    Zn3+2 0.429860 0.499990 0.000000 0.981502
O45   O     O_R   0.052520 0.936840 0.500000 -0.590851
O46   O     O_R   0.947480 0.936840 0.500000 -0.590785
O47   O     O_R   0.552520 0.436840 0.000000 -0.590748
O48   O     O_R   0.447480 0.436840 0.000000 -0.590721
C79   C     C_R   0.999998 0.914325 0.500000 0.876730
C80   C     C_R   0.499998 0.414325 0.000000 0.876774
C81   C     C_1   0.499999 0.137377 0.999998 -0.197460
C82   C     C_1   0.000006 0.637376 0.499997 -0.199621
C83   C     C_1   0.499997 0.179578 0.999997 0.014897
C84   C     C_1   0.000005 0.679577 0.499996 0.013982
C85   C     C_1   0.499996 0.229406 0.999998 0.016503
C86   C     C_1   0.000003 0.729406 0.499996 0.015891
C87   C     C_1   1.000000 0.771609 0.499997 0.013559
C88   C     C_1   0.499995 0.271609 0.999998 0.014058
C89   C     C_1   0.999997 0.821439 0.499998 0.009772
C90   C     C_1   0.499995 0.321439 0.999999 0.010124
C91   C     C_1   0.999996 0.863643 0.499999 -0.195206
C92   C     C_1   0.499995 0.363644 0.999999 -0.194914
C93   C     C_1   0.500001 0.862534 0.000002 -0.214611
C94   C     C_1   0.999994 0.362533 0.500001 -0.213824
C95   C     C_1   0.500003 0.820341 0.000002 0.008667
C96   C     C_1   0.999995 0.320341 0.500001 0.008867
C97   C     C_1   0.500004 0.770526 0.000002 0.012292
C98   C     C_1   0.999998 0.270525 0.500001 0.012573
C99   C     C_1   0.000000 0.228329 0.500000 0.011206
C100  C     C_1   0.500005 0.728330 0.000002 0.010951
C101  C     C_1   0.000003 0.178511 0.500000 0.008621
C102  C     C_1   0.500005 0.678511 0.000001 0.008450
C103  C     C_1   0.000004 0.136313 0.500000 -0.195570
C104  C     C_1   0.500005 0.636313 0.000000 -0.195671
Cl1   Cl    Cl    0.296078 0.035373 0.095075 -0.586685
Cl2   Cl    Cl    0.703925 0.035539 0.904985 -0.586692
Cl3   Cl    Cl    0.795949 0.533298 0.404150 -0.586430
Cl4   Cl    Cl    0.204162 0.528282 0.597439 -0.585871
C105  C     C_3   0.296464 0.910734 0.983529 -0.879561
H9    H     H_    0.257181 0.886307 0.979294 0.251490
H10   H     H_    0.325260 0.910869 0.951921 0.244795
H11   H     H_    0.325796 0.899870 0.012947 0.240783
C106  C     C_3   0.703506 0.910709 0.016325 -0.879540
H12   H     H_    0.742780 0.886271 0.020522 0.251495
H13   H     H_    0.674708 0.910794 0.047932 0.244778
H14   H     H_    0.674172 0.899898 0.986888 0.240805
C107  C     C_3   0.707085 0.061283 0.070059 -0.855875
H15   H     H_    0.747534 0.077376 0.087557 0.244760
H16   H     H_    0.677539 0.088391 0.054524 0.238657
H17   H     H_    0.679206 0.041821 0.095515 0.252678
C108  C     C_3   0.292937 0.061400 0.930042 -0.855843
H18   H     H_    0.252495 0.077525 0.912568 0.244799
H19   H     H_    0.322489 0.088479 0.945622 0.238645
H20   H     H_    0.320813 0.041979 0.904556 0.252666
C109  C     C_3   0.793115 0.562743 0.568621 -0.856669
H21   H     H_    0.752731 0.579250 0.585785 0.244985
H22   H     H_    0.821025 0.543827 0.594480 0.252661
H23   H     H_    0.822670 0.589476 0.552469 0.238434
C110  C     C_3   0.206637 0.565838 0.434583 -0.858078
H24   H     H_    0.246927 0.583219 0.418175 0.245657
H25   H     H_    0.178681 0.548160 0.407888 0.252476
H26   H     H_    0.177068 0.591709 0.452064 0.237962
C111  C     C_3   0.203966 0.411801 0.477334 -0.878236
H27   H     H_    0.243369 0.387825 0.471476 0.251470
H28   H     H_    0.174640 0.398853 0.505885 0.239512
H29   H     H_    0.175225 0.414052 0.445765 0.246108
C112  C     C_3   0.796340 0.411003 0.518288 -0.879064
H30   H     H_    0.757022 0.386698 0.523008 0.251538
H31   H     H_    0.825647 0.399518 0.489109 0.240363
H32   H     H_    0.825143 0.411761 0.549898 0.245249
C113  C     C_3   0.204872 0.969617 0.913218 -0.887338
H33   H     H_    0.244602 0.962049 0.890029 0.249492
H34   H     H_    0.176739 0.938076 0.918180 0.246326
H35   H     H_    0.175112 0.996568 0.897625 0.233357
C114  C     C_3   0.795117 0.969464 0.086732 -0.887217
H36   H     H_    0.755383 0.961860 0.109909 0.249490
H37   H     H_    0.823237 0.937928 0.081719 0.246363
H38   H     H_    0.824886 0.996385 0.102369 0.233325
C115  C     C_3   0.704893 0.471400 0.587355 -0.887895
H39   H     H_    0.744631 0.464264 0.610697 0.249757
H40   H     H_    0.675205 0.498698 0.602387 0.233528
H41   H     H_    0.676689 0.439797 0.583042 0.246029
C116  C     C_3   0.295259 0.475702 0.411362 -0.889571
H42   H     H_    0.255564 0.469619 0.387684 0.250159
H43   H     H_    0.324829 0.503780 0.397696 0.234230
H44   H     H_    0.323611 0.444000 0.414133 0.245147

loop_
_geom_bond_atom_site_label_1
_geom_bond_atom_site_label_2
_geom_bond_distance
_ccdc_geom_bond_type
C11   C38   1.538295 S    
C19   C23   1.531500 S    
O27   C70   1.220062 A    
C21   C25   1.531204 S    
C30   C110  1.521089 S    
O43   C77   1.302832 A    
O33   Zn9   1.881494 S    
C61   C75   1.479037 S    
C59   C63   1.231721 T    
C87   C89   1.454535 S    
C13   H5    1.110327 S    
C111  H27   1.109560 S    
Zn12  O48   1.881577 S    
O24   Zn6   2.021861 S    
O3    C3    1.248024 A    
C52   C56   1.231671 T    
C15   H7    1.110258 S    
C71   C93   1.478634 S    
O19   C66   1.248096 A    
C96   C98   1.454118 S    
C99   C101  1.454203 S    
C43   C47   1.231624 T    
C112  H30   1.109557 S    
C115  H41   1.109713 S    
O7    C3    1.248127 A    
C109  H21   1.109618 S    
C10   C26   1.546166 S    
O43   Zn12  1.881650 S    
C13   C19   1.542417 S    
C11   H3    1.110330 S    
O28   Zn8   2.021861 S    
C32   C35   1.536199 S    
C14   C20   1.542496 S    
C36   C40   1.528811 S    
O27   Zn7   2.021860 S    
C95   C97   1.454118 S    
O37   C75   1.302790 A    
C116  H44   1.109724 S    
C81   C83   1.231843 T    
C66   C82   1.479093 S    
C3    C43   1.478771 S    
C32   C112  1.521011 S    
C107  H16   1.109865 S    
O42   C78   1.302695 A    
C27   C34   1.536772 S    
C113  H35   1.109924 S    
C62   C76   1.479037 S    
C10   C18   1.542747 S    
O9    Zn1   2.022393 S    
C15   C31   1.546082 S    
C80   C92   1.479385 S    
C7    C39   1.425886 S    
C110  H25   1.109655 S    
C50   C54   1.231674 T    
C6    C38   1.426007 S    
C113  H34   1.109712 S    
O33   C73   1.302772 A    
O39   C75   1.302740 A    
C25   C33   1.536293 S    
C90   C92   1.231939 T    
C60   C64   1.231721 T    
C109  H22   1.109652 S    
O20   C66   1.248101 A    
C42   C46   1.231624 T    
C13   C29   1.543187 S    
C41   C45   1.231624 T    
C14   H6    1.110321 S    
C20   C24   1.531780 S    
C49   C53   1.231674 T    
O4    C4    1.248023 A    
C94   C96   1.231589 T    
O41   Zn11  1.881388 S    
C44   C48   1.231621 T    
C5    C37   1.425996 S    
C105  H11   1.109910 S    
O23   C68   1.218446 A    
O11   C7    1.219248 A    
C4    C44   1.478771 S    
C64   C78   1.479040 S    
O12   C8    1.219105 A    
C63   C77   1.479037 S    
C23   C69   1.428809 S    
C83   C85   1.454486 S    
O1    Zn1   1.875596 S    
C111  H28   1.109901 S    
O36   Zn12  1.881449 S    
C108  H18   1.109630 S    
O37   Zn9   1.881388 S    
O46   C79   1.302568 A    
O40   Zn9   1.881647 S    
C93   C95   1.231589 T    
C29   C35   1.536803 S    
O48   C80   1.302565 A    
C106  H13   1.109790 S    
O42   Zn12  1.881385 S    
C35   C39   1.528822 S    
C16   C39   1.536810 S    
O22   C68   1.219863 A    
C34   C38   1.528845 S    
C12   C37   1.538286 S    
O9    C5    1.219306 A    
O13   Zn3   2.022644 S    
O16   C8    1.217745 A    
O24   C67   1.218431 A    
C74   C104  1.479046 S    
C21   C67   1.428819 S    
C58   C62   1.231720 T    
O31   C72   1.248107 A    
C14   C40   1.538012 S    
C20   Cl4   1.781529 S    
C57   C61   1.231720 T    
C107  H17   1.109650 S    
C33   C113  1.521810 S    
O16   Zn4   2.022604 S    
C30   C36   1.536895 S    
C105  H10   1.109791 S    
C115  H39   1.109564 S    
C106  H12   1.109558 S    
O13   C5    1.217723 A    
O7    Zn4   1.874994 S    
O35   C74   1.302772 A    
C29   C109  1.521136 S    
C56   C60   1.454206 S    
C108  H20   1.109648 S    
O15   C7    1.217725 A    
O5    C1    1.248129 A    
C116  H42   1.109565 S    
O41   C77   1.302697 A    
C24   C31   1.531206 S    
C33   C37   1.528847 S    
C17   C21   1.531407 S    
C31   C111  1.521009 S    
O6    Zn3   1.875023 S    
Zn8   O32   1.876346 S    
C24   C70   1.428813 S    
O8    C4    1.248125 A    
C109  H23   1.109860 S    
O21   Zn5   2.022106 S    
O35   Zn11  1.881494 S    
C113  H33   1.109546 S    
C31   C36   1.536074 S    
C26   C106  1.521006 S    
O1    C1    1.248021 A    
Zn9   O45   1.881533 S    
C22   C26   1.531205 S    
C12   C17   1.542343 S    
C85   C88   1.231896 T    
O15   Zn4   2.022644 S    
C86   C87   1.231896 T    
C10   C38   1.536831 S    
C24   C30   1.531467 S    
O17   Zn5   1.875824 S    
C9    C37   1.536826 S    
C2    C42   1.478775 S    
C19   Cl3   1.781457 S    
O38   C76   1.302790 A    
C84   C86   1.454486 S    
O22   Zn6   2.022104 S    
C97   C100  1.231685 T    
O29   C71   1.248105 A    
C110  H26   1.109869 S    
C98   C99   1.231683 T    
O8    Zn4   1.875023 S    
C111  H29   1.109780 S    
O26   Zn8   2.022104 S    
C23   C32   1.531202 S    
O23   Zn5   2.021860 S    
O2    C2    1.248016 A    
O17   C65   1.248105 A    
O45   C79   1.302557 A    
Zn6   O30   1.876346 S    
O47   C80   1.302558 A    
O21   C67   1.219865 A    
C13   C39   1.538209 S    
O36   C74   1.302765 A    
C79   C91   1.479387 S    
C101  C103  1.231735 T    
Zn7   O31   1.876320 S    
C114  H38   1.109923 S    
C28   C108  1.521152 S    
C65   C81   1.479093 S    
C106  H14   1.109910 S    
C9    H1    1.110239 S    
O14   C6    1.217719 A    
C22   C68   1.428819 S    
C16   C19   1.542660 S    
O40   C76   1.302740 A    
O14   Zn3   2.022604 S    
C48   C52   1.454153 S    
C1    C41   1.478775 S    
O11   Zn2   2.022393 S    
O12   Zn2   2.022437 S    
C25   C105  1.521006 S    
C55   C59   1.454203 S    
O44   C78   1.302834 A    
O4    Zn2   1.875573 S    
O30   C71   1.248112 A    
C18   C22   1.531393 S    
C72   C94   1.478637 S    
C115  H40   1.109893 S    
O3    Zn2   1.875596 S    
C26   C34   1.536302 S    
C22   C27   1.531611 S    
O18   C65   1.248105 A    
C11   C18   1.542333 S    
O25   C69   1.218247 A    
O10   C6    1.219317 A    
O34   C73   1.302761 A    
C88   C90   1.454532 S    
C15   C20   1.542444 S    
O38   Zn10  1.881385 S    
C114  H37   1.109711 S    
O34   Zn10  1.881449 S    
C116  H43   1.109877 S    
C21   C28   1.531608 S    
C54   C58   1.454202 S    
O44   Zn11  1.881647 S    
O26   C70   1.217813 A    
O5    Zn3   1.874994 S    
C35   C115  1.521806 S    
C107  H15   1.109628 S    
O25   Zn7   2.022106 S    
C9    C25   1.546159 S    
C15   C40   1.536747 S    
O19   Zn7   1.875824 S    
C114  H36   1.109546 S    
C100  C102  1.454203 S    
Zn11  O47   1.881533 S    
C34   C114  1.521812 S    
C36   C116  1.521795 S    
C16   H8    1.110242 S    
O2    Zn1   1.875573 S    
C82   C84   1.231843 T    
C27   C107  1.521155 S    
O10   Zn1   2.022437 S    
C110  H24   1.109609 S    
C73   C103  1.479043 S    
O32   C72   1.248119 A    
O20   Zn8   1.875797 S    
C18   Cl2   1.781437 S    
O6    C2    1.248133 A    
C8    C40   1.425645 S    
C17   Cl1   1.781438 S    
C51   C55   1.231671 T    
O39   Zn10  1.881650 S    
C23   C29   1.531573 S    
C12   H4    1.110328 S    
C45   C49   1.454150 S    
C89   C91   1.231942 T    
C105  H9    1.109558 S    
C46   C50   1.454150 S    
C9    C17   1.542734 S    
C14   C30   1.543363 S    
C16   C32   1.546148 S    
C28   C33   1.536778 S    
C10   H2    1.110234 S    
Zn5   O29   1.876320 S    
C112  H32   1.109792 S    
C102  C104  1.231738 T    
C11   C27   1.543124 S    
Zn10  O46   1.881577 S    
C112  H31   1.109896 S    
C47   C51   1.454153 S    
C12   C28   1.543134 S    
O18   Zn6   1.875797 S    
C53   C57   1.454202 S    
C108  H19   1.109864 S    
O28   C69   1.219892 A    
