data_mof_unit_67057.cif
_audit_creation_date              2013-03-05T15:58:16-0500
_audit_creation_method            fapswitch 2.2
_symmetry_space_group_name_H-M    P1
_symmetry_Int_Tables_number       1
_space_group_crystal_system       triclinic
_cell_length_a                    8.775128
_cell_length_b                    13.508745
_cell_length_c                    14.972075
_cell_angle_alpha                 94.054833
_cell_angle_beta                  91.717823
_cell_angle_gamma                 97.550186
_cell_volume                      1753.62850112

loop_
_atom_site_label
_atom_site_type_symbol
_atom_site_description
_atom_site_fract_x
_atom_site_fract_y
_atom_site_fract_z
_atom_type_partial_charge
P1    P     P_3+3 0.054400 0.427280 0.286870 0.459234
O1    O     O_2   0.887370 0.460630 0.272300 -0.270245
O2    O     O_3   0.129410 0.451380 0.388510 -0.474156
O3    O     O_3   0.670210 0.653170 0.329170 -0.388456
O4    O     O_2   0.750182 0.567910 0.179238 -0.335353
O5    O     O_3   0.977196 0.300015 0.265705 -0.594519
O6    O     O_3   0.678102 0.743878 0.167087 -0.543020
H1    H     H_    0.894159 0.758545 0.230669 0.130566
C1    C     C_3   0.849633 0.894912 0.172991 -0.273826
H2    H     H_    0.959602 0.934570 0.200463 0.159579
H3    H     H_    0.865003 0.874556 0.101415 0.149916
P2    P     P_3+3 0.668300 0.742890 0.573060 0.529713
P3    P     P_3+3 0.146178 0.832652 0.377737 0.562396
O7    O     O_2   0.845380 0.761330 0.544970 -0.283689
O8    O     O_3   0.088930 0.704860 0.376040 -0.395232
O9    O     O_2   0.006795 0.879564 0.415061 -0.309077
O10   O     O_3   0.694876 0.757593 0.689041 -0.525464
O11   O     O_3   0.143166 0.856389 0.263020 -0.605427
C2    C     C_3   0.252882 0.805639 0.218552 0.552648
H4    H     H_    0.253073 0.730492 0.243066 -0.075086
C3    C     C_3   0.222574 0.784495 0.115782 0.582676
C4    C     C_3   0.208942 0.763667 0.678571 0.626357
H5    H     H_    0.244508 0.721564 0.619799 0.038274
C5    C     C_3   0.336385 0.846909 0.713874 -0.001590
H6    H     H_    0.446630 0.829714 0.689012 0.061722
H7    H     H_    0.326714 0.919881 0.685600 0.154366
Ba1   Ba    Ba6+2 0.855630 0.555280 0.454520 1.666293
C6    C     C_3   0.032438 0.229626 0.318672 1.046085
H8    H     H_    0.154363 0.250574 0.339936 0.091776
C7    C     C_3   0.015987 0.129376 0.263128 -0.737896
H9    H     H_    0.908197 0.119937 0.224201 0.264738
H10   H     H_    0.008862 0.066062 0.306058 0.281241
H11   H     H_    0.104542 0.120637 0.214091 0.241676
C8    C     C_3   0.603751 0.680792 0.727679 0.356640
H12   H     H_    0.635854 0.606747 0.706239 0.105320
H13   H     H_    0.481752 0.680369 0.708602 0.060970
C9    C     C_3   0.625631 0.696951 0.828202 0.183272
H14   H     H_    0.735333 0.668467 0.846972 0.036383
H15   H     H_    0.526766 0.652681 0.856587 0.121534
P4    P     P_3+3 0.135310 0.572810 0.713130 0.490093
O12   O     O_2   0.302330 0.539400 0.727760 -0.445666
O13   O     O_3   0.060300 0.548700 0.611500 -0.388041
O14   O     O_3   0.519500 0.346920 0.670840 -0.375832
O15   O     O_3   0.171221 0.700830 0.747264 -0.567341
P5    P     P_3+3 0.019429 0.165133 0.631116 0.504564
O16   O     O_3   0.614310 0.373510 0.452640 -0.394567
O17   O     O_3   0.100780 0.295230 0.623970 -0.446522
O18   O     O_2   0.143328 0.111851 0.584915 -0.217864
O19   O     O_3   0.055376 0.126789 0.738891 -0.514879
Ba2   Ba    Ba6+2 0.334200 0.444810 0.545490 1.642308
P6    P     P_3+3 0.626109 0.630159 0.213755 0.528283
C10   C     C_3   0.797972 0.801027 0.219922 0.499865
H16   H     H_    0.763103 0.822878 0.288170 0.140812
O20   O     O_3   0.575400 0.626570 0.547370 -0.411323
C11   C     C_3   0.481980 0.267083 0.246868 1.051082
C12   C     C_3   0.587136 0.264091 0.161686 0.551452
H17   H     H_    0.614066 0.342349 0.141876 -0.057839
P7    P     P_3+3 0.523140 0.240118 0.430202 0.581910
O21   O     O_2   0.344320 0.238700 0.455090 -0.350958
O22   O     O_3   0.534473 0.205116 0.312156 -0.509326
H18   H     H_    0.292519 0.725038 0.098138 -0.076528
C13   C     C_3   0.998041 0.186141 0.808116 0.855582
H19   H     H_    0.875218 0.171786 0.802983 0.017810
C14   C     C_3   0.050410 0.157021 0.901305 0.171703
H20   H     H_    0.999387 0.204361 0.953099 0.000300
H21   H     H_    0.177916 0.172469 0.909345 0.117722
P8    P     P_3+3 0.568637 0.375615 0.787219 0.412884
C15   C     C_3   0.562808 0.185438 0.802300 0.638460
H22   H     H_    0.663856 0.207130 0.762090 -0.077775
O23   O     O_2   0.464789 0.451348 0.823073 -0.457295
O24   O     O_3   0.503561 0.269316 0.842033 -0.564363
C16   C     C_3   0.606813 0.120935 0.878619 0.037920
H23   H     H_    0.502963 0.082590 0.908398 0.183705
H24   H     H_    0.666474 0.174631 0.930971 0.144284
C17   C     C_R   0.988382 0.450477 0.052554 -0.124977
C18   C     C_R   0.170485 0.489546 0.190664 0.225422
C19   C     C_R   0.318499 0.533658 0.219516 -0.522241
C20   C     C_R   0.431829 0.571450 0.163985 0.130531
C21   C     C_R   0.396633 0.569132 0.071214 0.415907
C22   C     C_R   0.246606 0.531918 0.035353 -0.043932
C23   C     C_R   0.133453 0.487963 0.093726 -0.019541
H25   H     H_    0.351043 0.534104 0.287351 0.190988
C24   C     C_R   0.063464 0.504614 0.901345 -0.058701
C25   C     C_R   0.955047 0.454608 0.958254 0.133569
C26   C     C_R   0.018985 0.512491 0.806481 0.133049
C27   C     C_R   0.867860 0.476875 0.777990 0.297382
C28   C     C_R   0.766906 0.422996 0.831681 0.148657
C29   C     C_R   0.811199 0.410445 0.920195 -0.459173
C30   C     C_R   0.208808 0.542254 0.942237 -0.055478
H26   H     H_    0.726317 0.372133 0.960415 0.193335
H27   H     H_    0.898433 0.422614 0.095227 0.160920
H28   H     H_    0.293131 0.580496 0.901333 0.185068
C31   C     C_R   0.715202 0.161116 0.551149 -0.348142
C32   C     C_R   0.425707 0.815820 0.479096 0.221651
C33   C     C_R   0.395502 0.983999 0.438245 0.253136
C34   C     C_R   0.336542 0.881970 0.439433 0.110023
C35   C     C_R   0.573356 0.847809 0.519158 0.063000
C36   C     C_R   0.633242 0.954530 0.520575 -0.119344
C37   C     C_R   0.541454 0.023730 0.479823 -0.104285
C38   C     C_R   0.595138 0.130946 0.490072 0.362439
C39   C     C_R   0.825231 0.101481 0.575607 0.183408
C40   C     C_R   0.780287 0.995888 0.561676 -0.106073
H29   H     H_    0.854431 0.947363 0.588803 0.220215
H30   H     H_    0.722615 0.235685 0.575700 0.065767
O25   O     O_3   0.346548 0.857832 0.808572 -0.593105
C41   C     C_3   0.220561 0.900464 0.844099 0.119184
H31   H     H_    0.153176 0.937486 0.795854 0.208451
H32   H     H_    0.264974 0.959557 0.896229 0.131143
H33   H     H_    0.142586 0.842328 0.874929 0.171271
O26   O     O_3   0.936863 0.212864 0.390850 -0.657352
C42   C     C_3   0.960178 0.297681 0.449711 -0.003722
H34   H     H_    0.083080 0.318659 0.469320 0.191785
H35   H     H_    0.912764 0.280795 0.510414 0.047711
H36   H     H_    0.894951 0.356344 0.427028 0.176321
O27   O     O_3   0.622467 0.798563 0.856282 -0.576448
C43   C     C_3   0.733050 0.828963 0.926048 -0.054926
H37   H     H_    0.717622 0.904755 0.953868 0.209891
H38   H     H_    0.850422 0.833019 0.899620 0.184811
H39   H     H_    0.718868 0.778754 0.981618 0.160957
N1    N     N_R   0.736224 0.962872 0.182042 0.280236
O28   O     O_R   0.707692 0.002044 0.260825 -0.297815
O29   O     O_R   0.673462 0.991460 0.110572 -0.391091
O30   O     O_3   0.328150 0.228354 0.220009 -0.638682
C44   C     C_3   0.266147 0.277875 0.149040 -0.367185
H40   H     H_    0.231978 0.223554 0.090787 0.212677
H41   H     H_    0.340569 0.344929 0.128891 0.117369
H42   H     H_    0.158760 0.301389 0.165764 0.165515
N2    N     N_R   0.483192 0.368782 0.286277 0.125777
O31   O     O_R   0.607600 0.431741 0.289535 -0.394167
O32   O     O_R   0.377064 0.385818 0.341332 -0.434744
N3    N     N_R   0.507189 0.203354 0.084632 0.189510
O33   O     O_R   0.473356 0.246871 0.013324 -0.520827
O34   O     O_R   0.456968 0.109203 0.090045 -0.316418
O35   O     O_3   0.727464 0.228201 0.180291 -0.563760
C45   C     C_3   0.810085 0.218792 0.100380 -0.038322
H43   H     H_    0.791910 0.274452 0.053130 0.050970
H44   H     H_    0.775490 0.145239 0.064523 0.194485
H45   H     H_    0.934455 0.226081 0.114641 0.104795
O36   O     O_3   0.032863 0.289399 0.799947 -0.772894
C46   C     C_3   0.191636 0.318109 0.806068 -0.020358
H46   H     H_    0.256248 0.263445 0.771047 0.236012
H47   H     H_    0.231971 0.336295 0.877067 0.134360
H48   H     H_    0.213966 0.384184 0.769156 0.229488
O37   O     O_3   0.003425 0.054607 0.910780 -0.581946
C47   C     C_3   0.048785 0.030941 0.997110 -0.191692
H49   H     H_    0.978950 0.062830 0.049127 0.134014
H50   H     H_    0.172939 0.055753 0.013391 0.191700
H51   H     H_    0.029717 0.948770 0.999309 0.197286
N4    N     N_R   0.443149 0.128341 0.743768 0.202222
O38   O     O_R   0.448658 0.129508 0.657467 -0.424962
O39   O     O_R   0.319879 0.086814 0.778157 -0.458729
O40   O     O_3   0.711302 0.051392 0.860781 -0.627457
C48   C     C_3   0.686310 0.999767 0.776239 0.020316
H52   H     H_    0.711264 0.050312 0.723004 0.040252
H53   H     H_    0.568357 0.963904 0.767979 0.185736
H54   H     H_    0.765604 0.942677 0.769555 0.229738
O41   O     O_3   0.500764 0.619117 0.017446 -0.666466
C49   C     C_3   0.624893 0.564402 0.003952 -0.074039
H55   H     H_    0.618395 0.493298 0.038102 0.121712
H56   H     H_    0.734255 0.612934 0.023255 0.220011
H57   H     H_    0.630120 0.544744 0.932737 0.133629
O42   O     O_3   0.817611 0.492971 0.693532 -0.650495
C50   C     C_3   0.819892 0.404395 0.639701 0.036596
H58   H     H_    0.810525 0.335675 0.677141 0.038727
H59   H     H_    0.923720 0.404611 0.603286 0.139910
H60   H     H_    0.728662 0.401440 0.588822 0.177499
N5    N     N_R   0.299714 0.046748 0.397505 0.245653
O43   O     O_R   0.168309 0.057153 0.431020 -0.354219
O44   O     O_R   0.315719 0.063523 0.314316 -0.299409
N6    N     N_R   0.402129 0.865060 0.234245 0.214547
O45   O     O_R   0.425342 0.953305 0.204479 -0.198679
O46   O     O_R   0.503217 0.837776 0.288584 -0.502823
O47   O     O_3   0.359247 0.719815 0.489973 -0.675522
C51   C     C_3   0.370261 0.657116 0.412840 0.117919
H61   H     H_    0.459440 0.608256 0.416656 0.175331
H62   H     H_    0.385362 0.695404 0.351317 0.055468
H63   H     H_    0.265608 0.604347 0.407618 0.175731
N7    N     N_R   0.066152 0.740455 0.090118 0.192248
O48   O     O_R   0.013097 0.751251 0.009973 -0.492758
O49   O     O_R   0.008776 0.662260 0.129083 -0.460193
O50   O     O_3   0.265259 0.870135 0.067888 -0.643734
C52   C     C_3   0.399538 0.858015 0.020364 0.034012
H64   H     H_    0.373345 0.798741 0.964804 0.174445
H65   H     H_    0.492387 0.836802 0.064200 0.173602
H66   H     H_    0.445012 0.929598 0.993331 0.193622
N8    N     N_R   0.078979 0.813194 0.654457 0.214984
O51   O     O_R   0.095794 0.876506 0.592789 -0.425640
O52   O     O_R   0.972206 0.820833 0.711667 -0.406587

loop_
_geom_bond_atom_site_label_1
_geom_bond_atom_site_label_2
_geom_bond_distance
_ccdc_geom_bond_type
C45   H45   1.095979 S    
C11   C12   1.597712 S    
O41   C49   1.406142 S    
O5    C6    1.404541 S    
C8    C9    1.508260 S    
C50   H58   1.113138 S    
C46   H48   1.082053 S    
C28   C29   1.397957 A    
N2    O31   1.290140 A    
O3    Ba1   2.941356 S    
C35   C36   1.466610 A    
Ba1   O20   3.089479 S    
O30   C44   1.426213 S    
N5    O44   1.290132 A    
O47   C51   1.396510 S    
C12   H17   1.115489 S    
C3    O50   1.418593 S    
C12   O35   1.408702 S    
C39   C40   1.427903 A    
C41   H32   1.100092 S    
P3    O11   1.769434 S    
Ba2   O21   3.021800 S    
C6    H8    1.101557 S    
C50   H59   1.075487 S    
C5    H7    1.112192 S    
O6    C10   1.406605 S    
P1    O1    1.602222 D    
N4    O39   1.290216 A    
C26   C27   1.393370 A    
C7    H9    1.084135 S    
C33   C37   1.428351 A    
C17   C25   1.439700 A    
P8    O24   1.743820 S    
C41   H31   1.106668 S    
P7    O22   1.806057 S    
O27   C43   1.405414 S    
O50   C52   1.416338 S    
O11   C2    1.409797 S    
C43   H37   1.104351 S    
C8    H12   1.103164 S    
C22   C30   1.443993 A    
C51   H61   1.090736 S    
C13   C14   1.548949 S    
C15   N4    1.449780 S    
C49   H57   1.084222 S    
C52   H64   1.109918 S    
C4    O15   1.399254 S    
C2    H4    1.103776 S    
C15   H22   1.105996 S    
C16   O40   1.414255 S    
P2    O10   1.738947 S    
C2    N6    1.446852 S    
O1    Ba1   2.966709 S    
C27   O42   1.367969 S    
C13   O36   1.402991 S    
C48   H53   1.083236 S    
C1    H2    1.093883 S    
H1    C10   1.095382 S    
C3    H18   1.095857 S    
C7    H11   1.096745 S    
Ba1   Ba2   4.827979 S    
C17   H27   1.076593 S    
P4    O13   1.633452 S    
C11   O22   1.434731 S    
O16   P7    1.876003 S    
C49   H56   1.107043 S    
C1    C10   1.517164 S    
O3    P6    1.756337 S    
C31   H30   1.040692 S    
C47   H50   1.111432 S    
O2    Ba2   2.929073 S    
N1    O29   1.294791 A    
C47   H49   1.103711 S    
O17   Ba2   3.008578 S    
C52   H65   1.110224 S    
O2    Ba1   3.090439 S    
P5    O17   1.819659 S    
C46   H46   1.102164 S    
C24   C30   1.413787 A    
C11   O30   1.417644 S    
P2    Ba1   3.592880 S    
P1    O5    1.766064 S    
N7    O48   1.298825 A    
C45   H43   1.091425 S    
C50   H60   1.083277 S    
P7    C38   1.943064 S    
C18   C19   1.398303 A    
C16   H24   1.099911 S    
C31   C39   1.392922 A    
N5    O43   1.291702 A    
C20   C21   1.411106 A    
C22   C23   1.439719 A    
P3    C34   1.901468 S    
C32   C35   1.412381 A    
C6    O26   1.400542 S    
P7    O21   1.621629 D    
C19   C20   1.384586 A    
O26   C42   1.384222 S    
N2    O32   1.294295 A    
P1    O2    1.633577 S    
C52   H66   1.105331 S    
C14   H21   1.112186 S    
P4    C26   1.920248 S    
C4    N8    1.445187 S    
C9    H14   1.118095 S    
O8    Ba1   3.007941 S    
C24   C25   1.431269 A    
C51   H63   1.083233 S    
P5    O19   1.761297 S    
C15   C16   1.554615 S    
C13   H19   1.069175 S    
C42   H35   1.038366 S    
Ba2   O20   3.021643 S    
C10   H16   1.106661 S    
C5    H6    1.093990 S    
C30   H28   1.077452 S    
C32   C34   1.412195 A    
C1    H3    1.104073 S    
C31   C38   1.374423 A    
P2    C35   1.945758 S    
P5    C39   1.939854 S    
O13   Ba2   3.091259 S    
C44   H42   1.064493 S    
Ba1   O16   3.022365 S    
C3    N7    1.451594 S    
C24   C26   1.476489 A    
P2    O7    1.614252 D    
P3    O8    1.731562 S    
C49   H55   1.115398 S    
O7    Ba1   3.021552 S    
C4    C5    1.531186 S    
O10   C8    1.394652 S    
N8    O52   1.297397 A    
N3    O33   1.299682 A    
O12   Ba2   2.967271 S    
C47   H51   1.103598 S    
N1    O28   1.303179 A    
O40   C48   1.398193 S    
C44   H41   1.110408 S    
O42   C50   1.397354 S    
P5    O18   1.535888 D    
C45   H44   1.096876 S    
P4    O12   1.602587 D    
O19   C13   1.410650 S    
C42   H34   1.103887 S    
C2    C3    1.553455 S    
C27   C28   1.384456 A    
P1    C18   1.963183 S    
C17   C23   1.412931 A    
C25   C29   1.408855 A    
C29   H26   1.074683 S    
C16   H23   1.109296 S    
N3    O34   1.299167 A    
C33   N5    1.423636 S    
C18   C23   1.475816 A    
C21   O41   1.377610 S    
N7    O49   1.294074 A    
O36   C46   1.394738 S    
O14   Ba2   2.940731 S    
O35   C45   1.424064 S    
C9    O27   1.410963 S    
C14   O37   1.409086 S    
O25   C41   1.412833 S    
O16   Ba2   3.088635 S    
P8    C28   1.859434 S    
C43   H39   1.109756 S    
O37   C47   1.411502 S    
P8    O23   1.536837 D    
C14   H20   1.112072 S    
C6    C7    1.525964 S    
N8    O51   1.300928 A    
P6    C20   1.890938 S    
O6    P6    1.744407 S    
C9    H15   1.101179 S    
C36   C40   1.438790 A    
C37   C38   1.458813 A    
C7    H10   1.102128 S    
Ba1   O13   2.928471 S    
N6    O46   1.292154 A    
C19   H25   1.046131 S    
C15   O24   1.409286 S    
P4    Ba2   3.574560 S    
C48   H54   1.105996 S    
C43   H38   1.110433 S    
C42   H36   1.102969 S    
C8    H13   1.098884 S    
C40   H29   1.073241 S    
C51   H62   1.090983 S    
C12   N3    1.470587 S    
C32   O47   1.373094 S    
C21   C22   1.421164 A    
P4    O15   1.753117 S    
C11   N2    1.454931 S    
O14   P8    1.785431 S    
C36   C37   1.464222 A    
N6    O45   1.295341 A    
P3    O9    1.550631 D    
C33   C34   1.408643 A    
P1    Ba1   3.574059 S    
C1    N1    1.442969 S    
C4    H5    1.089733 S    
O4    P6    1.540283 D    
C5    O25   1.413972 S    
C46   H47   1.110525 S    
C48   H52   1.094332 S    
N4    O38   1.295579 A    
P2    O20   1.685441 S    
C44   H40   1.106816 S    
C41   H33   1.107700 S    
