data_mof_unit_9066.cif
_audit_creation_date              2012-12-10T19:47:26-0500
_audit_creation_method            fapswitch 2.2
_symmetry_space_group_name_H-M    P1
_symmetry_Int_Tables_number       1
_space_group_crystal_system       triclinic
_cell_length_a                    10.931589
_cell_length_b                    10.935999
_cell_length_c                    12.745553
_cell_angle_alpha                 90.759406
_cell_angle_beta                  90.664257
_cell_angle_gamma                 90.247608
_cell_volume                      1523.45192811

loop_
_atom_site_label
_atom_site_type_symbol
_atom_type_description
_atom_site_fract_x
_atom_site_fract_y
_atom_site_fract_z
_atom_type_partial_charge
C1    C     C_R   0.261997 0.498711 0.502480 0.797903
C2    C     C_R   0.738003 0.501289 0.497519 0.797903
C3    C     C_R   0.504420 0.871741 0.495042 -0.312283
C4    C     C_R   0.495580 0.128259 0.504958 -0.312282
C5    C     C_R   0.465473 0.937909 0.406644 -0.076253
C6    C     C_R   0.534527 0.062091 0.593356 -0.076253
C7    C     C_R   0.192997 0.354348 0.843751 0.604847
C8    C     C_R   0.807007 0.645656 0.156249 0.604850
C9    C     C_R   0.168431 0.373069 0.737173 -0.303484
C10   C     C_R   0.831571 0.626934 0.262828 -0.303488
C11   C     C_R   0.113586 0.482297 0.704729 -0.072410
C12   C     C_R   0.886414 0.517704 0.295271 -0.072410
C13   C     C_R   0.085319 0.572556 0.779787 -0.266944
C14   C     C_R   0.914679 0.427446 0.220212 -0.266943
C15   C     C_R   0.108262 0.552775 0.885888 0.605565
C16   C     C_R   0.891738 0.447228 0.114111 0.605557
C17   C     C_R   0.162592 0.444073 0.918171 0.557411
C18   C     C_R   0.837410 0.555932 0.081829 0.557418
C19   C     C_R   0.933577 0.494096 0.591481 -0.180441
C20   C     C_R   0.066423 0.505903 0.408519 -0.180441
C21   C     C_R   0.871645 0.501875 0.494922 -0.109467
C22   C     C_R   0.128355 0.498124 0.505077 -0.109467
C23   C     C_R   0.497747 0.262006 0.502355 0.875324
C24   C     C_R   0.502253 0.737994 0.497645 0.875324
C25   C     C_R   0.939533 0.507869 0.401807 0.106785
C26   C     C_R   0.060467 0.492130 0.598193 0.106786
C27   C     C_2   0.475229 0.458763 0.032794 0.402323
C28   C     C_2   0.524773 0.541237 0.967206 0.402317
C29   C     C_1   0.521572 0.527251 0.852198 0.318897
C30   C     C_1   0.478429 0.472749 0.147802 0.318897
C31   C     C_R   0.715128 0.216516 0.811530 0.309230
C32   C     C_R   0.284873 0.783483 0.188469 0.309231
C33   C     C_R   0.677121 0.178774 0.711182 -0.277522
C34   C     C_R   0.322880 0.821226 0.288817 -0.277521
C35   C     C_R   0.564675 0.118742 0.696359 -0.057335
C36   C     C_R   0.435326 0.881258 0.303641 -0.057335
C37   C     C_R   0.489000 0.097751 0.783146 0.316516
C38   C     C_R   0.511001 0.902250 0.216855 0.316515
C39   C     C_R   0.527801 0.134339 0.883625 0.674415
C40   C     C_R   0.472200 0.865661 0.116375 0.674413
C41   C     C_R   0.641171 0.192332 0.898447 0.244056
C42   C     C_R   0.358831 0.807667 0.101553 0.244056
C43   C     C_R   0.542214 0.935371 0.586463 0.639327
C44   C     C_R   0.457786 0.064628 0.413537 0.639327
Cu1   Cu    Cu3+1 0.492140 0.492110 0.395880 1.057181
Cu2   Cu    Cu3+1 0.507860 0.507890 0.604120 1.057181
H1    H     H_    0.038978 0.655429 0.756441 0.235598
H2    H     H_    0.961019 0.344572 0.243558 0.235599
H3    H     H_    0.882850 0.487933 0.663822 0.222576
H4    H     H_    0.117149 0.512066 0.336178 0.222577
H5    H     H_    0.736482 0.193395 0.644946 0.203559
H6    H     H_    0.263519 0.806604 0.355053 0.203558
H7    H     H_    0.186420 0.300541 0.680795 0.210006
H8    H     H_    0.813583 0.699461 0.319206 0.210006
N1    N     N_1   0.480320 0.480250 0.239400 -0.163640
N2    N     N_1   0.519680 0.519750 0.760600 -0.163641
O1    O     O_R   0.313000 0.493330 0.412070 -0.568499
O2    O     O_R   0.687000 0.506670 0.587930 -0.568499
O3    O     O_R   0.326280 0.506660 0.587930 -0.584485
O4    O     O_R   0.673720 0.493340 0.412070 -0.584485
O5    O     O_R   0.493370 0.312980 0.412070 -0.486794
O6    O     O_R   0.506630 0.687020 0.587930 -0.486793
O7    O     O_R   0.506650 0.326310 0.587930 -0.606741
O8    O     O_R   0.493350 0.673690 0.412070 -0.606742
Cl1   Cl    Cl    0.689840 0.229034 0.026910 -0.345859
Cl2   Cl    Cl    0.310163 0.770965 0.973089 -0.345862
F1    F     F_    0.071409 0.636769 0.957509 -0.510442
F2    F     F_    0.928592 0.363235 0.042489 -0.510445
F3    F     F_    0.578272 0.643478 0.007897 -0.591038
F4    F     F_    0.421730 0.356521 0.992103 -0.591033
Cl3   Cl    Cl    0.857697 0.289619 0.825598 -0.446641
Cl4   Cl    Cl    0.142305 0.710378 0.174401 -0.446641
Cl5   Cl    Cl    0.347658 0.020555 0.768237 -0.358733
Cl6   Cl    Cl    0.652342 0.979446 0.231764 -0.358733
F5    F     F_    0.456206 0.110973 0.967402 -0.460169
F6    F     F_    0.543796 0.889027 0.032599 -0.460170
F7    F     F_    0.588859 0.874666 0.670473 -0.583801
F8    F     F_    0.411141 0.125333 0.329527 -0.583801
F9    F     F_    0.181616 0.423988 0.021847 -0.527531
F10   F     F_    0.818389 0.576019 0.978153 -0.527528
F11   F     F_    0.239714 0.246357 0.875470 -0.491005
F12   F     F_    0.760294 0.753649 0.124532 -0.491004

loop_
_geom_bond_atom_site_label_1
_geom_bond_atom_site_label_2
_ccdc_geom_bond_type
Cu1   O4    S    
Cu2   O3    S    
C28   F3    S    
C39   C41   A    
C18   F10   S    
Cu1   Cu2   S    
C3    C43   A    
Cu2   O6    S    
C8    F12   S    
C28   C29   S    
C19   C21   A    
C1    O3    A    
C2    O4    A    
C20   C25   A    
C5    C36   S    
C17   F9    S    
C6    C35   S    
C7    C9    A    
Cu1   O5    S    
C19   C26   A    
C21   C25   A    
C7    C17   A    
C20   H4    S    
C31   C33   A    
C16   F2    S    
C39   F5    S    
C23   O7    A    
C1    C22   S    
C24   O8    A    
Cu2   O2    S    
C27   C30   S    
C3    C24   S    
Cu1   O1    S    
C4    C6    A    
C13   H1    S    
C4    C23   S    
C41   Cl1   S    
C4    C44   A    
C11   C26   S    
C8    C18   A    
C40   F6    S    
C32   C34   A    
C1    O1    A    
C19   H3    S    
C15   F1    S    
C2    C21   S    
C9    C11   A    
C27   F4    S    
C10   C12   A    
C8    C10   A    
C7    F11   S    
C5    C44   A    
C12   C14   A    
C6    C43   A    
C13   C15   A    
C14   C16   A    
C33   H5    S    
C38   Cl6   S    
C15   C17   A    
C37   Cl5   S    
C24   O6    A    
C31   C41   A    
C35   C37   A    
C20   C22   A    
C40   C42   A    
C3    C5    A    
C14   H2    S    
C2    O2    A    
C29   N2    T    
C43   F7    S    
C30   N1    T    
C12   C25   S    
Cu1   O8    S    
C34   H6    S    
Cu2   O7    S    
C44   F8    S    
C37   C39   A    
C38   C40   A    
C11   C13   A    
C36   C38   A    
C33   C35   A    
C34   C36   A    
C10   H8    S    
C23   O5    A    
C9    H7    S    
Cu1   N1    S    
C16   C18   A    
C22   C26   A    
Cu2   N2    S    
C27   C28   D    
C42   Cl2   S    
C32   C42   A    
C31   Cl3   S    
C32   Cl4   S    
