data_mof_unit_46060.cif
_audit_creation_date              2012-12-10T17:30:17-0500
_audit_creation_method            fapswitch 2.2
_symmetry_space_group_name_H-M    P1
_symmetry_Int_Tables_number       1
_space_group_crystal_system       triclinic
_cell_length_a                    12.052006
_cell_length_b                    12.963906
_cell_length_c                    15.000551
_cell_angle_alpha                 91.599033
_cell_angle_beta                  85.321598
_cell_angle_gamma                 91.979935
_cell_volume                      2333.75835819

loop_
_atom_site_label
_atom_site_type_symbol
_atom_type_description
_atom_site_fract_x
_atom_site_fract_y
_atom_site_fract_z
_atom_type_partial_charge
C1    C     C_R   0.520948 0.700218 0.499672 0.896179
C2    C     C_R   0.361822 0.142281 0.519591 -0.193442
C3    C     C_R   0.439136 0.869410 0.515575 -0.295263
C4    C     C_R   0.560866 0.130590 0.484455 -0.295262
C5    C     C_R   0.446487 0.976000 0.510291 0.090178
C6    C     C_R   0.553516 0.024001 0.489750 0.090178
C7    C     C_R   0.963522 0.427122 0.400207 -0.294774
C8    C     C_R   0.036478 0.572880 0.599792 -0.294765
C9    C     C_R   0.846053 0.425877 0.412460 0.307512
C10   C     C_R   0.153948 0.574122 0.587541 0.307483
C11   C     C_R   0.854480 0.529211 0.545076 -0.085894
C12   C     C_R   0.479052 0.299782 0.500332 0.896175
C13   C     C_R   0.145520 0.470792 0.454922 -0.085888
C14   C     C_R   0.972476 0.525402 0.536790 0.045556
C15   C     C_R   0.027525 0.474602 0.463208 0.045564
C16   C     C_R   0.499526 0.500489 0.673372 0.895473
C17   C     C_R   0.500474 0.499509 0.326628 0.895478
C18   C     C_R   0.400933 0.479193 0.191092 -0.256278
C19   C     C_R   0.599067 0.520795 0.808908 -0.256277
C20   C     C_R   0.500947 0.498690 0.230697 -0.068984
C21   C     C_R   0.499053 0.501298 0.769303 -0.068981
C22   C     C_R   0.600687 0.518279 0.178817 -0.266517
C23   C     C_R   0.699986 0.539502 0.941239 -0.218802
C24   C     C_R   0.399317 0.481697 0.821182 -0.266517
C25   C     C_R   0.601113 0.518818 0.086504 0.122712
C26   C     C_R   0.398893 0.481153 0.913494 0.122714
C27   C     C_R   0.500237 0.499553 0.046368 0.059976
C28   C     C_R   0.499768 0.500420 0.953631 0.059975
C29   C     C_R   0.399794 0.479561 0.098970 0.118970
C30   C     C_R   0.600209 0.520417 0.901030 0.118968
C31   C     C_R   0.700433 0.538708 0.033838 -0.218271
C32   C     C_R   0.299573 0.461261 0.966160 -0.218271
C33   C     C_3   0.765545 0.015647 0.453130 -0.431755
C34   C     C_R   0.300019 0.460471 0.058760 -0.218803
C35   C     C_3   0.865025 0.944712 0.443396 -0.888001
C36   C     C_3   0.234463 0.984354 0.546936 -0.431747
C37   C     C_3   0.134987 0.055293 0.556708 -0.888012
C38   C     C_3   0.216288 0.636695 0.655376 -0.368669
C39   C     C_3   0.170776 0.744615 0.673965 -0.971236
C40   C     C_3   0.783716 0.363288 0.344633 -0.368710
C41   C     C_3   0.829211 0.255357 0.326091 -0.971237
C42   C     C_R   0.466657 0.188911 0.500868 -0.100801
C43   C     C_R   0.533343 0.811089 0.499152 -0.100805
C44   C     C_R   0.650830 0.964635 0.475520 0.169733
C45   C     C_R   0.349174 0.035366 0.524528 0.169736
C46   C     C_R   0.638180 0.857719 0.480443 -0.193440
H1    H     H_    0.323992 0.463397 0.231853 0.153678
H2    H     H_    0.222603 0.445058 0.098876 0.143210
H3    H     H_    0.640177 0.169742 0.468109 0.173689
H4    H     H_    0.359824 0.830257 0.531914 0.173683
H5    H     H_    0.290734 0.190656 0.531647 0.180593
H6    H     H_    0.709268 0.809344 0.468384 0.180595
H7    H     H_    0.187532 0.428779 0.399370 0.131239
H8    H     H_    0.812468 0.571225 0.600628 0.131238
H9    H     H_    0.872214 0.903288 0.506406 0.259754
H10   H     H_    0.857257 0.888715 0.386668 0.261371
H11   H     H_    0.942707 0.991962 0.429002 0.258617
H12   H     H_    0.676007 0.536598 0.768147 0.153679
H13   H     H_    0.763181 0.054933 0.388681 0.215575
H14   H     H_    0.782436 0.074005 0.506443 0.212844
H15   H     H_    0.142789 0.111288 0.613433 0.261379
H16   H     H_    0.127765 0.096719 0.493704 0.259749
H17   H     H_    0.057309 0.008045 0.571128 0.258615
H18   H     H_    0.217551 0.926007 0.493620 0.212842
H19   H     H_    0.236849 0.945054 0.611377 0.215573
H20   H     H_    0.152347 0.779874 0.610446 0.268954
H21   H     H_    0.093941 0.741493 0.720029 0.264344
H22   H     H_    0.233353 0.794252 0.706750 0.258030
H23   H     H_    0.005381 0.388924 0.342465 0.152717
H24   H     H_    0.212290 0.594653 0.719099 0.193301
H25   H     H_    0.303491 0.649726 0.631821 0.267514
H26   H     H_    0.906060 0.258449 0.280044 0.264353
H27   H     H_    0.847611 0.220127 0.389628 0.268954
H28   H     H_    0.766638 0.205714 0.293309 0.258027
H29   H     H_    0.696507 0.350279 0.368174 0.267528
H30   H     H_    0.787741 0.405301 0.280895 0.193289
H31   H     H_    0.994618 0.611075 0.657535 0.152727
H32   H     H_    0.677536 0.534488 0.210191 0.153151
H33   H     H_    0.322469 0.465484 0.789808 0.153144
H34   H     H_    0.778152 0.553583 0.064234 0.144505
H35   H     H_    0.221856 0.446383 0.935764 0.144507
H36   H     H_    0.777401 0.554917 0.901123 0.143210
N1    N     N_R   0.207800 0.519350 0.516680 -0.125373
N2    N     N_R   0.792200 0.480650 0.483320 -0.125366
O1    O     O_R   0.421700 0.658830 0.504450 -0.638881
O2    O     O_R   0.578300 0.341170 0.495550 -0.638873
O3    O     O_R   0.609310 0.646410 0.493750 -0.627673
O4    O     O_R   0.390690 0.353590 0.506250 -0.627673
O5    O     O_R   0.406180 0.506230 0.637500 -0.655788
O6    O     O_R   0.593820 0.493770 0.362500 -0.655785
O7    O     O_R   0.593800 0.493820 0.626800 -0.623281
O8    O     O_R   0.406200 0.506180 0.373200 -0.623280
Zn1   Zn    Zn3+2 0.374730 0.508290 0.507150 0.930316
Zn2   Zn    Zn3+2 0.625270 0.491710 0.492850 0.930320

loop_
_geom_bond_atom_site_label_1
_geom_bond_atom_site_label_2
_ccdc_geom_bond_type
C25   C31   A    
C38   H24   S    
C1    O3    A    
C16   C21   S    
C23   H36   S    
C27   C29   A    
C39   H22   S    
C18   H1    S    
C37   H16   S    
C31   H34   S    
C26   C32   A    
C32   H35   S    
C3    C43   A    
C36   C37   S    
C19   C21   A    
C24   C26   A    
C5    C6    A    
C11   C14   A    
N1    Zn1   S    
O3    Zn2   S    
C46   H6    S    
C10   N1    A    
C17   C20   S    
C12   C42   S    
O2    Zn2   S    
C41   H28   S    
C38   H25   S    
O1    Zn1   S    
C1    C43   S    
C22   C25   A    
C7    C15   A    
C16   O5    A    
C33   H13   S    
C6    C44   A    
C17   O8    A    
C37   H17   S    
C3    H4    S    
C44   C46   A    
O6    Zn2   S    
C13   H7    S    
C19   H12   S    
C1    O1    A    
C12   O4    A    
C35   H9    S    
C23   C30   A    
C22   H32   S    
C4    C6    A    
C2    H5    S    
C36   H19   S    
C5    C45   A    
C29   C34   A    
C9    C40   S    
C40   H30   S    
C32   C34   A    
C24   H33   S    
C36   C45   S    
C18   C29   A    
N2    Zn2   S    
C11   H8    S    
C41   H26   S    
C40   C41   S    
C20   C22   A    
C33   H14   S    
C13   C15   A    
C8    H31   S    
C39   H20   S    
C34   H2    S    
C7    C9    A    
O4    Zn1   S    
C8    C14   A    
C35   H10   S    
C33   C44   S    
C39   H21   S    
C17   O6    A    
C3    C5    A    
C7    H23   S    
C37   H15   S    
C11   N2    A    
C25   C27   A    
C13   N1    A    
C26   C28   A    
C40   H29   S    
C12   O2    A    
C4    H3    S    
C10   C38   S    
C28   C30   A    
O7    Zn2   S    
C38   C39   S    
C4    C42   A    
C2    C42   A    
O8    Zn1   S    
C33   C35   S    
C18   C20   A    
O5    Zn1   S    
C43   C46   A    
C2    C45   A    
C9    N2    A    
C41   H27   S    
C16   O7    A    
C8    C10   A    
C35   H11   S    
C21   C24   A    
C27   C28   A    
C14   C15   A    
C36   H18   S    
C19   C30   A    
C23   C31   A    
