data_mof_unit_25539.cif
_audit_creation_date              2013-03-05T16:47:42-0500
_audit_creation_method            fapswitch 2.2
_symmetry_space_group_name_H-M    P1
_symmetry_Int_Tables_number       1
_space_group_crystal_system       triclinic
_cell_length_a                    10.924477
_cell_length_b                    12.99981
_cell_length_c                    11.804181
_cell_angle_alpha                 99.975564
_cell_angle_beta                  94.732904
_cell_angle_gamma                 93.28619
_cell_volume                      1641.024432

loop_
_atom_site_label
_atom_site_type_symbol
_atom_site_description
_atom_site_fract_x
_atom_site_fract_y
_atom_site_fract_z
_atom_type_partial_charge
O1    O     O_R   0.506570 0.354460 0.582000 -0.552062
O2    O     O_R   0.493430 0.645540 0.418000 -0.552062
O3    O     O_R   0.490940 0.341410 0.386200 -0.566823
O4    O     O_R   0.509060 0.658590 0.613800 -0.566820
C1    C     C_R   0.502661 0.299068 0.477335 0.833977
C2    C     C_R   0.497336 0.700931 0.522666 0.833985
O5    O     O_R   0.327460 0.506540 0.597900 -0.537660
O6    O     O_R   0.672540 0.493460 0.402100 -0.537662
O7    O     O_R   0.311830 0.493480 0.402100 -0.608304
O8    O     O_R   0.688170 0.506520 0.597900 -0.608304
C3    C     C_R   0.262295 0.500969 0.498854 0.828024
C4    C     C_R   0.737705 0.499030 0.501146 0.828025
Cu1   Cu    Cu3+1 0.509250 0.507730 0.615930 1.038447
Cu2   Cu    Cu3+1 0.490750 0.492270 0.384070 1.038446
C5    C     C_R   0.172209 0.567911 0.129266 -0.190202
C6    C     C_R   0.827786 0.432087 0.870732 -0.190205
H1    H     H_    0.209850 0.639219 0.105337 0.171797
H2    H     H_    0.790143 0.360780 0.894660 0.171791
C7    C     C_R   0.144999 0.570379 0.242581 -0.061871
C8    C     C_R   0.854996 0.429619 0.757418 -0.061877
H3    H     H_    0.161147 0.643240 0.303864 0.154602
H4    H     H_    0.838845 0.356760 0.696133 0.154598
C9    C     C_R   0.093401 0.480765 0.276202 0.019402
C10   C     C_R   0.906599 0.519233 0.723798 0.019414
C11   C     C_R   0.070989 0.386652 0.195574 0.289857
C12   C     C_R   0.929016 0.613344 0.804428 0.289840
C13   C     C_R   0.097961 0.383362 0.079621 -0.133004
C14   C     C_R   0.902043 0.616634 0.920380 -0.133002
C15   C     C_R   0.146493 0.476519 0.046204 -0.053695
C16   C     C_R   0.853505 0.523478 0.953795 -0.053690
C17   C     C_R   0.923086 0.486160 0.397965 -0.081117
C18   C     C_R   0.076914 0.513837 0.602035 -0.081115
H5    H     H_    0.864001 0.474805 0.317960 0.207150
H6    H     H_    0.135999 0.525193 0.682039 0.207147
C19   C     C_R   0.871796 0.497702 0.503540 -0.104703
C20   C     C_R   0.128204 0.502296 0.496459 -0.104707
C21   C     C_R   0.950238 0.510641 0.607341 0.039561
C22   C     C_R   0.049763 0.489357 0.392659 0.039545
C23   C     C_R   0.493508 0.815546 0.539432 -0.082369
C24   C     C_R   0.506484 0.184454 0.460568 -0.082378
C25   C     C_R   0.456490 0.009638 0.347618 -0.200935
C26   C     C_R   0.543498 0.990362 0.652383 -0.200950
C27   C     C_R   0.474495 0.117311 0.351805 0.003721
C28   C     C_R   0.525488 0.882689 0.648198 0.003707
C29   C     C_R   0.536556 0.140251 0.558033 -0.181589
C30   C     C_R   0.463439 0.859748 0.441967 -0.181591
C31   C     C_R   0.521275 0.032729 0.552655 0.150692
C32   C     C_R   0.478718 0.967270 0.447346 0.150686
H7    H     H_    0.428296 0.810221 0.361248 0.196328
H8    H     H_    0.571701 0.189778 0.638750 0.196327
H9    H     H_    0.429239 0.958333 0.265495 0.167263
H10   H     H_    0.570746 0.041667 0.734507 0.167263
N1    N     N_R   0.523180 0.519350 0.790130 -0.236243
N2    N     N_R   0.476820 0.480650 0.209870 -0.236247
C33   C     C_R   0.412787 0.379823 0.021389 -0.248515
C34   C     C_R   0.587212 0.620178 0.978611 -0.248522
C35   C     C_R   0.416086 0.394693 0.142280 0.045760
C36   C     C_R   0.583913 0.605308 0.857720 0.045756
C37   C     C_R   0.532278 0.557107 0.157621 0.483910
C38   C     C_R   0.467722 0.442893 0.842379 0.483912
C39   C     C_R   0.529533 0.545211 0.034501 -0.093633
C40   C     C_R   0.470467 0.454789 0.965499 -0.093639
H11   H     H_    0.631219 0.662955 0.817931 0.148621
H12   H     H_    0.368777 0.337047 0.182068 0.148627
H13   H     H_    0.362054 0.310211 0.973035 0.197673
H14   H     H_    0.637944 0.689791 0.026964 0.197671
C41   C     C_2   0.167976 0.484620 0.925612 0.347789
H15   H     H_    0.221644 0.552098 0.908171 0.110780
O9    O     O_2   0.123052 0.418987 0.844143 -0.541978
C42   C     C_2   0.832021 0.515375 0.074387 0.347787
H16   H     H_    0.778353 0.447898 0.091827 0.110774
O10   O     O_2   0.876944 0.581009 0.155856 -0.541975
N3    N     N_R   0.408607 0.348741 0.773725 0.121366
O11   O     O_R   0.305928 0.351289 0.710810 -0.302876
O12   O     O_R   0.445206 0.258492 0.789872 -0.414729
N4    N     N_R   0.591393 0.651259 0.226275 0.121368
O13   O     O_R   0.554794 0.741508 0.210129 -0.414727
O14   O     O_R   0.694071 0.648711 0.289191 -0.302870
N5    N     N_R   0.023797 0.294330 0.233176 0.140772
O15   O     O_R   0.091233 0.252783 0.306790 -0.347960
O16   O     O_R   0.907187 0.264572 0.211909 -0.286286
N6    N     N_R   0.976220 0.705665 0.766828 0.140763
O17   O     O_R   0.908811 0.747190 0.693175 -0.347952
O18   O     O_R   0.092825 0.735431 0.788128 -0.286266
C43   C     C_2   0.081789 0.282448 0.996429 0.466216
H17   H     H_    0.144885 0.265073 0.930726 0.127340
O19   O     O_2   0.997415 0.217573 0.999416 -0.461304
C44   C     C_2   0.918214 0.717547 0.003574 0.466225
H18   H     H_    0.855111 0.734923 0.069271 0.127333
O20   O     O_2   0.002594 0.782418 0.000597 -0.461305
C45   C     C_2   0.534590 0.847079 0.760533 0.411642
H19   H     H_    0.613777 0.873595 0.822652 0.074112
O21   O     O_2   0.449068 0.795145 0.788302 -0.488912
C46   C     C_2   0.465375 0.152923 0.239471 0.411644
H20   H     H_    0.386168 0.126424 0.177372 0.074123
O22   O     O_2   0.550900 0.204840 0.211683 -0.488924

loop_
_geom_bond_atom_site_label_1
_geom_bond_atom_site_label_2
_geom_bond_distance
_ccdc_geom_bond_type
C13   C15   1.424669 A    
C25   C27   1.394006 A    
N3    O11   1.298532 A    
C43   H17   1.083064 S    
C5    C7    1.389375 A    
C30   H7    1.080988 S    
O1    C1    1.313895 A    
C18   C20   1.396297 A    
C3    C20   1.463960 S    
C7    H3    1.083498 S    
N4    O14   1.298532 A    
C6    C16   1.401602 A    
C33   C40   1.415271 A    
C38   N3    1.432213 S    
C27   C46   1.476045 S    
C38   C40   1.432273 A    
O4    Cu1   1.965782 S    
C13   C43   1.488297 S    
C33   H13   1.078523 S    
C15   C41   1.482138 S    
C24   C27   1.426544 A    
C8    C10   1.397929 A    
C14   C44   1.488295 S    
C17   H5    1.081891 S    
C42   H16   1.085869 S    
C39   C40   1.398626 A    
O6    C4    1.306286 A    
C43   O19   1.220104 D    
C12   N6    1.433408 S    
Cu1   Cu2   2.699156 S    
N3    O12   1.300508 A    
O2    C2    1.313897 A    
C26   C28   1.394009 A    
C16   C42   1.482139 S    
N1    C38   1.392956 A    
C5    C15   1.401603 A    
Cu1   N1    2.027909 S    
N2    C37   1.392957 A    
C29   C31   1.387954 A    
C24   C29   1.396447 A    
C30   C32   1.387954 A    
C37   C39   1.432274 A    
C41   H15   1.085870 S    
N4    O13   1.300508 A    
O4    C2    1.291181 A    
C45   H19   1.085553 S    
N5    O16   1.300995 A    
C41   O9    1.217988 D    
C18   H6    1.081891 S    
C7    C9    1.397929 A    
O7    Cu2   1.984198 S    
C45   O21   1.221088 D    
O5    C3    1.306285 A    
C31   C32   1.406525 A    
C6    C8    1.389374 A    
C2    C23   1.472163 S    
C10   C21   1.480048 S    
C18   C21   1.389016 A    
C4    C19   1.463962 S    
C46   O22   1.221081 D    
O7    C3    1.294685 A    
O3    Cu2   1.965780 S    
O8    C4    1.294684 A    
C23   C30   1.396443 A    
Cu2   N2    2.027907 S    
C8    H4    1.083496 S    
N6    O18   1.300991 A    
C33   C35   1.403638 A    
C17   C19   1.396295 A    
O1    Cu1   1.961159 S    
C35   H12   1.080217 S    
C36   H11   1.080219 S    
C5    H1    1.083683 S    
O6    Cu2   1.978677 S    
C19   C21   1.415185 A    
C11   N5    1.433386 S    
C10   C12   1.409390 A    
C44   O20   1.220102 D    
O3    C1    1.291184 A    
O8    Cu1   1.984198 S    
N1    C36   1.358007 A    
C23   C28   1.426550 A    
C11   C13   1.417667 A    
C9    C22   1.480048 S    
C12   C14   1.417666 A    
C17   C22   1.389017 A    
C14   C16   1.424668 A    
C29   H8    1.080986 S    
C34   H14   1.078523 S    
C20   C22   1.415183 A    
C25   C32   1.393162 A    
C34   C36   1.403639 A    
C26   C31   1.393162 A    
C9    C11   1.409391 A    
C46   H20   1.085544 S    
O2    Cu2   1.961160 S    
C28   C45   1.476043 S    
N5    O15   1.300807 A    
O5    Cu1   1.978677 S    
C44   H18   1.083066 S    
C6    H2    1.083680 S    
N6    O17   1.300797 A    
C1    C24   1.472159 S    
C34   C39   1.415271 A    
C42   O10   1.217987 D    
C37   N4    1.432213 S    
C25   H9    1.085723 S    
C26   H10   1.085721 S    
N2    C35   1.358007 A    
