data_mof_unit_61775.cif
_audit_creation_date              2012-12-10T18:01:07-0500
_audit_creation_method            fapswitch 2.2
_symmetry_space_group_name_H-M    P1
_symmetry_Int_Tables_number       1
_space_group_crystal_system       triclinic
_cell_length_a                    38.498368
_cell_length_b                    21.622762
_cell_length_c                    21.64876
_cell_angle_alpha                 90.007762
_cell_angle_beta                  55.910081
_cell_angle_gamma                 89.994008
_cell_volume                      14924.5142979

loop_
_atom_site_label
_atom_site_type_symbol
_atom_type_description
_atom_site_fract_x
_atom_site_fract_y
_atom_site_fract_z
_atom_type_partial_charge
C1    C     C_R   0.999630 0.500043 0.380259 1.006084
C2    C     C_R   0.000373 0.500050 0.619740 1.005721
C3    C     C_R   0.499630 0.000043 0.380259 1.006055
C4    C     C_R   0.500373 0.000049 0.619741 1.005683
C5    C     C_3   0.708460 0.498751 0.791689 -0.026980
C6    C     C_3   0.291542 0.498714 0.208190 -0.027053
C7    C     C_3   0.208460 0.998748 0.791693 -0.026977
C8    C     C_3   0.791542 0.998743 0.208171 -0.027029
C9    C     C_3   0.763999 0.514273 0.791212 0.388035
C10   C     C_3   0.235974 0.512908 0.208402 0.389183
C11   C     C_3   0.264003 0.014143 0.791244 0.388001
C12   C     C_3   0.735975 0.014640 0.208844 0.389178
C13   C     C_3   0.736022 0.555132 0.778688 0.422385
C14   C     C_3   0.263942 0.554716 0.219963 0.425318
C15   C     C_3   0.236023 0.055095 0.778820 0.422379
C16   C     C_3   0.763945 0.055208 0.221671 0.425321
C17   C     C_1   0.836976 0.500262 0.662353 0.096438
C18   C     C_1   0.163026 0.500214 0.337606 0.097433
C19   C     C_1   0.336976 0.000263 0.662351 0.096443
C20   C     C_1   0.663026 0.000211 0.337628 0.097486
C21   C     C_1   0.663079 0.499169 0.837105 0.055640
C22   C     C_1   0.336921 0.499175 0.162848 0.061611
C23   C     C_1   0.163080 0.999167 0.837108 0.055639
C24   C     C_1   0.836921 0.999194 0.162839 0.061642
C25   C     C_R   0.026667 0.539412 0.255610 0.302314
C26   C     C_R   0.973384 0.539508 0.744360 0.302271
C27   C     C_R   0.526666 0.039413 0.255611 0.302219
C28   C     C_R   0.473391 0.039519 0.744354 0.302292
C29   C     C_R   0.025677 0.540411 0.191921 0.302992
C30   C     C_R   0.974372 0.540495 0.808052 0.303142
C31   C     C_R   0.525676 0.040412 0.191922 0.302942
C32   C     C_R   0.474380 0.040505 0.808046 0.303136
C33   C     C_R   0.000431 0.497321 0.185987 -0.263154
C34   C     C_R   0.999565 0.497322 0.814023 -0.263809
C35   C     C_R   0.500431 0.997321 0.185987 -0.263138
C36   C     C_R   0.499565 0.997322 0.814024 -0.263797
C37   C     C_R   0.974283 0.455450 0.243993 0.327606
C38   C     C_R   0.025661 0.455367 0.756059 0.324952
C39   C     C_R   0.474284 0.955450 0.243993 0.327600
C40   C     C_R   0.525653 0.955356 0.756069 0.324920
C41   C     C_R   0.972003 0.459347 0.310246 0.117855
C42   C     C_R   0.027955 0.459271 0.689794 0.118000
C43   C     C_R   0.472004 0.959347 0.310246 0.117865
C44   C     C_R   0.527946 0.959257 0.689804 0.118154
C45   C     C_R   0.918792 0.500020 0.581274 0.893458
C46   C     C_R   0.081208 0.500007 0.418727 0.893478
C47   C     C_R   0.418792 0.000020 0.581274 0.893430
C48   C     C_R   0.581209 0.000007 0.418728 0.893452
C49   C     C_R   0.998910 0.500225 0.314743 -0.245166
C50   C     C_R   0.001098 0.500239 0.685256 -0.245178
C51   C     C_R   0.498910 0.000225 0.314743 -0.245176
C52   C     C_R   0.501098 0.000237 0.685257 -0.245199
C53   C     C_R   0.499998 0.379637 0.999999 0.844099
C54   C     C_R   0.999997 0.879637 0.999999 0.844070
C55   C     C_R   0.581220 0.499941 0.918878 0.902038
C56   C     C_R   0.418780 0.499953 0.081121 0.901208
C57   C     C_R   0.081220 0.999941 0.918878 0.902031
C58   C     C_R   0.918780 0.999954 0.081120 0.901221
C59   C     C_R   0.500181 0.620020 0.999828 1.055826
C60   C     C_R   0.000181 0.120020 0.999828 1.055870
C61   C     C_R   0.000008 0.379612 0.000267 1.008322
C62   C     C_R   0.500008 0.879612 0.000267 1.008320
C63   C     C_R   0.000074 0.498939 0.120210 0.969452
C64   C     C_R   0.999925 0.498936 0.879793 0.970394
C65   C     C_R   0.500074 0.998939 0.120210 0.969458
C66   C     C_R   0.499925 0.998936 0.879794 0.970425
C67   C     C_R   0.999996 0.620258 0.000001 0.883122
C68   C     C_R   0.499996 0.120258 0.000001 0.883147
C69   C     C_R   0.473519 0.281881 0.066959 -0.177580
C70   C     C_R   0.526457 0.281852 0.933035 -0.175558
C71   C     C_R   0.973517 0.781881 0.066958 -0.177642
C72   C     C_R   0.026459 0.781852 0.933036 -0.175583
C73   C     C_R   0.973044 0.717970 0.066747 -0.165735
C74   C     C_R   0.026929 0.717941 0.933250 -0.164890
C75   C     C_R   0.473046 0.217970 0.066747 -0.165697
C76   C     C_R   0.526927 0.217941 0.933249 -0.164860
C77   C     C_R   0.999988 0.686336 0.999999 -0.000336
C78   C     C_R   0.499988 0.186335 0.999999 -0.000357
C79   C     C_3   0.736177 0.485028 0.707624 0.148135
C80   C     C_3   0.263862 0.486250 0.292514 0.153284
C81   C     C_3   0.236175 0.985158 0.707597 0.148116
C82   C     C_3   0.763861 0.984538 0.292086 0.153278
C83   C     C_R   0.499991 0.313515 0.999997 -0.005532
C84   C     C_R   0.999990 0.813515 0.999997 -0.005515
C85   C     C_R   0.526983 0.717501 0.014280 0.275753
C86   C     C_R   0.472865 0.717526 0.987314 0.275259
C87   C     C_R   0.026983 0.217501 0.014279 0.275747
C88   C     C_R   0.972865 0.217525 0.987316 0.275386
C89   C     C_R   0.027406 0.282273 0.013228 0.270067
C90   C     C_R   0.973661 0.282265 0.985400 0.273652
C91   C     C_R   0.527405 0.782273 0.013230 0.270053
C92   C     C_R   0.473662 0.782265 0.985399 0.273594
C93   C     C_R   0.999958 0.313451 0.000677 -0.212624
C94   C     C_R   0.499958 0.813451 0.000677 -0.212617
C95   C     C_R   0.500449 0.686267 0.999473 -0.228424
C96   C     C_R   0.000449 0.186267 0.999473 -0.228399
C97   C     C_3   0.763706 0.542450 0.693707 -0.408384
C98   C     C_3   0.236297 0.543358 0.305213 -0.374496
C99   C     C_3   0.263705 0.042549 0.693810 -0.408320
C100  C     C_3   0.736299 0.042078 0.306545 -0.374649
C101  C     C_1   0.874413 0.500092 0.625286 -0.149859
C102  C     C_1   0.125588 0.500054 0.374697 -0.149925
C103  C     C_1   0.374413 0.000093 0.625286 -0.149855
C104  C     C_1   0.625588 0.000053 0.374708 -0.149771
C105  C     C_1   0.625626 0.499568 0.874567 -0.150346
C106  C     C_1   0.374374 0.499583 0.125422 -0.151662
C107  C     C_1   0.125627 0.999567 0.874568 -0.150355
C108  C     C_1   0.874374 0.999592 0.125420 -0.151654
C109  C     C_3   0.764090 0.444068 0.720292 0.448738
C110  C     C_3   0.235940 0.444383 0.280852 0.417820
C111  C     C_3   0.264090 0.944104 0.720163 0.448730
C112  C     C_3   0.735938 0.943913 0.279155 0.417907
C113  C     C_3   0.791633 0.500503 0.707276 0.026996
C114  C     C_3   0.208370 0.500463 0.292643 0.025453
C115  C     C_3   0.291633 0.000505 0.707276 0.026990
C116  C     C_3   0.708370 0.000454 0.292675 0.025391
C117  C     C_3   0.736411 0.456929 0.805258 -0.397947
C118  C     C_3   0.263600 0.455896 0.195608 -0.407419
C119  C     C_3   0.236414 0.956830 0.805159 -0.397932
C120  C     C_3   0.763598 0.957196 0.194292 -0.407347
H1    H     H_    0.774787 0.577237 0.648681 0.183563
H2    H     H_    0.225197 0.579077 0.349281 0.180692
H3    H     H_    0.274783 0.077414 0.648865 0.183590
H4    H     H_    0.725200 0.076764 0.351695 0.180612
H5    H     H_    0.452908 0.306613 0.118727 0.146092
H6    H     H_    0.547071 0.306561 0.881267 0.148163
H7    H     H_    0.952904 0.806614 0.118726 0.146092
H8    H     H_    0.047074 0.806561 0.881268 0.148148
H9    H     H_    0.952326 0.693233 0.118448 0.148210
H10   H     H_    0.047648 0.693181 0.881549 0.149133
H11   H     H_    0.452330 0.193232 0.118450 0.148221
H12   H     H_    0.547645 0.193180 0.881547 0.149151
H13   H     H_    0.725383 0.422312 0.850441 0.189851
H14   H     H_    0.274632 0.420495 0.151218 0.191081
H15   H     H_    0.225389 0.922133 0.850260 0.189835
H16   H     H_    0.774629 0.922841 0.148831 0.191169
O1    O     O_R   0.000010 0.448280 0.408380 -0.614803
O2    O     O_R   0.999990 0.448280 0.591620 -0.615162
O3    O     O_R   0.500010 0.948280 0.408380 -0.614816
O4    O     O_R   0.499990 0.948280 0.591620 -0.615167
O5    O     O_R   0.034780 0.499900 0.056880 -0.559426
O6    O     O_R   0.965220 0.499900 0.943120 -0.559340
O7    O     O_R   0.534780 0.999900 0.056880 -0.559447
O8    O     O_R   0.465220 0.999900 0.943120 -0.559358
O9    O     O_R   0.965220 0.499940 0.126430 -0.637300
O10   O     O_R   0.034780 0.499940 0.873570 -0.636377
O11   O     O_R   0.465220 0.999940 0.126430 -0.637299
O12   O     O_R   0.534780 0.999940 0.873570 -0.636373
O13   O     O_R   0.034810 0.591520 0.965270 -0.616961
O14   O     O_R   0.965190 0.591520 0.034730 -0.617553
O15   O     O_R   0.534810 0.091520 0.965270 -0.616954
O16   O     O_R   0.465190 0.091520 0.034730 -0.617537
O17   O     O_R   0.000010 0.551730 0.408430 -0.583363
O18   O     O_R   0.999990 0.551730 0.591570 -0.582990
O19   O     O_R   0.500010 0.051730 0.408430 -0.583320
O20   O     O_R   0.499990 0.051730 0.591570 -0.582967
O21   O     O_R   0.938390 0.448280 0.561610 -0.608087
O22   O     O_R   0.061610 0.448280 0.438390 -0.607965
O23   O     O_R   0.438390 0.948280 0.561610 -0.608087
O24   O     O_R   0.561610 0.948280 0.438390 -0.608033
O25   O     O_R   0.938400 0.551730 0.561660 -0.612438
O26   O     O_R   0.061600 0.551730 0.438340 -0.612579
O27   O     O_R   0.438400 0.051730 0.561660 -0.612458
O28   O     O_R   0.561600 0.051730 0.438340 -0.612356
O29   O     O_R   0.500010 0.408260 0.948350 -0.625529
O30   O     O_R   0.499990 0.408260 0.051650 -0.625646
O31   O     O_R   0.000010 0.908260 0.948350 -0.625547
O32   O     O_R   0.999990 0.908260 0.051650 -0.625637
O33   O     O_R   0.561620 0.499890 0.886700 -0.628753
O34   O     O_R   0.438380 0.499890 0.113300 -0.625822
O35   O     O_R   0.061620 0.999890 0.886700 -0.628754
O36   O     O_R   0.938380 0.999890 0.113300 -0.625530
O37   O     O_R   0.561610 0.499990 0.990150 -0.598147
O38   O     O_R   0.438390 0.499990 0.009850 -0.598397
O39   O     O_R   0.061610 0.999990 0.990150 -0.598147
O40   O     O_R   0.938390 0.999990 0.009850 -0.598686
O41   O     O_R   0.500010 0.591500 0.948260 -0.585369
O42   O     O_R   0.499990 0.591500 0.051740 -0.587778
O43   O     O_R   0.000010 0.091500 0.948260 -0.585421
O44   O     O_R   0.999990 0.091500 0.051740 -0.587725
O45   O     O_R   0.034760 0.408280 0.965230 -0.600022
O46   O     O_R   0.965240 0.408280 0.034770 -0.596766
O47   O     O_R   0.534760 0.908280 0.965230 -0.600022
O48   O     O_R   0.465240 0.908280 0.034770 -0.596801
Zn1   Zn    Zn3+2 1.000000 0.430930 0.500000 1.020705
Zn2   Zn    Zn3+2 0.500000 0.930930 0.500000 1.020682
Zn3   Zn    Zn3+2 1.000000 0.569080 0.500000 1.039722
Zn4   Zn    Zn3+2 0.500000 0.069080 0.500000 1.039932
Zn5   Zn    Zn3+2 0.500010 0.499860 0.930960 1.018888
Zn6   Zn    Zn3+2 0.499990 0.499860 0.069040 1.017732
Zn7   Zn    Zn3+2 0.000010 0.999860 0.930960 1.018668
Zn8   Zn    Zn3+2 0.999990 0.999860 0.069040 1.017944
Zn9   Zn    Zn3+2 0.046450 0.499890 0.953590 1.047902
Zn10  Zn    Zn3+2 0.953550 0.499890 0.046410 1.050588
Zn11  Zn    Zn3+2 0.546450 0.999890 0.953590 1.047890
Zn12  Zn    Zn3+2 0.453550 0.999890 0.046410 1.050556
N1    N     N_2   0.943307 0.421245 0.372176 -0.263817
H17   H     H_    0.938320 0.378127 0.358150 0.282261
C121  C     C_3   0.904587 0.451835 0.427563 -0.719596
H18   H     H_    0.886360 0.463630 0.403581 0.252527
H19   H     H_    0.911059 0.494704 0.447730 0.212031
H20   H     H_    0.885462 0.420596 0.476014 0.245694
N2    N     N_2   0.056617 0.421091 0.627892 -0.264311
H21   H     H_    0.061567 0.377962 0.641947 0.281431
C122  C     C_3   0.095364 0.451581 0.572481 -0.718189
H22   H     H_    0.113602 0.463333 0.596451 0.252493
H23   H     H_    0.088928 0.494463 0.552284 0.212003
H24   H     H_    0.114460 0.420290 0.524051 0.246113
N3    N     N_2   0.443308 0.921245 0.372176 -0.263835
H25   H     H_    0.438321 0.878127 0.358149 0.282236
C123  C     C_3   0.404587 0.951835 0.427563 -0.719548
H26   H     H_    0.386360 0.963628 0.403581 0.252519
H27   H     H_    0.411059 0.994703 0.447730 0.212033
H28   H     H_    0.385462 0.920595 0.476014 0.245730
N4    N     N_2   0.556599 0.921060 0.627912 -0.264140
H29   H     H_    0.561536 0.877928 0.641979 0.281387
C124  C     C_3   0.595354 0.951528 0.572495 -0.719085
H30   H     H_    0.613594 0.963270 0.596463 0.252545
H31   H     H_    0.588930 0.994413 0.552284 0.212154
H32   H     H_    0.614442 0.920225 0.524074 0.245480
O49   O     O_3   0.551780 0.683570 0.029544 -0.733997
H33   H     H_    0.555690 0.707447 0.064256 0.355092
O50   O     O_3   0.444611 0.683645 0.980734 -0.736656
H34   H     H_    0.419239 0.709021 0.998627 0.358822
O51   O     O_3   0.051781 0.183570 0.029541 -0.733983
H35   H     H_    0.055691 0.207447 0.064253 0.355113
O52   O     O_3   0.944610 0.183645 0.980737 -0.736795
H36   H     H_    0.919238 0.209021 0.998632 0.358769
O53   O     O_3   0.054023 0.316287 0.023982 -0.746142
H37   H     H_    0.080129 0.292394 0.004661 0.358862
O54   O     O_3   0.950713 0.316231 0.965958 -0.746857
H38   H     H_    0.946384 0.290977 0.932639 0.352302
O55   O     O_3   0.554022 0.816287 0.023984 -0.746175
H39   H     H_    0.580128 0.792395 0.004665 0.358851
O56   O     O_3   0.450714 0.816232 0.965955 -0.746871
H40   H     H_    0.446386 0.790978 0.932635 0.352339
N5    N     N_2   0.719832 0.468044 0.663913 -0.297478
H41   H     H_    0.695624 0.496295 0.673883 0.239112
C125  C     C_3   0.751200 0.458977 0.585292 -0.722652
H42   H     H_    0.735837 0.442537 0.557612 0.238002
H43   H     H_    0.774404 0.423611 0.576785 0.275183
H44   H     H_    0.767618 0.503194 0.558996 0.230583
N6    N     N_2   0.280297 0.470231 0.336333 -0.285869
H45   H     H_    0.300517 0.433042 0.314906 0.221611
C126  C     C_3   0.249303 0.465732 0.415734 -0.712469
H46   H     H_    0.265201 0.456371 0.444545 0.236005
H47   H     H_    0.227063 0.427420 0.428129 0.256954
H48   H     H_    0.231733 0.509865 0.437632 0.243221
N7    N     N_2   0.219827 0.968315 0.663852 -0.297477
H49   H     H_    0.195621 0.996604 0.673886 0.239135
C127  C     C_3   0.251194 0.959358 0.585211 -0.722766
H50   H     H_    0.235831 0.943019 0.557493 0.237994
H51   H     H_    0.274398 0.923959 0.576624 0.275173
H52   H     H_    0.267613 0.003599 0.559018 0.230617
N8    N     N_2   0.780293 0.966668 0.335386 -0.285949
H53   H     H_    0.800509 0.929531 0.312822 0.221482
C128  C     C_3   0.749299 0.960686 0.414627 -0.712409
H54   H     H_    0.765196 0.949953 0.443130 0.235950
H55   H     H_    0.727055 0.922698 0.425855 0.257005
H56   H     H_    0.731733 0.004668 0.437873 0.243215
O57   O     O_3   0.720324 0.612905 0.811798 -0.725780
H57   H     H_    0.745335 0.639540 0.792455 0.348203
O58   O     O_3   0.279601 0.612074 0.185551 -0.726154
H58   H     H_    0.254574 0.638552 0.204299 0.347382
O59   O     O_3   0.220326 0.112827 0.812066 -0.725750
H59   H     H_    0.245337 0.139444 0.792795 0.348223
O60   O     O_3   0.779609 0.113117 0.189030 -0.726259
H60   H     H_    0.754583 0.139778 0.208598 0.347346
O61   O     O_3   0.779602 0.531104 0.833607 -0.727389
H61   H     H_    0.754548 0.536406 0.885162 0.352994
O62   O     O_3   0.220336 0.528384 0.165689 -0.727335
H62   H     H_    0.245375 0.533060 0.114006 0.352823
O63   O     O_3   0.279608 0.030840 0.833673 -0.727391
H63   H     H_    0.254555 0.036086 0.885239 0.352988
O64   O     O_3   0.720339 0.031908 0.166632 -0.727298
H64   H     H_    0.745378 0.037404 0.115106 0.352826
O65   O     O_3   0.779867 0.386118 0.687836 -0.745974
H65   H     H_    0.754862 0.359618 0.706528 0.343255
O66   O     O_3   0.220197 0.386926 0.314904 -0.744509
H66   H     H_    0.245204 0.360504 0.296567 0.332879
O67   O     O_3   0.279867 0.886195 0.687570 -0.746026
H67   H     H_    0.254861 0.859712 0.706190 0.343236
O68   O     O_3   0.720192 0.885917 0.311430 -0.744090
H68   H     H_    0.745199 0.859301 0.292272 0.332911
O69   O     O_3   0.054927 0.574442 0.261013 -0.739469
H69   H     H_    0.080111 0.582173 0.210260 0.355697
O70   O     O_3   0.945162 0.574628 0.738932 -0.739333
H70   H     H_    0.919987 0.582432 0.789679 0.355637
O71   O     O_3   0.554926 0.074443 0.261014 -0.739286
H71   H     H_    0.580110 0.082174 0.210261 0.355788
O72   O     O_3   0.445176 0.074650 0.738921 -0.739322
H72   H     H_    0.420002 0.082464 0.789666 0.355633
O73   O     O_3   0.047806 0.583684 0.135893 -0.744942
H73   H     H_    0.051749 0.621351 0.157347 0.346230
O74   O     O_3   0.952289 0.583828 0.864053 -0.745242
H74   H     H_    0.948388 0.621512 0.842573 0.346231
O75   O     O_3   0.547805 0.083685 0.135893 -0.744935
H75   H     H_    0.551748 0.121353 0.157348 0.346270
O76   O     O_3   0.452304 0.083847 0.864039 -0.745242
H76   H     H_    0.448410 0.121532 0.842553 0.346243
O77   O     O_3   0.950128 0.411320 0.238496 -0.744178
H77   H     H_    0.963313 0.400452 0.185408 0.343357
O78   O     O_3   0.049753 0.411147 0.761610 -0.746104
H78   H     H_    0.036563 0.400345 0.814713 0.342476
O79   O     O_3   0.450129 0.911320 0.238495 -0.744232
H79   H     H_    0.463313 0.900451 0.185407 0.343340
O80   O     O_3   0.549737 0.911126 0.761629 -0.746145
H80   H     H_    0.536548 0.900335 0.814734 0.342478

loop_
_geom_bond_atom_site_label_1
_geom_bond_atom_site_label_2
_ccdc_geom_bond_type
N8    C128  S    
C67   O13   A    
O72   H72   S    
C54   O31   A    
C117  H13   S    
C110  C118  S    
O77   H77   S    
N2    C122  S    
C55   C105  S    
O23   Zn2   S    
C39   O79   S    
C26   C50   A    
C36   C66   S    
C98   C114  S    
C88   O52   S    
O62   H62   S    
C29   C33   A    
N1    C121  S    
C9    C13   S    
C55   O37   A    
C31   O75   S    
C62   O47   A    
C11   C15   S    
C12   C16   S    
O46   Zn10  S    
C65   O11   A    
C40   O80   S    
C11   C115  S    
C5    C13   S    
C70   H6    S    
C7    C15   S    
C121  H18   S    
C8    C16   S    
C126  H46   S    
C41   C49   A    
C32   O76   S    
C30   O74   S    
C85   C95   A    
C25   C29   A    
C79   C109  S    
C27   C31   A    
C2    O2    A    
C7    C119  S    
C28   C32   A    
O2    Zn1   S    
C112  C120  S    
O16   Zn12  S    
C81   C99   S    
C56   O38   A    
C100  H4    S    
N4    H29   S    
O53   H37   S    
C6    C80   S    
O52   H36   S    
C59   O41   A    
C23   C107  T    
C92   C94   A    
O6    Zn10  S    
C56   C106  S    
O9    Zn10  S    
C72   C84   A    
C10   O62   S    
C87   C89   A    
C82   N8    S    
O22   Zn1   S    
C90   C93   A    
C110  O66   S    
C64   O10   A    
C79   C97   S    
O28   Zn4   S    
C48   O28   A    
O31   Zn7   S    
O32   Zn8   S    
C26   O70   S    
C68   O15   A    
C91   C94   A    
C65   O7    A    
C13   C97   S    
C43   N3    S    
C86   C95   A    
O38   Zn5   S    
C53   O30   A    
O43   Zn7   S    
C126  H48   S    
C73   C77   A    
O71   H71   S    
C128  H55   S    
C67   C77   S    
O33   Zn5   S    
C17   C113  S    
C47   O23   A    
O36   Zn8   S    
C60   O43   A    
C48   O24   A    
N7    H49   S    
O49   H33   S    
C10   C118  S    
C32   C36   A    
O21   Zn1   S    
O57   H57   S    
C46   O22   A    
C111  C119  S    
C128  H54   S    
C18   C102  T    
C45   O25   A    
C2    C50   S    
O13   Zn9   S    
C57   O39   A    
O14   Zn10  S    
C74   C77   A    
C121  H20   S    
C5    C79   S    
O55   H39   S    
C110  C114  S    
C118  H14   S    
C44   C52   A    
C2    O18   A    
N5    H41   S    
C12   O64   S    
C27   C51   A    
C14   C98   S    
C25   C49   A    
C122  H23   S    
C30   C34   A    
C45   O21   A    
C41   N1    S    
C10   C14   S    
C29   O73   S    
O39   Zn8   S    
C16   C100  S    
O40   Zn7   S    
C124  H30   S    
O27   Zn4   S    
O73   H73   S    
C6    C14   S    
O12   Zn11  S    
O47   Zn11  S    
C33   C63   S    
C34   C64   S    
N3    H25   S    
C5    C21   S    
O11   Zn12  S    
C125  H43   S    
O5    Zn9   S    
C42   C50   A    
C7    C81   S    
C26   C30   A    
C3    O3    A    
C86   O50   S    
C112  C116  S    
C1    O1    A    
C123  H27   S    
C9    O61   S    
C56   O34   A    
C66   O12   A    
C59   O42   A    
C54   O32   A    
C109  O65   S    
O60   H60   S    
O8    Zn12  S    
C91   O55   S    
C80   N6    S    
C128  H56   S    
O4    Zn2   S    
C74   H10   S    
C76   H12   S    
C7    C23   S    
C8    C24   S    
C37   C41   A    
N1    H17   S    
C16   O60   S    
C62   O48   A    
C40   C44   A    
C123  H28   S    
O68   H68   S    
C85   O49   S    
C63   O9    A    
C12   C116  S    
C88   C96   A    
C125  H42   S    
C100  C116  S    
C54   C84   S    
C109  C117  S    
C127  H50   S    
C124  H32   S    
C38   O78   S    
C8    C82   S    
C99   C115  S    
O42   Zn6   S    
C61   C93   S    
C66   O8    A    
C35   C65   S    
N6    H45   S    
C6    C22   S    
O37   Zn6   S    
C98   H2    S    
O15   Zn11  S    
O29   Zn5   S    
O56   H40   S    
C24   C108  T    
O3    Zn2   S    
O45   Zn9   S    
C10   C114  S    
C47   O27   A    
C69   H5    S    
O61   H61   S    
C67   O14   A    
C111  O67   S    
C71   H7    S    
O1    Zn1   S    
O20   Zn4   S    
C68   C78   S    
C73   H9    S    
C47   C103  S    
O80   H80   S    
O50   H34   S    
C72   C74   A    
C15   C99   S    
O74   H74   S    
C3    C51   S    
O48   Zn12  S    
C119  H15   S    
C120  H16   S    
C82   C112  S    
C35   C39   A    
O76   H76   S    
O69   H69   S    
C68   O16   A    
C123  H26   S    
O7    Zn11  S    
C3    O19   A    
C63   O5    A    
O35   Zn7   S    
C27   O71   S    
O10   Zn9   S    
C1    O17   A    
C70   C83   A    
C45   C101  S    
C60   C96   S    
C53   O29   A    
C4    O20   A    
C88   C90   A    
C62   C94   S    
C31   C35   A    
C71   C73   A    
C80   C98   S    
C28   O72   S    
C76   C78   A    
C15   O59   S    
C60   O44   A    
O17   Zn3   S    
O18   Zn3   S    
C92   O56   S    
C61   O45   A    
C53   C83   S    
O66   H66   S    
C9    C113  S    
O25   Zn3   S    
C43   C51   A    
O26   Zn3   S    
C64   O6    A    
C69   C75   A    
C58   C108  S    
C33   C37   A    
C14   O58   S    
O79   H79   S    
C121  H19   S    
C55   O33   A    
C21   C105  T    
N2    H21   S    
C44   N4    S    
C9    C117  S    
O75   H75   S    
C58   O36   A    
O24   Zn2   S    
C11   C119  S    
C18   C114  S    
C85   C91   A    
C122  H22   S    
C46   C102  S    
C72   H8    S    
C38   C42   A    
O19   Zn4   S    
N4    C124  S    
C127  H51   S    
C37   O77   S    
C48   C104  S    
C17   C101  T    
C12   C120  S    
C19   C103  T    
O78   H78   S    
C87   O51   S    
C97   H1    S    
O59   H59   S    
C11   O63   S    
C89   C93   A    
C42   N2    S    
C59   C95   S    
C75   H11   S    
C4    C52   S    
N7    C127  S    
O41   Zn5   S    
C81   C111  S    
C36   C40   A    
O44   Zn8   S    
C20   C116  S    
C39   C43   A    
N6    C126  S    
O67   H67   S    
C22   C106  T    
C5    C117  S    
O30   Zn6   S    
C112  O68   S    
C69   C83   A    
C4    O4    A    
C19   C115  S    
C87   C96   A    
O51   H35   S    
C57   C107  S    
O64   H64   S    
N5    C125  S    
O70   H70   S    
C70   C76   A    
C90   O54   S    
C79   N5    S    
C97   C113  S    
N8    H53   S    
C8    C120  S    
C99   H3    S    
C71   C84   A    
C122  H24   S    
C34   C38   A    
C82   C100  S    
C25   O69   S    
C58   O40   A    
C81   N7    S    
C61   O46   A    
C20   C104  T    
C109  C113  S    
C124  H31   S    
O34   Zn6   S    
C126  H47   S    
C86   C92   A    
C28   C52   A    
C13   O57   S    
O58   H58   S    
N3    C123  S    
C125  H44   S    
C127  H52   S    
C75   C78   A    
C46   O26   A    
C80   C110  S    
O54   H38   S    
C111  C115  S    
C89   O53   S    
O65   H65   S    
C1    C49   S    
C6    C118  S    
C57   O35   A    
O63   H63   S    
