data_mof_unit_18461.cif
_audit_creation_date              2013-03-05T15:49:45-0500
_audit_creation_method            fapswitch 2.2
_symmetry_space_group_name_H-M    P1
_symmetry_Int_Tables_number       1
_space_group_crystal_system       triclinic
_cell_length_a                    13.529473
_cell_length_b                    13.606662
_cell_length_c                    27.532629
_cell_angle_alpha                 90.670806
_cell_angle_beta                  90.042147
_cell_angle_gamma                 59.816372
_cell_volume                      4380.93427438

loop_
_atom_site_label
_atom_site_type_symbol
_atom_site_description
_atom_site_fract_x
_atom_site_fract_y
_atom_site_fract_z
_atom_type_partial_charge
O1    O     O_R   0.301780 0.195490 0.553940 -0.503763
O2    O     O_R   0.522450 0.158840 0.550250 -0.486583
C1    C     C_R   0.619856 0.100064 0.570384 0.573996
O3    O     O_R   0.694460 0.003360 0.553820 -0.486134
O4    O     O_R   0.657750 0.819520 0.549120 -0.506694
C2    C     C_R   0.600194 0.778377 0.567754 0.559947
O5    O     O_R   0.501990 0.803120 0.552700 -0.465212
O6    O     O_R   0.318230 0.023430 0.549370 -0.470634
C3    C     C_R   0.279339 0.121264 0.569709 0.564310
O7    O     O_R   0.302950 0.194150 0.446980 -0.527093
O8    O     O_R   0.523540 0.157600 0.451100 -0.512294
C4    C     C_R   0.622740 0.100009 0.432072 0.588522
O9    O     O_R   0.695630 0.002030 0.446860 -0.484563
O10   O     O_R   0.658840 0.818280 0.449970 -0.531843
C5    C     C_R   0.603576 0.774006 0.431305 0.578956
O11   O     O_R   0.503160 0.801780 0.445740 -0.464378
O12   O     O_R   0.319320 0.022190 0.450230 -0.463268
C6    C     C_R   0.276310 0.121839 0.432047 0.583610
Cr1   Cr    Cr6+3 0.417550 0.169090 0.500530 1.058858
Cr2   Cr    Cr6+3 0.669180 0.913420 0.499920 1.062907
Cr3   Cr    Cr6+3 0.413260 0.917540 0.499520 1.125456
O13   O     O_3   0.499990 0.000010 0.499990 -0.302409
C7    C     C_3   0.730483 0.559006 0.730844 -0.019974
C8    C     C_3   0.782513 0.609038 0.766482 0.020452
C9    C     C_1   0.699331 0.601160 0.897498 0.055842
C10   C     C_1   0.631645 0.728731 0.614314 0.052056
C11   C     C_3   0.631028 0.590463 0.767007 0.031843
C12   C     C_3   0.682566 0.641424 0.802411 0.002227
C13   C     C_3   0.560930 0.707775 0.743264 0.033435
C14   C     C_3   0.660130 0.676061 0.707515 0.021485
C15   C     C_3   0.611567 0.759440 0.778874 -0.200796
C16   C     C_3   0.711735 0.726129 0.742682 -0.015430
C17   C     C_1   0.691328 0.623232 0.854962 0.036647
C18   C     C_1   0.647957 0.699597 0.655759 0.043344
C19   C     C_3   0.136455 0.100852 0.741497 -0.119971
C20   C     C_3   0.233320 0.055178 0.779920 -0.101160
C21   C     C_1   0.106368 0.196958 0.902374 0.090451
C22   C     C_1   0.237241 0.136058 0.618510 0.023173
C23   C     C_3   0.070882 0.212973 0.770953 0.024654
C24   C     C_3   0.166226 0.167293 0.809038 0.087033
C25   C     C_3   0.130122 0.266028 0.742513 -0.144090
C26   C     C_3   0.197074 0.153363 0.713891 0.005920
C27   C     C_3   0.225945 0.219602 0.780874 0.038564
C28   C     C_3   0.294649 0.107608 0.751366 -0.096880
C29   C     C_1   0.140207 0.178011 0.861061 0.096933
C30   C     C_1   0.214898 0.145020 0.661230 -0.020716
C31   C     C_3   0.677446 0.234877 0.741264 -0.118681
C32   C     C_3   0.575151 0.269103 0.776696 -0.112109
H1    H     H_    0.508964 0.354617 0.789442 0.184732
C33   C     C_1   0.685607 0.202644 0.903900 0.064178
C34   C     C_1   0.633564 0.127720 0.619521 0.020420
C35   C     C_3   0.755196 0.137544 0.775627 0.008060
C36   C     C_3   0.654798 0.172175 0.810717 0.055811
C37   C     C_3   0.726949 0.055016 0.748983 -0.164652
C38   C     C_3   0.647518 0.152770 0.715298 0.011013
C39   C     C_3   0.625976 0.090426 0.784487 0.035467
C40   C     C_3   0.545418 0.186274 0.749964 -0.079011
C41   C     C_1   0.665762 0.187626 0.862754 0.045019
C42   C     C_1   0.641438 0.141766 0.662403 -0.021146
C43   C     C_R   0.646972 0.709716 0.385510 0.040983
C44   C     C_R   0.720200 0.732222 0.357948 -0.118790
C45   C     C_R   0.734090 0.707838 0.308982 -0.097127
C46   C     C_R   0.676286 0.659278 0.286470 0.006705
C47   C     C_R   0.613657 0.621974 0.314324 -0.006719
C48   C     C_R   0.602263 0.643845 0.365194 0.023907
C49   C     C_R   0.580827 0.700889 0.205830 -0.096019
C50   C     C_R   0.586232 0.689554 0.155153 0.026481
C51   C     C_R   0.794371 0.586561 0.160415 -0.142478
C52   C     C_R   0.787783 0.598642 0.210329 -0.133239
C53   C     C_R   0.681376 0.651444 0.233371 0.005003
C54   C     C_R   0.694675 0.624952 0.132568 0.048868
C55   C     C_R   0.222832 0.143596 0.384346 0.056567
C56   C     C_R   0.134219 0.121950 0.370996 -0.008657
C57   C     C_R   0.099282 0.136478 0.322190 -0.150712
C58   C     C_R   0.154475 0.167175 0.287415 0.016780
C59   C     C_R   0.239902 0.190014 0.301744 -0.088105
C60   C     C_R   0.270386 0.182438 0.349660 -0.105570
C61   C     C_R   0.105709 0.280979 0.214564 -0.153190
C62   C     C_R   0.109284 0.290361 0.164733 -0.006900
C63   C     C_R   0.129001 0.102105 0.154876 -0.001684
C64   C     C_R   0.141157 0.087738 0.206002 0.043299
C65   C     C_R   0.123916 0.180456 0.235700 -0.002824
C66   C     C_R   0.105982 0.207361 0.134326 -0.011198
C67   C     C_R   0.636655 0.125895 0.382246 0.011226
C68   C     C_R   0.689831 0.190076 0.371059 -0.046701
C69   C     C_R   0.706288 0.207218 0.321547 0.014626
C70   C     C_R   0.664376 0.163122 0.285085 0.052268
C71   C     C_R   0.608156 0.104794 0.297247 -0.092530
C72   C     C_R   0.596679 0.082279 0.345093 -0.023600
C73   C     C_R   0.735126 0.081814 0.201626 0.001715
C74   C     C_R   0.729272 0.098845 0.151014 -0.019275
C75   C     C_R   0.603214 0.304044 0.164334 -0.022524
C76   C     C_R   0.605229 0.285003 0.214014 -0.084800
C77   C     C_R   0.674388 0.177036 0.232903 0.057839
C78   C     C_R   0.674898 0.211654 0.132948 0.000099
H2    H     H_    0.575192 0.074224 0.268472 0.159226
O14   O     O_R   0.819250 0.149410 0.965240 -0.465892
O15   O     O_R   0.006940 0.180310 0.968270 -0.494631
C79   C     C_R   0.051302 0.234290 0.948639 0.561423
O16   O     O_R   0.028420 0.332670 0.963010 -0.468122
O17   O     O_R   0.810130 0.520390 0.966030 -0.473152
C80   C     C_R   0.712373 0.560469 0.946117 0.564939
O18   O     O_R   0.636050 0.541380 0.962520 -0.496128
O19   O     O_R   0.666480 0.323610 0.968170 -0.500199
C81   C     C_R   0.721431 0.223480 0.949856 0.572893
O20   O     O_R   0.817280 0.156800 0.072180 -0.460418
O21   O     O_R   0.005110 0.187160 0.067410 -0.519918
C82   C     C_R   0.049496 0.243024 0.086210 0.534689
O22   O     O_R   0.026450 0.340060 0.069950 -0.462361
O23   O     O_R   0.808300 0.527240 0.065170 -0.517045
C83   C     C_R   0.709155 0.572210 0.084411 0.587193
O24   O     O_R   0.634070 0.548770 0.069460 -0.467926
O25   O     O_R   0.664650 0.330470 0.067300 -0.533704
C84   C     C_R   0.717882 0.232484 0.086888 0.573592
Cr4   Cr    Cr6+3 0.909770 0.175810 0.018240 1.103142
Cr5   Cr    Cr6+3 0.913300 0.427650 0.016090 1.110919
Cr6   Cr    Cr6+3 0.657770 0.431010 0.016900 1.081776
O26   O     O_3   0.826940 0.344820 0.017080 -0.284904
C85   C     C_2   0.906660 0.555490 0.779063 0.293269
H3    H     H_    0.968429 0.540755 0.750795 0.117688
O27   O     O_2   0.938656 0.529689 0.820816 -0.441492
C86   C     C_2   0.272635 0.289440 0.802370 0.292161
H4    H     H_    0.295740 0.338113 0.778852 0.094350
O28   O     O_2   0.283109 0.293691 0.846232 -0.436542
H5    H     H_    0.089015 0.351378 0.725996 0.094157
C87   C     C_2   0.945289 0.275312 0.781331 0.235802
H6    H     H_    0.887315 0.275701 0.754225 0.080819
O29   O     O_2   0.907438 0.325385 0.819921 -0.477707
H7    H     H_    0.699617 0.293695 0.723426 0.174874
H8    H     H_    0.460308 0.204149 0.737301 0.104136
C88   C     C_2   0.600287 0.011994 0.811808 0.204164
H9    H     H_    0.668993 0.927232 0.820177 0.127845
O30   O     O_2   0.504076 0.045126 0.827373 -0.501544
H10   H     H_    0.795871 0.970466 0.737040 0.170338
C89   C     C_2   0.877001 0.095853 0.788810 0.234647
H11   H     H_    0.941164 0.064469 0.760378 0.090930
O31   O     O_2   0.905304 0.093749 0.831042 -0.475037
H12   H     H_    0.758733 0.778859 0.373068 0.154231
C90   C     C_2   0.793832 0.455597 0.699176 0.199341
H13   H     H_    0.886344 0.411832 0.697227 0.086667
O32   O     O_2   0.741568 0.424108 0.673315 -0.487975
H14   H     H_    0.498555 0.747698 0.224001 0.180191
C91   C     C_2   0.477914 0.745359 0.127523 0.279312
H15   H     H_    0.398282 0.765464 0.145195 0.189685
O33   O     O_2   0.475730 0.772969 0.085318 -0.483142
H16   H     H_    0.783997 0.734484 0.287911 0.144484
H17   H     H_    0.866077 0.562281 0.231181 0.116491
H18   H     H_    0.878568 0.538070 0.144193 0.137533
C92   C     C_2   0.566070 0.557290 0.289534 0.197756
H19   H     H_    0.614973 0.497074 0.260757 0.162925
O34   O     O_2   0.469955 0.575561 0.298554 -0.496760
C93   C     C_2   0.552745 0.591819 0.397337 0.238680
H20   H     H_    0.493162 0.567294 0.383809 0.170418
O35   O     O_2   0.581857 0.571528 0.439737 -0.486806
C94   C     C_2   0.073162 0.089047 0.406129 0.250284
H21   H     H_    0.013691 0.063479 0.392894 0.135333
O36   O     O_2   0.085570 0.092605 0.449899 -0.457649
H22   H     H_    0.100290 0.348925 0.237566 0.105332
C95   C     C_2   0.122476 0.385665 0.146914 0.257007
H23   H     H_    0.086304 0.464801 0.167585 0.092029
O37   O     O_2   0.180682 0.373974 0.111062 -0.453543
C96   C     C_2   0.755691 0.800005 0.724903 0.193788
H24   H     H_    0.696954 0.880316 0.708185 0.096616
O38   O     O_2   0.857344 0.768654 0.727416 -0.514082
H25   H     H_    0.029411 0.123997 0.311269 0.136371
C97   C     C_2   0.178956 0.975417 0.228386 0.314390
H26   H     H_    0.138658 0.969000 0.261162 0.129900
O39   O     O_2   0.258280 0.888694 0.211028 -0.493704
C98   C     C_2   0.142531 0.007515 0.122607 0.306496
H27   H     H_    0.182491 0.995119 0.087163 0.123158
O40   O     O_2   0.105427 0.945846 0.134383 -0.459090
H28   H     H_    0.283585 0.214064 0.275591 0.128948
H29   H     H_    0.335842 0.202702 0.359222 0.132770
C99   C     C_2   0.728610 0.237861 0.410803 0.214751
H30   H     H_    0.720117 0.320997 0.407410 0.121689
O41   O     O_2   0.770953 0.184653 0.447823 -0.449334
C100  C     C_2   0.803216 0.964968 0.221600 0.227042
H31   H     H_    0.808270 0.892584 0.202352 0.091653
O42   O     O_2   0.855823 0.948214 0.259545 -0.474590
C101  C     C_2   0.781315 0.999044 0.117073 0.262068
H32   H     H_    0.857165 0.920474 0.127085 0.125046
O43   O     O_2   0.738278 0.003573 0.077544 -0.466776
C102  C     C_2   0.772019 0.264774 0.308406 0.190549
H33   H     H_    0.785617 0.316628 0.334583 0.085657
O44   O     O_2   0.814965 0.252981 0.268220 -0.507603
H34   H     H_    0.551224 0.354573 0.238543 0.173497
H35   H     H_    0.558859 0.840155 0.798996 0.149566
C103  C     C_2   0.523262 0.420357 0.146628 0.265286
H36   H     H_    0.489107 0.433184 0.110168 0.152003
O45   O     O_2   0.491646 0.503453 0.173209 -0.501970
C104  C     C_2   0.543033 0.012031 0.355410 0.198028
H37   H     H_    0.526082 0.997870 0.392295 0.127680
O46   O     O_2   0.515765 0.969514 0.322514 -0.522130
C105  C     C_2   0.436237 0.764817 0.731179 0.284254
H38   H     H_    0.374642 0.779092 0.759494 0.133019
O47   O     O_2   0.403332 0.795303 0.689875 -0.484774
C106  C     C_2   0.587192 0.514851 0.782788 0.237515
H39   H     H_    0.645023 0.434280 0.799564 0.118087
O48   O     O_2   0.486429 0.544439 0.777738 -0.512884
H40   H     H_    0.275626 0.969387 0.796141 0.123116
H41   H     H_    0.100928 0.051700 0.723877 0.128682
H42   H     H_    0.387235 0.063704 0.742344 0.135674

loop_
_geom_bond_atom_site_label_1
_geom_bond_atom_site_label_2
_geom_bond_distance
_ccdc_geom_bond_type
C69   C102  1.497509 S    
C105  O47   1.219900 D    
C70   C71   1.390759 A    
C71   H2    1.085304 S    
C25   C26   1.538844 S    
C76   C77   1.392523 A    
C38   C42   1.468747 S    
C94   O36   1.220386 D    
C25   C27   1.544468 S    
C5    C43   1.469191 S    
C83   O24   1.274853 A    
O16   Cr5   2.041305 S    
C27   C28   1.547265 S    
C50   C91   1.481838 S    
C104  O46   1.221851 D    
C64   C65   1.412362 A    
C73   C74   1.410921 A    
C89   H11   1.081256 S    
C23   C25   1.540331 S    
O4    Cr2   1.931533 S    
C49   C53   1.402988 A    
C68   C69   1.422125 A    
C39   C40   1.546101 S    
C4    O9    1.267173 A    
O8    Cr1   1.924938 S    
C45   C46   1.393441 A    
O20   C84   1.277280 A    
C7    C90   1.494763 S    
O25   C84   1.279779 A    
C52   C53   1.393489 A    
C92   O34   1.220017 D    
C62   C95   1.483895 S    
O4    C2    1.276182 A    
C9    C80   1.431206 S    
C11   C13   1.541431 S    
C106  H39   1.084520 S    
C78   C84   1.483919 S    
C91   H15   1.083316 S    
C37   H10   1.101830 S    
C70   C77   1.466541 S    
C82   O22   1.280860 A    
C4    C67   1.455970 S    
C103  O45   1.221365 D    
C56   C57   1.406945 A    
C106  O48   1.220268 D    
C19   C26   1.537448 S    
C99   H30   1.083202 S    
C3    C22   1.431692 S    
O22   Cr5   2.041170 S    
C80   O18   1.269191 A    
O23   C83   1.273755 A    
C10   C18   1.195906 T    
C24   C27   1.533884 S    
C95   H23   1.085834 S    
C101  O43   1.221401 D    
O6    C3    1.281080 A    
C100  O42   1.221181 D    
C54   C83   1.465665 S    
C33   C81   1.430072 S    
C87   O29   1.219963 D    
C7    C8    1.544987 S    
C95   O37   1.221202 D    
C7    C11   1.548549 S    
O14   Cr4   2.045899 S    
C8    C12   1.547207 S    
C13   C105  1.499250 S    
C51   H18   1.081919 S    
C55   C56   1.418116 A    
O14   C81   1.270671 A    
C76   H34   1.084582 S    
C49   C50   1.399888 A    
C73   C100  1.491905 S    
C23   C87   1.494711 S    
C89   O31   1.220082 D    
Cr3   O13   1.989959 S    
C97   O39   1.219315 D    
C98   O40   1.221233 D    
C59   H28   1.084196 S    
O18   Cr6   2.047337 S    
C47   C92   1.486619 S    
C26   C28   1.543222 S    
C63   C98   1.488589 S    
C63   C66   1.427752 A    
O19   C81   1.276386 A    
O17   C80   1.275897 A    
C35   C37   1.535253 S    
C73   C77   1.414167 A    
C94   H21   1.085945 S    
C96   O38   1.220181 D    
C85   O27   1.219872 D    
C2    C10   1.418153 S    
C6    C55   1.458880 S    
C24   C29   1.463232 S    
C37   C39   1.543702 S    
O1    Cr1   2.042065 S    
C61   H22   1.086001 S    
C57   C58   1.404571 A    
C14   C18   1.455183 S    
C104  H37   1.081861 S    
C33   C41   1.202695 T    
C7    C14   1.534252 S    
C25   H5    1.107854 S    
C40   H8    1.107431 S    
C32   C40   1.552338 S    
Cr1   O13   1.988982 S    
O1    C3    1.272603 A    
C59   C60   1.371442 A    
C23   C24   1.535204 S    
C1    C34   1.436699 S    
C61   C62   1.382527 A    
C19   H41   1.108582 S    
C88   O30   1.219643 D    
O5    Cr3   2.044573 S    
O11   Cr3   2.043146 S    
C75   C78   1.420380 A    
O12   Cr3   1.925491 S    
C16   C96   1.488890 S    
C103  H36   1.083524 S    
C19   C20   1.554758 S    
C19   C23   1.543821 S    
C58   C59   1.394867 A    
C8    C16   1.540814 S    
C102  H33   1.081448 S    
C13   C14   1.538151 S    
C14   C16   1.533266 S    
O10   Cr2   1.930508 S    
C61   C65   1.396332 A    
C15   C16   1.552022 S    
C46   C53   1.463740 S    
C20   C24   1.540721 S    
O7    Cr1   2.042258 S    
C90   H13   1.083497 S    
Cr4   O26   1.988863 S    
C74   C101  1.490947 S    
C56   C94   1.483825 S    
C68   C99   1.490268 S    
O12   C6    1.284431 A    
C72   C104  1.491771 S    
C98   H27   1.085500 S    
C67   C68   1.418972 A    
C85   H3    1.083112 S    
C27   C86   1.497391 S    
O21   Cr4   1.926984 S    
C66   C82   1.488363 S    
C2    O5    1.266132 A    
O25   Cr6   1.929223 S    
C32   H1    1.105478 S    
C31   H7    1.105668 S    
C43   C48   1.419522 A    
C100  H31   1.084286 S    
C38   C40   1.544484 S    
C26   C30   1.463673 S    
C97   H26   1.081524 S    
C52   H17   1.084064 S    
C20   C28   1.557180 S    
C34   C42   1.207011 T    
C67   C72   1.413807 A    
C35   C89   1.494391 S    
O21   C82   1.286720 A    
C86   O28   1.219906 D    
C1    O3    1.268580 A    
O23   Cr5   1.924735 S    
C21   C79   1.428753 S    
C35   C36   1.532353 S    
C31   C38   1.535873 S    
C96   H24   1.084220 S    
C93   O35   1.221330 D    
C36   C39   1.525711 S    
C91   O33   1.221199 D    
C37   C38   1.540865 S    
C87   H6    1.080398 S    
C8    C85   1.498834 S    
C60   H29   1.083095 S    
O9    Cr2   2.047381 S    
O2    Cr1   1.926195 S    
C69   C70   1.420024 A    
C51   C52   1.379769 A    
C12   C15   1.547139 S    
C20   H40   1.108928 S    
Cr2   O13   1.978878 S    
C63   C64   1.421426 A    
C31   C32   1.557973 S    
O6    Cr3   1.925173 S    
C12   C17   1.465404 S    
C55   C60   1.399955 A    
C36   C41   1.463880 S    
C75   C103  1.486040 S    
C58   C65   1.470032 S    
C31   C35   1.543586 S    
C49   H14   1.084162 S    
C32   C36   1.541528 S    
C11   C106  1.491121 S    
O19   Cr6   1.931497 S    
C79   O16   1.270970 A    
O20   Cr4   2.043407 S    
C47   C48   1.420713 A    
C48   C93   1.491827 S    
C102  O44   1.220889 D    
O2    C1    1.277945 A    
C28   H42   1.110045 S    
C13   C15   1.546590 S    
Cr6   O26   1.978624 S    
C62   C66   1.416617 A    
C90   O32   1.219549 D    
O15   Cr4   1.926263 S    
O24   Cr6   2.047960 S    
O7    C6    1.270403 A    
C51   C54   1.406903 A    
C5    O11   1.275746 A    
C75   C76   1.392820 A    
Cr5   O26   1.990236 S    
C105  H38   1.083781 S    
C50   C54   1.415505 A    
C44   C45   1.374829 A    
C44   H12   1.083462 S    
C99   O41   1.220900 D    
C22   C30   1.204078 T    
C39   C88   1.489187 S    
C74   C78   1.423574 A    
C46   C47   1.416431 A    
O3    Cr2   2.048053 S    
C71   C72   1.382340 A    
O15   C79   1.282529 A    
C45   H16   1.084255 S    
C15   H35   1.104731 S    
C64   C97   1.487534 S    
O17   Cr5   1.925387 S    
O10   C5    1.277165 A    
C43   C44   1.400993 A    
C93   H20   1.080319 S    
C86   H4    1.083569 S    
C92   H19   1.085045 S    
C21   C29   1.202118 T    
C57   H25   1.082911 S    
C101  H32   1.084131 S    
C88   H9    1.084078 S    
O8    C4    1.274240 A    
C9    C17   1.203652 T    
C11   C12   1.544835 S    
