data_mof_unit_20855.cif
_audit_creation_date              2012-12-11T17:43:37-0500
_audit_creation_method            fapswitch 2.2
_symmetry_space_group_name_H-M    P1
_symmetry_Int_Tables_number       1
_space_group_crystal_system       triclinic
_cell_length_a                    15.075789
_cell_length_b                    15.212316
_cell_length_c                    16.989673
_cell_angle_alpha                 108.490418
_cell_angle_beta                  105.612831
_cell_angle_gamma                 109.421856
_cell_volume                      3164.58686903

loop_
_atom_site_label
_atom_site_type_symbol
_atom_type_description
_atom_site_fract_x
_atom_site_fract_y
_atom_site_fract_z
_atom_type_partial_charge
C1    C     C_R   0.090169 0.277040 0.029579 -0.105592
C2    C     C_R   0.081231 0.062492 0.945675 -0.102790
C3    C     C_R   0.001893 0.897838 0.948795 0.026085
C4    C     C_R   0.996532 0.078768 0.950308 0.064871
C5    C     C_R   0.087337 0.974422 0.948841 0.116644
C6    C     C_R   0.910878 0.001152 0.949333 0.159701
C7    C     C_R   0.723587 0.967118 0.886063 0.521423
C8    C     C_R   0.274634 0.034839 0.048598 0.505487
C9    C     C_R   0.668370 0.075233 0.980823 0.621081
C10   C     C_R   0.355639 0.925094 0.002486 0.617480
C11   C     C_R   0.504470 0.758328 0.332857 -0.109343
C12   C     C_R   0.914828 0.713900 0.926949 -0.147376
C13   C     C_R   0.455673 0.299779 0.725754 -0.112321
C14   C     C_R   0.510467 0.721244 0.248882 -0.121618
C15   C     C_R   0.482516 0.352061 0.819062 -0.063164
C16   C     C_R   0.936757 0.453259 0.735746 -0.108863
C17   C     C_R   0.063788 0.484067 0.254200 -0.090429
C18   C     C_R   0.532144 0.636204 0.221301 0.196185
C19   C     C_R   0.526103 0.461114 0.862623 0.216020
C20   C     C_R   0.548508 0.589547 0.279565 -0.053893
C21   C     C_R   0.543446 0.517173 0.811964 -0.110364
C22   C     C_R   0.542500 0.626937 0.363571 -0.115352
C23   C     C_R   0.028949 0.468485 0.726315 0.071040
C24   C     C_R   0.520207 0.464738 0.719417 -0.088147
C25   C     C_R   0.520308 0.711106 0.390113 -0.087721
C26   C     C_R   0.475586 0.355992 0.676141 -0.119716
C27   C     C_R   0.620806 0.584431 0.123318 0.737536
C28   C     C_R   0.451921 0.525426 0.963705 0.724345
C29   C     C_R   0.620903 0.544691 0.036917 -0.242438
C30   C     C_R   0.450534 0.563295 0.049241 -0.230336
C31   C     C_R   0.535981 0.514357 0.956444 -0.252748
C32   C     C_R   0.534405 0.594180 0.130438 -0.231748
C33   C     C_R   0.648096 0.998339 0.897024 -0.418947
C34   C     C_R   0.972841 0.426032 0.257375 0.068870
C35   C     C_R   0.358062 0.011279 0.066865 -0.373152
C36   C     C_R   0.965294 0.387570 0.325596 0.101335
C37   C     C_R   0.038153 0.426161 0.639987 0.097764
C38   C     C_R   0.141687 0.446262 0.554015 -0.160631
C39   C     C_R   0.862485 0.315725 0.398075 -0.139562
C40   C     C_R   0.720761 0.216567 0.823890 -0.069083
C41   C     C_R   0.233717 0.796521 0.186053 -0.063676
C42   C     C_R   0.135432 0.460045 0.636879 -0.112035
C43   C     C_R   0.868323 0.333244 0.323760 -0.171151
C44   C     C_R   0.948086 0.363994 0.558116 -0.225329
C45   C     C_R   0.666583 0.221540 0.747282 0.122407
C46   C     C_R   0.055995 0.413527 0.398167 -0.207142
C47   C     C_R   0.953359 0.356288 0.476053 0.154264
C48   C     C_R   0.050861 0.401902 0.474864 0.158743
C49   C     C_R   0.564062 0.146612 0.676186 0.020457
C50   C     C_R   0.318071 0.899086 0.355376 -0.004972
C51   C     C_R   0.455315 0.074917 0.432217 0.567309
C52   C     C_R   0.411265 0.980521 0.604618 0.455096
C53   C     C_R   0.382884 0.987389 0.352729 -0.261949
C54   C     C_R   0.499698 0.060640 0.682007 -0.256470
C55   C     C_R   0.319981 0.899088 0.437708 -0.163579
C56   C     C_R   0.258877 0.802900 0.272480 0.093824
C57   C     C_R   0.536441 0.156752 0.596139 -0.190521
C58   C     C_R   0.394431 0.984433 0.519665 -0.059009
C59   C     C_R   0.460404 0.073663 0.516076 -0.086225
C60   C     C_R   0.760949 0.114242 0.056624 -0.208649
C61   C     C_R   0.272673 0.866183 0.915904 -0.189484
C62   C     C_R   0.836624 0.083690 0.047038 -0.260503
C63   C     C_R   0.189491 0.889421 0.895837 -0.233780
C64   C     C_R   0.298441 0.591106 0.999486 0.018686
C65   C     C_R   0.737780 0.462322 0.048009 -0.001746
C66   C     C_R   0.821120 0.014490 0.961048 -0.124529
C67   C     C_R   0.354050 0.556002 0.047543 0.149088
C68   C     C_R   0.187124 0.970400 0.962894 -0.109843
C69   C     C_R   0.727547 0.313780 0.749829 -0.129538
C70   C     C_R   0.229180 0.702751 0.265231 -0.138308
C71   C     C_R   0.293119 0.495462 0.075788 -0.139153
C72   C     C_R   0.750078 0.561748 0.973898 -0.149039
C73   C     C_R   0.109875 0.537667 0.812261 -0.116726
C74   C     C_R   0.891715 0.400699 0.178279 -0.128548
C75   C     C_R   0.919207 0.198139 0.943529 -0.089356
C76   C     C_R   0.085952 0.799447 0.008839 -0.083929
C77   C     C_R   0.004100 0.181104 0.967003 0.058469
C78   C     C_R   0.708471 0.533231 0.029720 0.186565
C79   C     C_R   0.002093 0.807824 0.961278 0.074306
C80   C     C_R   0.914158 0.911065 0.946015 -0.119495
F1    F     F_    0.704996 0.614801 0.199623 -0.690706
F2    F     F_    0.367109 0.490546 0.885751 -0.709242
H1    H     H_    0.168931 0.291941 0.063534 0.167746
H2    H     H_    0.573591 0.601122 0.843936 0.140296
H3    H     H_    0.554561 0.590300 0.407923 0.146940
H4    H     H_    0.534312 0.508203 0.680740 0.160159
H5    H     H_    0.131510 0.452114 0.399973 0.129506
H6    H     H_    0.872632 0.331958 0.558399 0.166581
H7    H     H_    0.796778 0.309751 0.267991 0.156594
H8    H     H_    0.206659 0.503898 0.698425 0.159002
H9    H     H_    0.217162 0.479488 0.553553 0.154551
H10   H     H_    0.787131 0.279346 0.397785 0.180079
H11   H     H_    0.858590 0.405114 0.683682 0.124735
H12   H     H_    0.838423 0.689270 0.877127 0.127448
H13   H     H_    0.141986 0.505340 0.297518 0.098438
H14   H     H_    0.575450 0.966933 0.839127 0.239332
H15   H     H_    0.423118 0.056920 0.133145 0.253870
H16   H     H_    0.580348 0.226796 0.593949 0.195180
H17   H     H_    0.267689 0.829719 0.436771 0.203985
H18   H     H_    0.519214 0.055171 0.745747 0.193220
H19   H     H_    0.383290 0.985953 0.288930 0.206363
H20   H     H_    0.776435 0.171301 0.122412 0.169539
H21   H     H_    0.269831 0.799303 0.865352 0.194142
H22   H     H_    0.910166 0.119219 0.105371 0.189799
H23   H     H_    0.515407 0.739742 0.455024 0.142170
H24   H     H_    0.123186 0.839183 0.830429 0.186238
H25   H     H_    0.691282 0.161247 0.848675 0.120068
H26   H     H_    0.248186 0.859316 0.167264 0.111627
H27   H     H_    0.325947 0.645366 0.972975 0.163715
H28   H     H_    0.714149 0.421319 0.086122 0.147413
H29   H     H_    0.705039 0.352948 0.711132 0.111932
H30   H     H_    0.240964 0.679569 0.319542 0.123273
H31   H     H_    0.316065 0.462497 0.120723 0.129257
H32   H     H_    0.739371 0.613181 0.945036 0.112935
H33   H     H_    0.191726 0.566947 0.830045 0.132988
H34   H     H_    0.455011 0.315239 0.603906 0.155985
H35   H     H_    0.811509 0.345637 0.152520 0.130738
H36   H     H_    0.841806 0.142818 0.893478 0.121768
H37   H     H_    0.166211 0.853511 0.038883 0.091825
H38   H     H_    0.850485 0.854751 0.949618 0.140382
H39   H     H_    0.146184 0.122182 0.946535 0.154290
H40   H     H_    0.779293 0.870851 0.689026 0.381246
H41   H     H_    0.370362 0.231654 0.283151 0.393916
H42   H     H_    0.586413 0.199785 0.314946 0.383390
H43   H     H_    0.408044 0.785786 0.564891 0.351029
H44   H     H_    0.544791 0.209363 0.094389 0.378213
H45   H     H_    0.487443 0.823601 0.353490 0.144219
H46   H     H_    0.499522 0.776402 0.965909 0.367037
H47   H     H_    0.417648 0.215531 0.691605 0.147405
H48   H     H_    0.498072 0.758625 0.205294 0.182859
H49   H     H_    0.465184 0.307572 0.856431 0.150296
H50   H     H_    0.564211 0.523280 0.259320 0.151508
N1    N     N_R   0.055660 0.348550 0.045620 -0.052915
N2    N     N_R   0.185200 0.638170 0.176300 -0.047956
N3    N     N_R   0.201680 0.494570 0.045620 -0.052645
N4    N     N_R   0.798320 0.505430 0.954380 -0.055438
N5    N     N_R   0.068420 0.560530 0.871650 -0.051753
N6    N     N_R   0.931580 0.439470 0.128350 -0.043700
N7    N     N_R   0.948070 0.295860 0.997670 -0.054503
N8    N     N_R   0.051930 0.704140 0.002330 -0.050229
N9    N     N_R   0.944340 0.651450 0.954380 -0.042131
N10   N     N_R   0.960830 0.507850 0.823700 -0.046636
N11   N     N_R   0.039170 0.492150 0.176300 -0.045684
N12   N     N_R   0.811290 0.303410 0.871650 -0.052244
N13   N     N_R   0.188710 0.696590 0.128350 -0.050341
N14   N     N_R   0.205200 0.552990 0.997670 -0.065098
N15   N     N_R   0.794800 0.447010 0.002330 -0.054588
N16   N     N_R   0.814800 0.361830 0.823700 -0.049529
Ni1   Ni    Ni4+2 0.119340 0.493420 0.109960 0.226175
Ni2   Ni    Ni4+2 0.880660 0.506580 0.890040 0.227092
Ni3   Ni    Ni4+2 0.872590 0.372590 0.000000 0.256131
Ni4   Ni    Ni4+2 0.127410 0.627410 0.000000 0.240660
O1    O     O_2   0.691412 0.777686 0.778707 -0.320759
O2    O     O_2   0.365875 0.891726 0.713124 -0.225772
O3    O     O_2   0.221546 0.857524 0.579726 -0.247410
O4    O     O_3   0.334194 0.764273 0.552763 -0.527623
O5    O     O_2   0.609746 0.216524 0.961188 -0.379198
O6    O     O_2   0.473242 0.048164 0.924002 -0.247357
O7    O     O_3   0.592762 0.177878 0.095868 -0.538631
O8    O     O_2   0.556536 0.978601 0.087973 -0.222557
O9    O     O_2   0.429426 0.835058 0.094485 -0.375247
O10   O     O_3   0.449836 0.800628 0.941558 -0.537354
O11   O     O_2   0.597879 0.855494 0.706165 -0.293715
O12   O     O_3   0.794994 0.927460 0.747556 -0.547112
O13   O     O_2   0.305236 0.231494 0.118012 -0.342176
O14   O     O_2   0.176612 0.108502 0.143914 -0.311847
O15   O     O_3   0.370703 0.171361 0.238471 -0.488867
O16   O     O_2   0.534550 0.271209 0.453147 -0.325077
O17   O     O_2   0.656420 0.199311 0.482984 -0.338611
O18   O     O_3   0.537661 0.137089 0.314800 -0.490478
S1    S     S_3+6 0.698208 0.877609 0.776384 -0.050297
S2    S     S_3+6 0.279138 0.138734 0.137609 -0.062981
S3    S     S_3+6 0.549274 0.174905 0.422981 -0.058632
S4    S     S_3+6 0.331029 0.873048 0.615102 -0.005942
S5    S     S_3+6 0.582481 0.129588 0.988211 -0.050819
S6    S     S_3+6 0.451472 0.885721 0.034468 -0.036547

loop_
_geom_bond_atom_site_label_1
_geom_bond_atom_site_label_2
_ccdc_geom_bond_type
N5    N10   A    
C80   H38   S    
O14   S2    D    
C41   H26   S    
C7    S1    S    
C27   C29   A    
C1    C77   A    
C14   C18   A    
C16   N10   A    
C76   C79   A    
N12   N16   A    
C19   C31   S    
H40   O12   S    
H44   O7    S    
C15   C19   A    
C74   N6    A    
O4    S4    S    
C16   H11   S    
C43   H7    S    
C18   C32   S    
C19   C21   A    
C20   H50   S    
C38   C42   A    
N12   Ni3   S    
N6    N11   A    
C71   N3    A    
C11   C14   A    
C60   H20   S    
C57   C59   A    
C67   C71   A    
O10   S6    S    
C11   C25   A    
C64   N14   A    
C49   C54   A    
C12   C79   A    
C72   H32   S    
C49   C57   A    
C12   N9    A    
C71   H31   S    
C60   C62   A    
C22   H3    S    
C37   C42   A    
C51   S3    S    
C69   H29   S    
C72   C78   A    
C29   C78   S    
C53   H19   S    
C22   C25   A    
N11   Ni1   S    
N5    Ni4   S    
C36   C46   A    
C10   C35   A    
C17   H13   S    
C26   H34   S    
C65   N15   A    
O11   S1    D    
N8    Ni4   S    
C38   C48   A    
C30   C67   S    
C44   C47   A    
H41   O15   S    
O13   S2    D    
C3    C79   S    
O7    S5    S    
N4    N15   A    
C9    C33   A    
O8    S6    D    
C54   H18   S    
O16   S3    D    
C75   H36   S    
C23   C73   A    
C5    C68   S    
C1    N1    A    
C3    C80   A    
C52   C54   A    
N9    Ni2   S    
C62   H22   S    
C76   N8    A    
C10   S6    S    
C40   C45   A    
C46   C48   A    
C50   C53   A    
C7    C33   A    
C45   C69   A    
C76   H37   S    
C64   C67   A    
C27   F1    S    
C62   C66   A    
N1    Ni1   S    
N8    N9    A    
C4    C6    A    
C25   H23   S    
O9    S6    D    
O2    S4    D    
C39   C43   A    
C44   H6    S    
C58   C59   A    
N3    Ni1   S    
N2    Ni1   S    
C28   F2    S    
C38   H9    S    
C50   C56   S    
C42   H8    S    
C8    C35   A    
C2    C4    A    
C41   C56   A    
C6    C80   A    
C47   C48   A    
C21   H2    S    
C45   C49   S    
N3    N14   A    
O1    S1    D    
H46   O10   S    
C36   C43   A    
H42   O18   S    
C63   H24   S    
C75   C77   A    
C52   C58   A    
C34   C74   A    
C40   H25   S    
N14   Ni4   S    
C11   H45   S    
N16   Ni2   S    
O3    S4    D    
O5    S5    D    
C8    C68   A    
C16   C23   A    
C56   C70   A    
C40   N12   A    
C13   C15   A    
C13   C26   A    
C21   C24   A    
C10   C61   A    
C51   C59   A    
C17   C34   A    
C33   H14   S    
C52   S4    S    
C39   H10   S    
C39   C47   A    
C46   H5    S    
C14   H48   S    
C2    H39   S    
N2    N13   A    
C63   C68   A    
O17   S3    D    
C65   C78   A    
C61   H21   S    
C27   C32   A    
C74   H35   S    
C28   C31   A    
C24   C26   A    
C20   C22   A    
C3    C5    A    
N4    Ni2   S    
H43   O4    S    
N1    N7    A    
O15   S2    S    
N6    Ni3   S    
C1    H1    S    
C50   C55   A    
C73   H33   S    
C17   N11   A    
C9    C60   A    
N10   Ni2   S    
C37   C44   A    
C28   C30   A    
C4    C77   S    
C29   C31   A    
C23   C37   S    
C7    C66   A    
C30   C32   A    
C12   H12   S    
C64   H27   S    
C73   N5    A    
N15   Ni3   S    
N7    Ni3   S    
C34   C36   S    
C9    S5    S    
C18   C20   A    
C70   H30   S    
C57   H16   S    
C65   H28   S    
N13   Ni4   S    
C72   N4    A    
C2    C5    A    
O6    S5    D    
C6    C66   S    
C41   N13   A    
C55   C58   A    
C55   H17   S    
C70   N2    A    
C69   N16   A    
C13   H47   S    
O12   S1    S    
C75   N7    A    
C51   C53   A    
C15   H49   S    
C35   H15   S    
C24   H4    S    
C8    S2    S    
C61   C63   A    
O18   S3    S    
