data_mof_unit_61268.cif
_audit_creation_date              2012-12-10T21:06:12-0500
_audit_creation_method            fapswitch 2.2
_symmetry_space_group_name_H-M    P1
_symmetry_Int_Tables_number       1
_space_group_crystal_system       triclinic
_cell_length_a                    15.069176
_cell_length_b                    15.858403
_cell_length_c                    16.716267
_cell_angle_alpha                 89.535585
_cell_angle_beta                  94.549456
_cell_angle_gamma                 90.050942
_cell_volume                      3982.02017613

loop_
_atom_site_label
_atom_site_type_symbol
_atom_type_description
_atom_site_fract_x
_atom_site_fract_y
_atom_site_fract_z
_atom_type_partial_charge
C1    C     C_R   0.499937 0.338896 0.499966 0.898033
C2    C     C_R   0.500063 0.661104 0.500034 0.898020
C3    C     C_R   0.501117 0.913053 0.500054 -0.027781
C4    C     C_R   0.498883 0.086947 0.499943 -0.027783
C5    C     C_R   0.420075 0.955271 0.501893 -0.255921
C6    C     C_R   0.579924 0.044729 0.498104 -0.255911
C7    C     C_1   0.500608 0.824199 0.500089 0.079848
C8    C     C_1   0.499391 0.175801 0.499909 0.079855
C9    C     C_1   0.499772 0.250584 0.499919 -0.099896
C10   C     C_1   0.500228 0.749417 0.500081 -0.099914
C11   C     C_R   0.957734 0.450467 0.555187 -0.329520
C12   C     C_R   0.042266 0.549533 0.444813 -0.329521
C13   C     C_R   0.905027 0.500146 0.499802 -0.175242
C14   C     C_R   0.094973 0.499854 0.500198 -0.175247
C15   C     C_R   0.948478 0.549776 0.444508 0.722909
C16   C     C_R   0.051522 0.450224 0.555492 0.722919
C17   C     C_1   0.807156 0.500036 0.499912 0.265364
C18   C     C_1   0.192844 0.499964 0.500088 0.265373
C19   C     C_R   0.511504 0.501585 0.653989 0.947529
C20   C     C_R   0.488496 0.498410 0.346011 0.947532
C21   C     C_R   0.518875 0.512303 0.740393 -0.249815
C22   C     C_R   0.481120 0.487642 0.259614 -0.249784
C23   C     C_R   0.450356 0.552678 0.777710 0.584051
C24   C     C_R   0.549614 0.447200 0.222321 0.584009
C25   C     C_R   0.456512 0.560957 0.860576 0.304778
C26   C     C_R   0.543444 0.438851 0.139460 0.304773
C27   C     C_R   0.530837 0.527392 0.906176 0.156673
C28   C     C_R   0.469129 0.472412 0.093844 0.156684
C29   C     C_R   0.601531 0.492563 0.868702 -0.166884
C30   C     C_R   0.398458 0.507309 0.131299 -0.166855
C31   C     C_R   0.595686 0.484895 0.785853 -0.285401
C32   C     C_R   0.404317 0.515048 0.214142 -0.285406
C33   C     C_R   0.581472 0.957266 0.498149 0.429717
C34   C     C_R   0.418528 0.042734 0.501848 0.429717
H1    H     H_    0.659035 0.467583 0.904097 0.219101
H2    H     H_    0.340965 0.532294 0.095891 0.219141
H3    H     H_    0.649723 0.455172 0.757592 0.209300
H4    H     H_    0.350300 0.544823 0.242387 0.209290
H5    H     H_    0.641642 0.079713 0.496649 0.205998
H6    H     H_    0.358358 0.920288 0.503348 0.205994
H7    H     H_    0.926207 0.411663 0.598421 0.204800
H8    H     H_    0.073793 0.588337 0.401579 0.204800
N1    N     N_2   0.532058 0.521071 0.989777 -0.084981
N2    N     N_2   0.467919 0.478705 0.010242 -0.084935
N3    N     N_1   0.270550 0.500020 0.500020 -0.073109
N4    N     N_1   0.729450 0.499980 0.499980 -0.073111
O1    O     O_R   0.573650 0.378020 0.500000 -0.608544
O2    O     O_R   0.426350 0.621980 0.500000 -0.608564
O3    O     O_R   0.426310 0.378020 0.499960 -0.592700
O4    O     O_R   0.573690 0.621980 0.500040 -0.592696
O5    O     O_R   0.581880 0.499230 0.616150 -0.635810
O6    O     O_R   0.418120 0.500770 0.383850 -0.635803
O7    O     O_R   0.434550 0.499230 0.616110 -0.543314
O8    O     O_R   0.565450 0.500770 0.383890 -0.543321
Zn1   Zn    Zn3+2 0.598370 0.500000 0.500020 1.063950
Zn2   Zn    Zn3+2 0.401630 0.500000 0.499980 1.063948
F1    F     F_    0.621830 0.415202 0.266166 -0.586900
F2    F     F_    0.378128 0.584677 0.733882 -0.586874
Cl1   Cl    Cl    0.629407 0.386917 0.093727 -0.460761
Cl2   Cl    Cl    0.370523 0.612826 0.906335 -0.460827
Cl3   Cl    Cl    0.684399 0.905074 0.495806 -0.507422
Cl4   Cl    Cl    0.315601 0.094926 0.504191 -0.507425
F3    F     F_    0.099809 0.401385 0.609934 -0.608058
F4    F     F_    0.900191 0.598615 0.390066 -0.608072

loop_
_geom_bond_atom_site_label_1
_geom_bond_atom_site_label_2
_ccdc_geom_bond_type
N4    Zn1   S    
C8    C9    T    
C23   F2    S    
N1    N2    D    
C12   C15   A    
C16   F3    S    
C32   H4    S    
C7    C10   T    
O3    Zn2   S    
C21   C31   A    
C11   C16   A    
C14   C18   S    
C26   C28   A    
O4    Zn1   S    
C6    C33   A    
C30   H2    S    
C15   F4    S    
C5    C34   A    
C19   O7    A    
C28   C30   A    
C12   C14   A    
O1    Zn1   S    
C20   O6    A    
C17   N4    T    
C30   C32   A    
C11   C13   A    
C22   C32   A    
C33   Cl3   S    
C22   C24   A    
C20   O8    A    
C19   C21   S    
C20   C22   S    
C11   H7    S    
C19   O5    A    
C3    C7    S    
C13   C15   A    
C21   C23   A    
C14   C16   A    
O7    Zn2   S    
C4    C6    A    
C25   C27   A    
C3    C33   A    
C13   C17   S    
C2    C10   S    
C18   N3    T    
C27   N1    S    
C34   Cl4   S    
C23   C25   A    
C1    C9    S    
C27   C29   A    
C29   C31   A    
C26   Cl1   S    
C5    H6    S    
C4    C8    S    
O2    Zn2   S    
C29   H1    S    
C6    H5    S    
C1    O1    A    
C12   H8    S    
C2    O4    A    
O5    Zn1   S    
C2    O2    A    
O8    Zn1   S    
C1    O3    A    
C28   N2    S    
C25   Cl2   S    
C31   H3    S    
O6    Zn2   S    
N3    Zn2   S    
C24   C26   A    
C24   F1    S    
C3    C5    A    
C4    C34   A    
