data_mof_unit_9114.cif
_audit_creation_date              2012-12-10T17:40:31-0500
_audit_creation_method            fapswitch 2.2
_symmetry_space_group_name_H-M    P1
_symmetry_Int_Tables_number       1
_space_group_crystal_system       triclinic
_cell_length_a                    13.896784
_cell_length_b                    15.231436
_cell_length_c                    15.877618
_cell_angle_alpha                 86.369703
_cell_angle_beta                  71.27512
_cell_angle_gamma                 90.615346
_cell_volume                      3174.79709075

loop_
_atom_site_label
_atom_site_type_symbol
_atom_type_description
_atom_site_fract_x
_atom_site_fract_y
_atom_site_fract_z
_atom_type_partial_charge
C1    C     C_R   0.498587 0.671053 0.501321 0.995166
C2    C     C_R   0.501202 0.329040 0.499059 0.984960
C3    C     C_R   0.382293 0.519765 0.089951 -0.130834
C4    C     C_R   0.615179 0.466225 0.911021 -0.124778
C5    C     C_R   0.310573 0.517747 0.046053 -0.076560
C6    C     C_R   0.685886 0.460720 0.955691 -0.089445
C7    C     C_R   0.471599 0.180465 0.582301 0.330577
C8    C     C_R   0.526125 0.820028 0.418209 0.339513
C9    C     C_R   0.506536 0.232410 0.499999 -0.248133
C10   C     C_R   0.492815 0.767863 0.500598 -0.291864
C11   C     C_R   0.558056 0.191047 0.420504 0.247182
C12   C     C_R   0.441376 0.809190 0.580336 0.327161
C13   C     C_R   0.547264 0.098714 0.420024 -0.004995
C14   C     C_R   0.451052 0.901746 0.580631 0.003653
C15   C     C_R   0.501320 0.047002 0.500364 0.018031
C16   C     C_R   0.496836 0.953461 0.500244 0.002178
C17   C     C_R   0.462921 0.088022 0.581237 -0.005458
C18   C     C_R   0.534539 0.912538 0.419252 -0.007841
C19   C     C_R   0.582620 0.056366 0.340348 -0.088097
C20   C     C_R   0.413973 0.944426 0.660092 -0.076964
C21   C     C_R   0.578445 0.965789 0.340182 -0.078382
C22   C     C_R   0.417490 0.035021 0.660073 -0.094661
C23   C     C_R   0.439431 0.504517 0.670977 0.967203
C24   C     C_R   0.560257 0.492758 0.329451 0.949958
C25   C     C_R   0.229253 0.557110 0.442349 0.047208
C26   C     C_R   0.769869 0.452502 0.565007 0.053278
C27   C     C_R   0.179827 0.445230 0.561241 0.490432
C28   C     C_R   0.819782 0.553543 0.435614 0.523797
C29   C     C_R   0.075021 0.458428 0.571879 -0.100040
C30   C     C_R   0.923811 0.553175 0.434580 -0.073421
C31   C     C_R   0.050408 0.507291 0.504898 0.061521
C32   C     C_R   0.947903 0.505772 0.502978 0.050522
C33   C     C_R   0.128448 0.556702 0.439381 -0.010448
C34   C     C_R   0.870090 0.457446 0.569968 -0.002224
C35   C     C_R   0.993720 0.421474 0.645093 -0.057378
C36   C     C_R   0.005294 0.601437 0.368327 -0.050438
C37   C     C_R   0.893599 0.418076 0.642740 -0.131163
C38   C     C_R   0.104423 0.604047 0.371645 -0.176608
C39   C     C_R   0.406797 0.508712 0.768075 -0.201618
C40   C     C_R   0.591746 0.479951 0.233464 -0.194085
C41   C     C_R   0.270265 0.493569 0.909097 0.359364
C42   C     C_R   0.727415 0.466382 0.094569 0.373248
C43   C     C_R   0.304821 0.490502 0.816860 -0.233223
C44   C     C_R   0.695003 0.479848 0.185142 -0.182085
C45   C     C_R   0.476883 0.526808 0.813128 0.308691
C46   C     C_R   0.519763 0.463844 0.189820 0.312465
C47   C     C_R   0.446081 0.507354 0.906404 -0.056491
C48   C     C_R   0.551614 0.477683 0.095743 -0.067018
C49   C     C_R   0.340909 0.505221 0.954628 -0.023542
C50   C     C_R   0.656311 0.469263 0.047894 -0.011587
C51   C     C_R   0.515722 0.491657 0.953914 0.140005
C52   C     C_R   0.482557 0.495210 0.047703 0.115144
Cu1   Cu    Cu3+1 0.402580 0.500010 0.499990 1.137906
Cu2   Cu    Cu3+1 0.597420 0.499990 0.500010 1.137621
H1    H     H_    0.232310 0.528849 0.083763 0.202984
H2    H     H_    0.763143 0.448105 0.916819 0.203394
H3    H     H_    0.287651 0.598892 0.394560 0.184048
H4    H     H_    0.711488 0.413269 0.615641 0.172759
H5    H     H_    0.006096 0.397458 0.706065 0.215940
H6    H     H_    0.996371 0.638831 0.311877 0.226674
H7    H     H_    0.834294 0.385999 0.698738 0.156478
H8    H     H_    0.162905 0.642153 0.319761 0.163510
H9    H     H_    0.750275 0.485136 0.219421 0.245100
H10   H     H_    0.251434 0.476681 0.782306 0.220066
H11   H     H_    0.358223 0.538925 0.157436 0.191804
H12   H     H_    0.638813 0.449104 0.842760 0.175382
H13   H     H_    0.613185 0.092319 0.276170 0.236233
H14   H     H_    0.382092 0.908914 0.724315 0.228581
H15   H     H_    0.611547 0.938889 0.276384 0.225918
H16   H     H_    0.382653 0.062248 0.723482 0.224428
N1    N     N_R   0.256170 0.500070 0.500040 -0.236285
N2    N     N_R   0.743830 0.499930 0.499960 -0.247687
O1    O     O_R   0.417730 0.629750 0.499970 -0.543879
O2    O     O_R   0.582270 0.370250 0.500030 -0.552997
O3    O     O_R   0.582270 0.629730 0.499980 -0.525313
O4    O     O_R   0.417730 0.370270 0.500020 -0.498279
O5    O     O_R   0.371590 0.500020 0.629830 -0.549564
O6    O     O_R   0.628410 0.499980 0.370170 -0.530437
O7    O     O_R   0.536130 0.499990 0.629840 -0.553882
O8    O     O_R   0.463870 0.500010 0.370160 -0.548470
S1    S     S_3+6 0.207652 0.339483 0.602850 0.046061
O9    O     O_2   0.255800 0.286328 0.524382 -0.250702
O10   O     O_2   0.277851 0.349851 0.656208 -0.250292
O11   O     O_3   0.106051 0.278555 0.667446 -0.531290
H17   H     H_    0.134186 0.223504 0.685052 0.404661
S2    S     S_3+6 0.798959 0.632925 0.353473 0.033402
O12   O     O_2   0.694675 0.648162 0.350481 -0.215037
O13   O     O_2   0.840702 0.720642 0.366774 -0.287840
O14   O     O_3   0.866749 0.602569 0.252007 -0.602749
H18   H     H_    0.868710 0.654512 0.210578 0.397390
S3    S     S_3+6 0.410763 0.392620 0.244656 0.054998
O15   O     O_2   0.388517 0.336710 0.177952 -0.225519
O16   O     O_2   0.430237 0.333086 0.316086 -0.229458
O17   O     O_3   0.307854 0.450508 0.292639 -0.581017
H19   H     H_    0.252050 0.405867 0.318562 0.389963
S4    S     S_3+6 0.583399 0.601569 0.762128 0.029223
O18   O     O_2   0.677705 0.552717 0.718978 -0.343927
O19   O     O_2   0.563489 0.662582 0.691949 -0.233594
O20   O     O_3   0.603575 0.662068 0.840282 -0.491947
H20   H     H_    0.666016 0.698103 0.808729 0.394490
S5    S     S_3+6 0.139807 0.474462 0.965028 0.089135
O21   O     O_2   0.125526 0.406548 0.041301 -0.176169
O22   O     O_2   0.094559 0.559157 0.000497 -0.285593
O23   O     O_3   0.081858 0.437529 0.895273 -0.418083
H21   H     H_    0.074855 0.490223 0.858046 0.359979
S6    S     S_3+6 0.857549 0.450218 0.042539 0.105101
O24   O     O_2   0.871495 0.368915 0.991504 -0.189093
O25   O     O_2   0.901444 0.528907 0.979188 -0.271084
O26   O     O_3   0.917315 0.437663 0.119132 -0.401795
H22   H     H_    0.935049 0.498074 0.129743 0.394312
S7    S     S_3+6 0.461345 0.225496 0.686458 0.021906
O27   O     O_2   0.351604 0.225836 0.743237 -0.223699
O28   O     O_2   0.517227 0.167641 0.734250 -0.280788
O29   O     O_3   0.512591 0.327099 0.675167 -0.560646
H23   H     H_    0.519722 0.337008 0.733989 0.360599
S8    S     S_3+6 0.534299 0.775516 0.314188 0.027662
O30   O     O_2   0.473727 0.831769 0.269667 -0.279281
O31   O     O_2   0.643143 0.778838 0.254597 -0.230697
O32   O     O_3   0.487387 0.672400 0.324915 -0.552284
H24   H     H_    0.483357 0.661133 0.265334 0.360324
S9    S     S_3+6 0.653169 0.247630 0.326996 0.034028
O33   O     O_2   0.612883 0.261555 0.250181 -0.211725
O34   O     O_2   0.690096 0.334249 0.346404 -0.287412
O35   O     O_3   0.755267 0.184290 0.294547 -0.468648
H25   H     H_    0.777690 0.175377 0.347645 0.360087
S10   S     S_3+6 0.347193 0.752472 0.674450 0.014147
O36   O     O_2   0.253005 0.805877 0.698547 -0.258564
O37   O     O_2   0.316689 0.662696 0.657323 -0.302406
O38   O     O_3   0.389550 0.744776 0.762556 -0.491187
H26   H     H_    0.335916 0.710162 0.809987 0.381148

loop_
_geom_bond_atom_site_label_1
_geom_bond_atom_site_label_2
_ccdc_geom_bond_type
C30   C32   A    
S5    O21   D    
C27   C29   A    
C34   C37   A    
C26   N2    A    
S7    O27   D    
S1    O9    D    
C27   N1    A    
C47   C49   A    
C3    H11   S    
Cu1   Cu2   S    
C40   C46   A    
S10   O36   D    
C25   H3    S    
C35   C37   A    
O38   H26   S    
C20   H14   S    
S2    O13   D    
C12   S10   S    
S6    O24   D    
C15   C16   A    
C18   C21   A    
S4    O20   S    
S8    O30   D    
C35   H5    S    
S9    O35   S    
Cu2   O2    S    
C26   C34   A    
O20   H20   S    
S8    O31   D    
C7    C17   A    
S4    O19   D    
C31   C33   A    
C19   H13   S    
C25   N1    A    
C2    O2    A    
C39   C45   A    
C48   C50   A    
S5    O22   D    
C41   C43   A    
C5    C49   A    
C11   S9    S    
C42   C44   A    
C41   C49   A    
O23   H21   S    
S1    O10   D    
C24   O8    A    
C43   H10   S    
O29   H23   S    
C45   C47   A    
C44   H9    S    
C46   C48   A    
C13   C19   A    
C4    C51   A    
C51   C52   A    
C1    O3    A    
C14   C20   A    
C27   S1    S    
Cu1   O8    S    
O11   H17   S    
C4    C6    A    
S3    O15   D    
S2    O12   D    
C39   C43   A    
C46   S3    S    
S10   O38   S    
C36   H6    S    
C38   H8    S    
C6    C50   A    
C21   H15   S    
C32   C34   A    
C2    C9    S    
Cu1   O5    S    
S3    O16   D    
C9    C11   A    
C37   H7    S    
C31   C32   A    
C40   C44   A    
C3    C52   A    
S4    O18   D    
S7    O28   D    
C16   C18   A    
C23   O5    A    
C26   H4    S    
S9    O33   D    
C10   C12   A    
C42   C50   A    
C24   O6    A    
C12   C14   A    
S5    O23   S    
C13   C15   A    
C28   S2    S    
C14   C16   A    
Cu1   O4    S    
C20   C22   A    
Cu1   N1    S    
S1    O11   S    
C2    O4    A    
Cu2   O7    S    
C41   S5    S    
C15   C17   A    
S10   O37   D    
C19   C21   A    
C5    H1    S    
Cu1   O1    S    
C1    C10   S    
C33   C38   A    
C6    H2    S    
C3    C5    A    
S2    O14   S    
C47   C51   A    
O32   H24   S    
C29   C35   A    
C17   C22   A    
S8    O32   S    
C30   C36   A    
C1    O1    A    
C36   C38   A    
C29   C31   A    
O26   H22   S    
C28   N2    A    
S3    O17   S    
C4    H12   S    
C11   C13   A    
S6    O25   D    
C23   C39   S    
C28   C30   A    
C24   C40   S    
C7    S7    S    
S7    O29   S    
O17   H19   S    
C8    C18   A    
S9    O34   D    
C8    S8    S    
Cu2   O3    S    
C42   S6    S    
C7    C9    A    
C48   C52   A    
Cu2   N2    S    
C8    C10   A    
C23   O7    A    
O14   H18   S    
C45   S4    S    
C22   H16   S    
C25   C33   A    
O35   H25   S    
Cu2   O6    S    
S6    O26   S    
