data_mof_unit_25971.cif
_audit_creation_date              2012-12-11T14:23:08-0500
_audit_creation_method            fapswitch 2.2
_symmetry_space_group_name_H-M    P1
_symmetry_Int_Tables_number       1
_space_group_crystal_system       triclinic
_cell_length_a                    10.972305
_cell_length_b                    11.102228
_cell_length_c                    18.790722
_cell_angle_alpha                 89.915061
_cell_angle_beta                  89.488631
_cell_angle_gamma                 60.358174
_cell_volume                      1989.38350078

loop_
_atom_site_label
_atom_site_type_symbol
_atom_type_description
_atom_site_fract_x
_atom_site_fract_y
_atom_site_fract_z
_atom_type_partial_charge
Br1   Br    Br    0.560558 0.479707 0.716427 -0.557988
Br2   Br    Br    0.242999 0.031930 0.791619 -0.739765
Br3   Br    Br    0.932276 0.995585 0.212560 -0.565422
C1    C     C_R   0.240421 0.643340 0.610992 0.556367
C2    C     C_R   0.563565 0.173215 0.714755 -0.120118
C3    C     C_R   0.573243 0.175563 0.786844 -0.117095
C4    C     C_R   0.655060 0.622299 0.600689 0.574840
C5    C     C_R   0.947635 0.100526 0.804787 -0.070451
C6    C     C_R   0.058690 0.079838 0.758782 0.104518
C7    C     C_R   0.042536 0.080224 0.685686 -0.117024
C8    C     C_R   0.919137 0.097942 0.657377 -0.115978
C9    C     C_R   0.673172 0.159002 0.671112 0.017169
C10   C     C_R   0.198841 0.654696 0.838712 -0.008141
C11   C     C_R   0.207713 0.540518 0.801950 0.041222
C12   C     C_3   0.605493 0.660140 0.804457 -0.188741
C13   C     C_R   0.200456 0.542426 0.726155 0.042701
C14   C     C_R   0.221758 0.748983 0.727765 -0.121470
C15   C     C_R   0.221416 0.747841 0.801370 -0.129933
C16   C     C_R   0.630845 0.222591 0.600649 0.579854
C17   C     C_R   0.213733 0.429243 0.839669 -0.099251
C18   C     C_R   0.182447 0.338336 0.806352 -0.114632
C19   C     C_R   0.167750 0.341365 0.732664 -0.137526
C20   C     C_R   0.179970 0.440199 0.692518 -0.118772
C21   C     C_R   0.207879 0.649868 0.688234 0.013548
C22   C     C_R   0.656133 0.676339 0.170034 -0.010678
C23   C     C_3   0.725708 0.693757 0.807571 0.018322
C24   C     C_R   0.720332 0.542714 0.199292 0.013024
C25   C     C_R   0.754046 0.528460 0.271757 0.051921
C26   C     C_R   0.600529 0.776351 0.288933 -0.137146
C27   C     C_R   0.604224 0.792332 0.215636 -0.139259
C28   C     C_R   0.224470 0.650912 0.400475 0.515241
C29   C     C_R   0.775388 0.423820 0.155361 -0.084613
C30   C     C_R   0.893011 0.303132 0.176440 -0.030321
C31   C     C_R   0.942697 0.292937 0.245046 -0.113614
C32   C     C_R   0.872822 0.402428 0.292961 -0.083108
C33   C     C_R   0.672810 0.644126 0.318064 0.037090
C34   C     C_3   0.680159 0.654662 0.674676 0.056638
C35   C     C_R   0.640405 0.181843 0.171123 0.006782
C36   C     C_R   0.500116 0.260873 0.195079 -0.040650
C37   C     C_R   0.474641 0.287535 0.268869 -0.008352
C38   C     C_R   0.722548 0.202731 0.286029 -0.105693
C39   C     C_R   0.748800 0.145870 0.220054 0.117119
C40   C     C_R   0.645609 0.620483 0.392151 0.536660
C41   C     C_R   0.385655 0.297662 0.149258 -0.095397
C42   C     C_R   0.257650 0.319306 0.176718 0.236364
C43   C     C_R   0.239934 0.322693 0.250072 -0.084717
C44   C     C_R   0.341147 0.319216 0.295192 -0.146841
C45   C     C_3   0.831027 0.547529 0.697408 -0.220880
C46   C     C_R   0.588014 0.269214 0.312965 -0.012357
C47   C     C_R   0.151612 0.664096 0.181906 -0.019596
C48   C     C_R   0.235120 0.716012 0.209064 0.018065
C49   C     C_R   0.219525 0.751123 0.281355 0.039403
C50   C     C_R   0.088064 0.628454 0.301208 0.201049
C51   C     C_R   0.074686 0.626069 0.228016 -0.037547
C52   C     C_R   0.576297 0.298026 0.388790 0.558832
C53   C     C_R   0.302186 0.766246 0.162938 -0.067498
C54   C     C_R   0.312236 0.881408 0.182495 -0.075544
C55   C     C_R   0.277924 0.932360 0.251477 -0.116258
C56   C     C_3   0.572835 0.646567 0.726550 0.027451
C57   C     C_R   0.236212 0.866152 0.301161 -0.043358
C58   C     C_R   0.169371 0.682831 0.328396 0.010943
C59   C     C_R   0.705749 0.098091 0.894640 0.517315
C60   C     C_R   0.754783 0.709799 0.883046 0.545597
C61   C     C_R   0.122533 0.703331 0.907288 0.512060
C62   C     C_R   0.674346 0.108169 0.103406 0.559973
C63   C     C_R   0.695420 0.691448 0.097563 0.537571
C64   C     C_3   0.684667 0.826328 0.762573 -0.246972
C65   C     C_R   0.094936 0.707253 0.111443 0.556233
C66   C     C_3   0.663941 0.801022 0.683037 -0.275020
C67   C     C_R   0.699353 0.143815 0.820138 0.005347
C68   C     C_3   0.858209 0.573704 0.773526 -0.235907
C69   C     C_R   0.817485 0.122977 0.777022 0.011615
C70   C     C_R   0.803434 0.126355 0.701416 0.034538
Cr1   Cr    Cr6+3 0.392940 0.397950 0.502230 1.005027
Cr2   Cr    Cr6+3 0.398400 0.708500 0.501260 1.008089
Cr3   Cr    Cr6+3 0.708640 0.393530 0.496460 1.012897
Cr4   Cr    Cr6+3 0.937880 0.938320 0.007620 1.037860
Cr5   Cr    Cr6+3 0.625560 0.937220 0.994510 1.022141
Cr6   Cr    Cr6+3 0.938080 0.625010 0.001190 1.012528
H1    H     H_    0.767649 0.855873 0.766344 0.113429
H2    H     H_    0.585678 0.913979 0.783930 0.182023
H3    H     H_    0.234815 0.415857 0.896131 0.130484
H4    H     H_    0.231317 0.823306 0.831560 0.202951
H5    H     H_    0.160873 0.273338 0.840314 0.184437
H6    H     H_    0.139886 0.272270 0.706334 0.160725
H7    H     H_    0.158379 0.442157 0.636613 0.132971
H8    H     H_    0.545453 0.866741 0.322843 0.128868
H9    H     H_    0.738641 0.429215 0.101484 0.115943
H10   H     H_    0.564238 0.895879 0.194538 0.148990
H11   H     H_    0.945834 0.217827 0.139348 0.173294
H12   H     H_    0.893957 0.475922 0.803846 0.165952
H13   H     H_    0.034612 0.199045 0.261726 0.130176
H14   H     H_    0.558261 0.881973 0.665341 0.142803
H15   H     H_    0.922465 0.389154 0.343843 0.169575
H16   H     H_    0.811857 0.175259 0.319918 0.174091
H17   H     H_    0.397060 0.301983 0.092229 0.116364
H18   H     H_    0.142008 0.341816 0.272788 0.160820
H19   H     H_    0.311211 0.336981 0.350202 0.188290
H20   H     H_    0.327112 0.730318 0.108346 0.108138
H21   H     H_    0.000843 0.597105 0.207212 0.194833
H22   H     H_    0.742692 0.809928 0.649079 0.114648
H23   H     H_    0.848613 0.439896 0.693887 0.185745
H24   H     H_    0.345787 0.931755 0.143897 0.128713
H25   H     H_    0.284662 0.022883 0.266693 0.099995
H26   H     H_    0.201803 0.918401 0.351774 0.146729
H27   H     H_    0.941759 0.601882 0.774098 0.138530
H28   H     H_    0.907067 0.554746 0.660742 0.110774
H29   H     H_    0.635901 0.562993 0.834514 0.168844
H30   H     H_    0.509260 0.743331 0.830663 0.160837
H31   H     H_    0.468343 0.734590 0.714189 0.162863
H32   H     H_    0.177877 0.333508 0.083151 0.318397
H33   H     H_    0.015026 0.612168 0.393466 0.331694
H34   H     H_    0.463116 0.195471 0.693626 0.171103
H35   H     H_    0.964923 0.101819 0.861012 0.173397
H36   H     H_    0.480705 0.194429 0.816734 0.172764
H37   H     H_    0.129127 0.060047 0.650318 0.135979
H38   H     H_    0.916861 0.085790 0.600414 0.126951
H39   H     H_    0.239270 0.825098 0.701457 0.177043
O1    O     O_R   0.507340 0.255690 0.581430 -0.516905
O2    O     O_R   0.837290 0.593240 0.915240 -0.528361
O3    O     O_R   0.065320 0.635310 0.931580 -0.531842
O4    O     O_R   0.280360 0.527380 0.578910 -0.498539
O5    O     O_R   0.068470 0.828620 0.091850 -0.463364
O6    O     O_R   0.799150 0.057200 0.079350 -0.459674
O7    O     O_R   0.585220 0.080180 0.076770 -0.536493
O8    O     O_R   0.627170 0.809480 0.067050 -0.507416
O9    O     O_R   0.816200 0.596410 0.076500 -0.491016
O10   O     O_R   0.045770 0.638240 0.081070 -0.500035
O11   O     O_3   0.833840 0.833520 0.001110 -0.266831
O12   O     O_R   0.524510 0.695820 0.424050 -0.507591
O13   O     O_R   0.260600 0.739610 0.584580 -0.524624
O14   O     O_R   0.532370 0.695050 0.573830 -0.494642
O15   O     O_R   0.744850 0.503430 0.576380 -0.510736
O16   O     O_R   0.699080 0.276500 0.571950 -0.478166
O17   O     O_R   0.498860 0.256520 0.419860 -0.534268
O18   O     O_R   0.272490 0.528150 0.429140 -0.533607
O19   O     O_R   0.252110 0.740440 0.423010 -0.539321
O20   O     O_3   0.148151 0.339403 0.133614 -0.701180
O21   O     O_3   0.015743 0.582870 0.343662 -0.737573
O22   O     O_R   0.736370 0.504260 0.414810 -0.544186
O23   O     O_R   0.691220 0.277270 0.422180 -0.520185
O24   O     O_3   0.499990 0.499990 0.499980 -0.256548
O25   O     O_R   0.089570 0.825450 0.930590 -0.520448
O26   O     O_R   0.818700 0.054260 0.929860 -0.520630
O27   O     O_R   0.606310 0.077010 0.915520 -0.530182
O28   O     O_R   0.646730 0.806540 0.917560 -0.496081

loop_
_geom_bond_atom_site_label_1
_geom_bond_atom_site_label_2
_ccdc_geom_bond_type
C37   C44   A    
Cr6   O10   S    
Br3   C39   S    
C52   O23   A    
C17   H3    S    
C38   C39   A    
C12   H30   S    
C38   H16   S    
C50   C51   A    
C63   O9    A    
C16   O16   A    
Cr1   O1    S    
Cr6   O3    S    
C26   C33   A    
C47   C51   A    
C44   H19   S    
C10   C15   A    
C41   H17   S    
C23   C64   S    
C18   C19   A    
Cr5   O11   S    
C4    O15   A    
C66   H14   S    
C49   C58   A    
Br1   C56   S    
C35   C36   A    
C1    C21   S    
C62   O6    A    
C45   H28   S    
C55   C57   A    
C37   C46   A    
Cr6   O11   S    
C56   H31   S    
C53   C54   A    
C59   C67   S    
C14   C15   A    
C48   C53   A    
C19   H6    S    
C28   C58   S    
Cr2   O14   S    
C49   C57   A    
Cr5   O27   S    
C50   C58   A    
C25   C32   A    
C5    C6    A    
C20   H7    S    
Cr1   O18   S    
C18   H5    S    
C28   O19   A    
C6    C7    A    
C65   O10   A    
C60   O28   A    
Cr2   O12   S    
C5    H35   S    
Cr3   O23   S    
Cr1   O24   S    
C16   O1    A    
C13   C21   A    
C9    C70   A    
Cr6   O2    S    
C23   C68   S    
H33   O21   S    
C51   H21   S    
C27   H10   S    
C65   O5    A    
C38   C46   A    
Cr2   O13   S    
C30   C31   A    
C1    O13   A    
Cr3   O22   S    
C54   H24   S    
C5    C69   A    
C14   C21   A    
C64   H1    S    
C48   C49   A    
C11   C17   A    
C2    C9    A    
Cr2   O19   S    
C36   C37   A    
Cr3   O16   S    
C69   C70   A    
C12   C23   S    
C47   C48   A    
C42   C43   A    
C59   O27   A    
C63   O8    A    
C64   C66   S    
C62   O7    A    
C12   H29   S    
C23   C60   S    
Cr4   O25   S    
C26   C27   A    
Cr4   O5    S    
Cr2   O24   S    
C34   C66   S    
C35   C62   S    
C31   C32   A    
C45   H23   S    
Cr1   O17   S    
C15   H4    S    
C4    C34   S    
C1    O4    A    
C40   O22   A    
Cr4   O11   S    
C34   C45   S    
C4    O14   A    
C34   C56   S    
C14   H39   S    
Cr1   O4    S    
C43   H18   S    
C64   H2    S    
C13   C20   A    
C8    C70   A    
C11   C13   A    
C55   H25   S    
C45   C68   S    
Cr5   O8    S    
C7    H37   S    
C41   C42   A    
C32   H15   S    
C22   C27   A    
C3    C67   A    
Cr6   O9    S    
C43   C44   A    
C2    H34   S    
C24   C29   A    
C50   O21   S    
C12   C56   S    
C40   O12   A    
C22   C63   S    
C59   O26   A    
C28   O18   A    
Cr3   O15   S    
C35   C39   A    
C36   C41   A    
C61   O25   A    
C66   H22   S    
C22   C24   A    
C29   C30   A    
Cr4   O26   S    
Cr4   O6    S    
C46   C52   S    
C30   H11   S    
C60   O2    A    
Cr5   O7    S    
C54   C55   A    
C2    C3    A    
C10   C61   S    
C52   O17   A    
C9    C16   S    
C42   O20   S    
C31   H13   S    
C3    H36   S    
C26   H8    S    
C7    C8    A    
Cr5   O28   S    
C68   H12   S    
C17   C18   A    
C25   C33   A    
C68   H27   S    
C24   C25   A    
C19   C20   A    
C33   C40   S    
C67   C69   A    
C53   H20   S    
C10   C11   A    
Br2   C6    S    
C47   C65   S    
C8    H38   S    
C57   H26   S    
C61   O3    A    
H32   O20   S    
Cr3   O24   S    
C29   H9    S    
