data_mof_unit_43361.cif
_audit_creation_date              2013-03-05T15:45:12-0500
_audit_creation_method            fapswitch 2.2
_symmetry_space_group_name_H-M    P1
_symmetry_Int_Tables_number       1
_space_group_crystal_system       triclinic
_cell_length_a                    11.60766
_cell_length_b                    11.664669
_cell_length_c                    19.557823
_cell_angle_alpha                 90.544522
_cell_angle_beta                  89.89154
_cell_angle_gamma                 59.712215
_cell_volume                      2286.48772165

loop_
_atom_site_label
_atom_site_type_symbol
_atom_site_description
_atom_site_fract_x
_atom_site_fract_y
_atom_site_fract_z
_atom_type_partial_charge
O1    O     O_R   0.267740 0.231990 0.575440 -0.499918
O2    O     O_R   0.527280 0.186680 0.570530 -0.500327
C1    C     C_R   0.640193 0.116965 0.599276 0.540257
O3    O     O_R   0.728090 0.003480 0.576380 -0.502399
O4    O     O_R   0.682970 0.789220 0.570490 -0.504754
C2    C     C_R   0.612115 0.746801 0.598648 0.545688
O5    O     O_R   0.499290 0.771920 0.575530 -0.495127
O6    O     O_R   0.285330 0.030900 0.569730 -0.493980
C3    C     C_R   0.241696 0.145189 0.598156 0.549689
O7    O     O_R   0.270980 0.227040 0.423900 -0.450457
O8    O     O_R   0.530280 0.182090 0.430050 -0.454566
C4    C     C_R   0.645980 0.116663 0.404746 0.607776
O9    O     O_R   0.731330 0.998530 0.424830 -0.428641
O10   O     O_R   0.685970 0.784630 0.430010 -0.481528
C5    C     C_R   0.619950 0.735451 0.404445 0.595110
O11   O     O_R   0.502530 0.766960 0.423990 -0.457577
O12   O     O_R   0.288330 0.026310 0.429250 -0.468595
C6    C     C_R   0.243416 0.139432 0.401586 0.598018
Cr1   Cr    Cr6+3 0.404720 0.198220 0.499960 1.144290
Cr2   Cr    Cr6+3 0.698290 0.897110 0.500380 1.118419
Cr3   Cr    Cr6+3 0.396970 0.904720 0.499610 1.129022
O13   O     O_3   0.499990 0.000020 0.499980 -0.302368
C7    C     C_1   0.670567 0.645810 0.860069 0.012812
C8    C     C_1   0.654529 0.683989 0.728379 -0.025475
C9    C     C_1   0.663450 0.666356 0.799653 -0.026304
C10   C     C_1   0.640891 0.704604 0.667975 0.014944
C11   C     C_1   0.126252 0.199339 0.859279 0.012664
C12   C     C_1   0.171547 0.170807 0.727674 -0.025611
C13   C     C_1   0.149933 0.182830 0.798913 -0.026009
C14   C     C_1   0.195596 0.161275 0.667342 0.014412
C15   C     C_1   0.679047 0.191589 0.860741 0.013068
C16   C     C_1   0.658508 0.167112 0.729007 -0.024841
C17   C     C_1   0.665991 0.181014 0.800327 -0.025482
C18   C     C_1   0.652698 0.149432 0.668631 0.015910
C19   C     C_R   0.651837 0.564980 0.320388 0.007634
C20   C     C_R   0.627347 0.549589 0.251777 -0.066927
C21   C     C_R   0.679026 0.601735 0.202408 -0.049649
C22   C     C_R   0.689132 0.712848 0.219168 0.260273
C23   C     C_R   0.675197 0.752287 0.286787 0.248229
C24   C     C_R   0.661784 0.675842 0.337805 -0.017714
C25   C     C_R   0.103327 0.292418 0.312345 0.033514
C26   C     C_R   0.097502 0.317833 0.242214 -0.014191
C27   C     C_R   0.140305 0.210884 0.194270 -0.044566
C28   C     C_R   0.215626 0.079092 0.215304 0.041672
C29   C     C_R   0.228882 0.053182 0.286094 0.035543
C30   C     C_R   0.179537 0.160489 0.334231 -0.010673
C31   C     C_R   0.793767 0.103311 0.311425 0.205836
C32   C     C_R   0.805710 0.100612 0.240355 0.203941
C33   C     C_R   0.693042 0.185539 0.199495 -0.051420
C34   C     C_R   0.568635 0.256609 0.229521 -0.117797
H1    H     H_    0.482653 0.315093 0.197899 0.203900
C35   C     C_R   0.553064 0.253125 0.299748 0.184843
C36   C     C_R   0.665740 0.167593 0.340371 -0.007570
O14   O     O_R   0.821500 0.119550 0.952820 -0.493146
O15   O     O_R   0.037130 0.162750 0.957360 -0.490215
C37   C     C_R   0.080994 0.231805 0.928590 0.556489
O16   O     O_R   0.056440 0.344950 0.951330 -0.498234
O17   O     O_R   0.797900 0.560570 0.957460 -0.485440
C38   C     C_R   0.684107 0.603767 0.929426 0.565491
O18   O     O_R   0.596140 0.579600 0.952720 -0.496961
O19   O     O_R   0.639070 0.321380 0.958660 -0.494848
C39   C     C_R   0.708710 0.207203 0.930071 0.554901
O20   O     O_R   0.821240 0.124490 0.104360 -0.449249
O21   O     O_R   0.036900 0.167320 0.097830 -0.478741
C40   C     C_R   0.081249 0.239495 0.125758 0.557901
O22   O     O_R   0.056190 0.349890 0.102870 -0.485982
O23   O     O_R   0.797670 0.565150 0.097930 -0.443712
C41   C     C_R   0.706638 0.552633 0.132980 0.552938
O24   O     O_R   0.595880 0.584540 0.104260 -0.443896
O25   O     O_R   0.638830 0.325960 0.099140 -0.486199
C42   C     C_R   0.711885 0.211562 0.128335 0.560277
Cr4   Cr    Cr6+3 0.926180 0.152240 0.028110 1.111441
Cr5   Cr    Cr6+3 0.921340 0.452070 0.027460 1.107581
Cr6   Cr    Cr6+3 0.626260 0.447120 0.028700 1.079172
O26   O     O_3   0.824590 0.350480 0.028090 -0.327503
C43   C     C_2   0.647778 0.478907 0.374378 0.596029
O27   O     O_2   0.551855 0.519890 0.413040 -0.432774
O28   O     O_R   0.758488 0.353555 0.383763 -0.669797
H2    H     H_    0.748897 0.310084 0.426333 0.357979
N1    N     N_R   0.929216 0.000971 0.210353 0.137166
O29   O     O_R   0.932964 0.905764 0.173570 -0.197424
O30   O     O_R   0.040205 0.987683 0.232097 -0.301229
N2    N     N_R   0.420844 0.333193 0.327617 0.132388
O31   O     O_R   0.399290 0.410520 0.380327 -0.223808
O32   O     O_R   0.319439 0.350614 0.291910 -0.297059
C44   C     C_2   0.499820 0.547863 0.239348 0.620704
O33   O     O_2   0.422719 0.570494 0.286992 -0.405279
O34   O     O_R   0.459366 0.532614 0.174592 -0.662138
H3    H     H_    0.366203 0.545388 0.174241 0.357338
N3    N     N_R   0.698404 0.794517 0.167409 0.132670
O35   O     O_R   0.595478 0.910240 0.154784 -0.256229
O36   O     O_R   0.814500 0.765920 0.143396 -0.227778
N4    N     N_R   0.668803 0.874040 0.302570 0.092568
O37   O     O_R   0.552863 0.980291 0.311646 -0.362627
O38   O     O_R   0.771265 0.884464 0.286531 -0.253499
C45   C     C_2   0.038531 0.402635 0.364149 0.629957
O39   O     O_2   0.970621 0.395450 0.409873 -0.489065
O40   O     O_R   0.062306 0.508868 0.363670 -0.567785
H4    H     H_    0.013683 0.575376 0.401997 0.352020
C46   C     C_2   0.062428 0.453319 0.220015 0.699441
O41   O     O_2   0.959363 0.550002 0.239674 -0.488860
O42   O     O_R   0.150905 0.470000 0.178331 -0.619071
H5    H     H_    0.117177 0.566618 0.167493 0.371053
C47   C     C_2   0.279947 0.971340 0.161932 0.662088
O43   O     O_2   0.331954 0.988877 0.111729 -0.466915
O44   O     O_R   0.277493 0.853133 0.167229 -0.589628
H6    H     H_    0.321903 0.791102 0.126754 0.359923
C48   C     C_2   0.290002 0.914395 0.309151 0.701003
O45   O     O_2   0.397053 0.830538 0.285615 -0.504080
O46   O     O_R   0.223323 0.878895 0.356392 -0.559983
H7    H     H_    0.274841 0.781097 0.367869 0.391337
N5    N     N_R   0.909163 0.023245 0.352905 0.134357
O47   O     O_R   0.936268 0.076283 0.404623 -0.313135
O48   O     O_R   0.976032 0.894732 0.345122 -0.174922

loop_
_geom_bond_atom_site_label_1
_geom_bond_atom_site_label_2
_geom_bond_distance
_ccdc_geom_bond_type
O15   C37   1.282924 A    
N4    O37   1.300467 A    
C11   C13   1.203167 T    
C25   C26   1.400582 A    
C19   C20   1.400712 A    
C47   O44   1.398234 S    
C28   C47   1.500798 S    
O4    Cr2   1.937330 S    
C2    C10   1.428576 S    
C29   C30   1.426020 A    
C48   O45   1.214912 D    
C7    C38   1.428614 S    
C4    O9    1.292038 A    
O8    Cr1   1.933912 S    
O11   Cr3   2.057375 S    
C43   O28   1.390602 S    
C20   C21   1.427978 A    
C8    C10   1.202581 T    
O4    C2    1.280042 A    
C44   O34   1.392255 S    
C25   C45   1.497368 S    
O44   H6    1.013547 S    
C5    O11   1.276303 A    
C21   C41   1.439793 S    
C37   O16   1.276651 A    
O16   Cr5   2.053473 S    
O46   H7    1.013231 S    
N5    O47   1.300187 A    
C23   N4    1.415288 S    
C31   C32   1.395088 A    
C41   O24   1.277087 A    
C45   O40   1.398901 S    
O25   Cr6   1.935556 S    
C34   C35   1.388638 A    
C25   C30   1.405274 A    
C15   C17   1.204594 T    
O25   C42   1.304110 A    
O23   Cr5   1.936007 S    
O15   Cr4   1.934954 S    
C29   C48   1.477873 S    
C31   C36   1.398556 A    
O34   H3    1.014491 S    
O21   Cr4   1.942192 S    
C38   O18   1.273056 A    
N4    O38   1.293408 A    
Cr3   O13   2.001635 S    
Cr5   O26   2.002058 S    
C15   C39   1.432003 S    
O42   H5    1.013976 S    
Cr4   O26   1.996814 S    
C6    C30   1.473644 S    
N5    O48   1.301683 A    
C47   O43   1.223298 D    
C34   H1    1.080540 S    
C19   C43   1.480849 S    
O1    Cr1   2.052036 S    
Cr6   O26   1.988144 S    
O23   C41   1.327608 A    
O10   Cr2   1.947241 S    
Cr1   O13   1.997275 S    
O1    C3    1.276994 A    
C8    C9    1.407378 S    
N1    O30   1.290941 A    
C23   C24   1.404054 A    
C44   O33   1.221792 D    
O6    C3    1.283216 A    
O14   C39   1.272021 A    
C1    C18   1.432071 S    
C20   C44   1.510665 S    
O17   C38   1.279006 A    
O5    Cr3   2.051718 S    
O22   Cr5   2.050909 S    
O12   Cr3   1.932626 S    
C16   C18   1.204618 T    
C35   N2    1.437421 S    
C27   C28   1.398063 A    
C21   C22   1.395176 A    
C26   C46   1.488829 S    
N3    O36   1.299641 A    
N2    O31   1.301018 A    
O7    Cr1   2.056131 S    
C27   C40   1.469003 S    
C45   O39   1.222094 D    
C46   O42   1.399528 S    
O12   C6    1.275312 A    
O24   Cr6   2.064103 S    
C43   O27   1.221924 D    
C3    C14   1.429565 S    
C32   C33   1.429187 A    
N2    O32   1.295773 A    
O20   C42   1.245373 A    
O40   H4    1.013904 S    
C26   C27   1.425892 A    
C1    O3    1.272211 A    
C35   C36   1.428294 A    
C12   C13   1.408293 S    
O9    Cr2   2.053939 S    
O2    Cr1   1.940295 S    
C11   C37   1.429633 S    
C28   C29   1.411991 A    
C4    C36   1.463306 S    
Cr2   O13   1.988081 S    
N1    O29   1.299518 A    
O6    Cr3   1.938392 S    
O8    C4    1.259955 A    
C2    O5    1.274022 A    
O19   Cr6   1.947011 S    
C22   N3    1.437067 S    
C16   C17   1.410624 S    
C32   N1    1.433027 S    
C12   C14   1.203148 T    
C19   C24   1.394286 A    
C40   O22   1.255724 A    
O21   C40   1.304472 A    
O28   H2    1.013565 S    
N3    O35   1.300466 A    
C22   C23   1.378161 A    
O7    C6    1.288018 A    
O18   Cr6   2.054052 S    
C46   O41   1.216576 D    
C48   O46   1.397151 S    
O2    C1    1.277338 A    
C7    C9    1.202591 T    
O19   C39   1.279865 A    
C5    C24   1.434477 S    
O3    Cr2   2.065997 S    
O14   Cr4   2.062426 S    
O20   Cr4   2.052442 S    
C33   C34   1.377475 A    
C33   C42   1.466541 S    
O10   C5    1.267204 A    
C31   N5    1.442646 S    
O17   Cr5   1.933987 S    
