data_mof_unit_48998.cif
_audit_creation_date              2013-03-05T16:32:26-0500
_audit_creation_method            fapswitch 2.2
_symmetry_space_group_name_H-M    P1
_symmetry_Int_Tables_number       1
_space_group_crystal_system       triclinic
_cell_length_a                    10.679163
_cell_length_b                    10.87691
_cell_length_c                    9.597193
_cell_angle_alpha                 90.043153
_cell_angle_beta                  90.410454
_cell_angle_gamma                 91.061569
_cell_volume                      1114.55400662

loop_
_atom_site_label
_atom_site_type_symbol
_atom_site_description
_atom_site_fract_x
_atom_site_fract_y
_atom_site_fract_z
_atom_type_partial_charge
O1    O     O_R   0.500000 0.319640 0.618810 -0.555614
O2    O     O_R   0.500010 0.319680 0.381230 -0.586167
C1    C     C_R   0.497001 0.262871 0.499705 0.809147
O3    O     O_R   0.316850 0.499950 0.618770 -0.514185
O4    O     O_R   0.316860 0.499990 0.381190 -0.595001
C2    C     C_R   0.259625 0.497991 0.499295 0.865052
Cu1   Cu    Cu3+1 0.499990 0.499980 0.640670 1.009748
Cu2   Cu    Cu3+1 0.500010 0.500020 0.359330 0.975813
O5    O     O_R   0.499990 0.680320 0.618770 -0.568505
O6    O     O_R   0.500000 0.680360 0.381190 -0.593269
O7    O     O_R   0.683140 0.500010 0.618810 -0.608061
O8    O     O_R   0.683150 0.500050 0.381230 -0.546766
C3    C     C_R   0.499385 0.737209 0.499852 0.801165
C4    C     C_R   0.740219 0.500463 0.500873 0.845245
C5    C     C_3   0.042124 0.403462 0.581074 -0.203433
C6    C     C_3   0.954359 0.391087 0.453023 0.360787
H1    H     H_    0.078666 0.327557 0.645859 0.209942
C7    C     C_3   0.876452 0.498442 0.503465 -0.207052
C8    C     C_3   0.962167 0.512261 0.633807 -0.161900
C9    C     C_3   0.046052 0.605266 0.552293 -0.287061
C10   C     C_3   0.959762 0.589179 0.423148 0.365885
C11   C     C_3   0.036136 0.481486 0.371081 0.275313
C12   C     C_3   0.123127 0.496123 0.498133 -0.193620
H2    H     H_    0.931595 0.522905 0.742954 0.197299
H3    H     H_    0.086045 0.692890 0.593964 0.166339
C13   C     C_R   0.490952 0.062264 0.619780 0.058455
C14   C     C_R   0.492038 0.130178 0.497685 -0.066081
C15   C     C_R   0.490588 0.064321 0.370690 -0.216054
H4    H     H_    0.490154 0.111773 0.271525 0.171411
C16   C     C_R   0.492878 0.935253 0.370915 -0.224518
H5    H     H_    0.493605 0.887427 0.271990 0.154829
C17   C     C_R   0.495895 0.869949 0.498060 -0.110784
C18   C     C_R   0.494022 0.938433 0.620058 0.100781
C19   C     C_3   0.498129 0.930520 0.774968 0.270402
C20   C     C_3   0.493861 0.072030 0.774508 -0.497210
H6    H     H_    0.587874 0.893317 0.813908 0.050951
H7    H     H_    0.405901 0.108539 0.817422 0.262052
H8    H     H_    0.581598 0.116881 0.813761 0.161157
C21   C     C_R   0.608191 0.520304 0.074138 0.261227
N1    N     N_R   0.500800 0.500930 0.147930 -0.230158
C22   C     C_R   0.397281 0.464919 0.074811 -0.140143
H9    H     H_    0.314902 0.436088 0.130352 0.233917
C23   C     C_R   0.396954 0.461852 0.927142 0.393541
N2    N     N_R   0.500800 0.500890 0.852020 -0.245220
C24   C     C_R   0.608302 0.520279 0.927439 0.198044
C25   C     C_3   0.693081 0.630287 0.922969 -0.511696
C26   C     C_3   0.693075 0.630195 0.081285 -0.432398
H10   H     H_    0.785951 0.609419 0.879267 0.210682
H11   H     H_    0.647416 0.710414 0.875804 0.200045
H12   H     H_    0.785654 0.607045 0.126179 0.274420
H13   H     H_    0.648220 0.711658 0.128105 0.193764
O9    O     O_3   0.907791 0.280974 0.392465 -0.533001
C27   C     C_3   0.851672 0.206143 0.495453 0.082052
H14   H     H_    0.766195 0.249548 0.536881 0.126458
H15   H     H_    0.917542 0.187461 0.582940 0.141294
C28   C     C_3   0.814862 0.083091 0.430848 -0.756073
H16   H     H_    0.900282 0.035767 0.396104 0.249619
H17   H     H_    0.765805 0.024551 0.508787 0.197714
H18   H     H_    0.752306 0.097117 0.339552 0.256106
N3    N     N_R   0.287684 0.412030 0.860277 0.144349
O10   O     O_R   0.293242 0.307017 0.796268 -0.391889
O11   O     O_R   0.178638 0.456691 0.888521 -0.330775
O12   O     O_3   0.908773 0.682063 0.338783 -0.577445
C29   C     C_3   0.000078 0.774376 0.313045 0.097896
H19   H     H_    0.093775 0.735853 0.290254 0.159423
H20   H     H_    0.008481 0.836206 0.405048 0.137252
C30   C     C_3   0.959378 0.849388 0.187445 -0.772656
H21   H     H_    0.863640 0.884757 0.203448 0.246447
H22   H     H_    0.025286 0.928322 0.172314 0.215061
H23   H     H_    0.958988 0.791073 0.092381 0.265024
N4    N     N_R   0.072926 0.458328 0.227830 0.135227
O13   O     O_R   0.048886 0.538240 0.131097 -0.356412
O14   O     O_R   0.108597 0.348969 0.192756 -0.324136
O15   O     O_3   0.387451 0.873931 0.825807 -0.535442
C31   C     C_3   0.396905 0.860965 0.971718 0.057821
H24   H     H_    0.408136 0.952365 0.023168 0.143049
H25   H     H_    0.477087 0.802315 0.000541 0.128309
C32   C     C_3   0.278144 0.799005 0.025900 -0.697710
H26   H     H_    0.265017 0.707061 0.977037 0.272946
H27   H     H_    0.285107 0.787558 0.140649 0.190897
H28   H     H_    0.195904 0.856097 0.000844 0.246074

loop_
_geom_bond_atom_site_label_1
_geom_bond_atom_site_label_2
_geom_bond_distance
_ccdc_geom_bond_type
C7    C10   1.529107 S    
C22   H9    1.073848 S    
C4    C7    1.455468 S    
C3    C17   1.445087 S    
C8    C9    1.554193 S    
C23   N2    1.387228 A    
Cu1   Cu2   2.700075 S    
C27   H14   1.111353 S    
N2    C24   1.365738 A    
Cu1   O7    1.968596 S    
C25   H11   1.102476 S    
C13   C14   1.385658 A    
C15   H4    1.083016 S    
C20   H7    1.108505 S    
C7    C8    1.550320 S    
C16   H5    1.082377 S    
O7    C4    1.289373 A    
C32   H27   1.110497 S    
C9    H3    1.110222 S    
C5    C6    1.544474 S    
C28   H16   1.108950 S    
N3    O11   1.300322 A    
C19   C20   1.540720 S    
O5    C3    1.298670 A    
C21   C24   1.407902 A    
C5    C12   1.541581 S    
C10   C11   1.525572 S    
C22   C23   1.417550 A    
O3    Cu1   1.965539 S    
C26   H12   1.108962 S    
C27   H15   1.112732 S    
C25   H10   1.106892 S    
O15   C31   1.410611 S    
C30   H21   1.110684 S    
C29   C30   1.521415 S    
C20   H8    1.111540 S    
O3    C2    1.295414 A    
C21   N1    1.365323 A    
N4    O14   1.300503 A    
C32   H26   1.110339 S    
C26   H13   1.111169 S    
C24   C25   1.487868 S    
N3    O10   1.299058 A    
O1    C1    1.298686 A    
C29   H20   1.111619 S    
C5    C8    1.558334 S    
C31   H24   1.113787 S    
C13   C18   1.347909 A    
C9    C12   1.548669 S    
Cu2   O8    1.965539 S    
C18   C19   1.489631 S    
Cu1   N2    2.028340 S    
C31   H25   1.110762 S    
C23   N3    1.425644 S    
C19   O15   1.412692 S    
C6    C7    1.526749 S    
N1    C22   1.356615 A    
O8    C4    1.296053 A    
C11   N4    1.455608 S    
O9    C27   1.410744 S    
C21   C26   1.487942 S    
C27   C28   1.518590 S    
C5    H1    1.108928 S    
C25   C26   1.519385 S    
C6    C11   1.525489 S    
O1    Cu1   1.972574 S    
O2    Cu2   1.972929 S    
C6    O9    1.411484 S    
O6    C3    1.295572 A    
O4    Cu2   1.968597 S    
C28   H18   1.110336 S    
C30   H23   1.110724 S    
C17   C18   1.387695 A    
C15   C16   1.404537 A    
O2    C1    1.294803 A    
N4    O13   1.299744 A    
C29   H19   1.114968 S    
C16   C17   1.412848 A    
C32   H28   1.110038 S    
O4    C2    1.291629 A    
C2    C12   1.457414 S    
C1    C14   1.443392 S    
C28   H17   1.110567 S    
C8    H2    1.106062 S    
C19   H6    1.109688 S    
C31   C32   1.520332 S    
C10   O12   1.409979 S    
O12   C29   1.409789 S    
Cu1   O5    1.972926 S    
C13   C20   1.488732 S    
C9    C10   1.547032 S    
Cu2   O6    1.972574 S    
C14   C15   1.413088 A    
C11   C12   1.534005 S    
Cu2   N1    2.028956 S    
C30   H22   1.110346 S    
