data_mof_unit_24450.cif
_audit_creation_date              2012-12-11T16:48:37-0500
_audit_creation_method            fapswitch 2.2
_symmetry_space_group_name_H-M    P1
_symmetry_Int_Tables_number       1
_space_group_crystal_system       triclinic
_cell_length_a                    17.291861
_cell_length_b                    24.305614
_cell_length_c                    14.926365
_cell_angle_alpha                 90.381132
_cell_angle_beta                  125.380341
_cell_angle_gamma                 89.628967
_cell_volume                      5114.72270657

loop_
_atom_site_label
_atom_site_type_symbol
_atom_type_description
_atom_site_fract_x
_atom_site_fract_y
_atom_site_fract_z
_atom_type_partial_charge
C1    C     C_R   0.354886 0.347582 0.908743 -0.171192
C2    C     C_R   0.647513 0.348003 0.091747 -0.142082
C3    C     C_R   0.813150 0.873450 0.908851 -0.044381
C4    C     C_R   0.147711 0.848120 0.091888 -0.135177
C5    C     C_R   0.313886 0.638538 0.003286 0.050141
C6    C     C_R   0.617182 0.682587 0.997511 0.035616
C7    C     C_R   0.813219 0.138055 0.002869 0.038228
C8    C     C_R   0.180826 0.146109 0.999741 0.039998
C9    C     C_R   0.563372 0.498459 0.366435 0.072253
C10   C     C_R   0.549192 0.498084 0.723112 0.054885
C11   C     C_R   0.065435 0.998214 0.366852 0.077197
C12   C     C_R   0.038981 0.996898 0.711888 0.056807
C13   C     C_R   0.176221 0.496358 0.674286 0.053034
C14   C     C_R   0.797388 0.497424 0.369909 0.029897
C15   C     C_R   0.681633 0.997461 0.655358 0.080256
C16   C     C_R   0.298603 0.998071 0.369121 0.034872
C17   C     C_2   0.926277 0.457023 0.552184 0.118981
C18   C     C_2   0.023881 0.473483 0.637716 0.205712
C19   C     C_2   0.433883 0.958948 0.547973 0.116998
C20   C     C_2   0.532103 0.976222 0.628418 0.222872
C21   C     C_2   0.869957 0.499087 0.489147 -0.230668
C22   C     C_2   0.074515 0.492913 0.601944 -0.172191
C23   C     C_2   0.374927 0.000447 0.487010 -0.231355
C24   C     C_2   0.579519 0.993939 0.587033 -0.198069
C25   C     C_R   0.262248 0.687809 0.106832 0.112418
C26   C     C_R   0.622244 0.757124 0.892210 0.092257
C27   C     C_R   0.760380 0.186959 0.105908 0.096148
C28   C     C_R   0.234257 0.192329 0.896248 0.091255
C29   C     C_R   0.240837 0.666119 0.007683 0.044414
C30   C     C_R   0.638146 0.739213 0.990407 0.098005
C31   C     C_R   0.739813 0.165652 0.006842 0.050747
C32   C     C_R   0.253530 0.173529 0.995884 0.049769
C33   C     C_R   0.152984 0.680289 0.910412 -0.199152
C34   C     C_R   0.690361 0.772844 0.084398 -0.177535
C35   C     C_R   0.652508 0.180361 0.909280 -0.186355
C36   C     C_R   0.342335 0.186264 0.093047 -0.179227
C37   C     C_R   0.602763 0.226133 0.908906 -0.134903
C38   C     C_R   0.396322 0.228568 0.092413 -0.137886
C39   C     C_R   0.103189 0.726038 0.909952 -0.108558
C40   C     C_R   0.742600 0.816771 0.085163 -0.164571
C41   C     C_R   0.640138 0.256558 0.006361 -0.012506
C42   C     C_R   0.360847 0.257650 0.994555 -0.011425
C43   C     C_R   0.141064 0.756820 0.007101 0.001007
C44   C     C_R   0.743103 0.825852 0.992650 0.088707
C45   C     C_R   0.402078 0.622954 0.093021 -0.114657
C46   C     C_R   0.555157 0.650765 0.908058 -0.145167
C47   C     C_R   0.901701 0.122761 0.092792 -0.104956
C48   C     C_R   0.091821 0.132017 0.909351 -0.119834
C49   C     C_R   0.710292 0.231419 0.105961 0.103969
C50   C     C_R   0.288427 0.233278 0.895221 0.112337
C51   C     C_R   0.212105 0.732191 0.106894 0.126595
C52   C     C_R   0.677094 0.798285 0.894642 -0.035637
C53   C     C_3   0.796508 0.254301 0.209446 0.311377
C54   C     C_3   0.204280 0.257460 0.791367 0.313216
C55   C     C_3   0.298779 0.755683 0.209166 0.302355
C56   C     C_3   0.687271 0.769286 0.812425 0.364150
C57   C     C_3   0.353681 0.707649 0.207735 -0.597159
C58   C     C_3   0.623622 0.725257 0.806594 -0.575505
C59   C     C_3   0.851407 0.206208 0.208121 -0.565895
C60   C     C_3   0.145060 0.213255 0.793858 -0.590158
C61   C     C_R   0.601293 0.446584 0.621925 0.155645
C62   C     C_R   0.604699 0.446915 0.531862 0.149331
C63   C     C_R   0.094427 0.945341 0.615362 0.156505
C64   C     C_R   0.102099 0.945692 0.528588 0.154024
C65   C     C_R   0.595124 0.496134 0.666069 0.029328
C66   C     C_R   0.601014 0.496708 0.482895 0.030537
C67   C     C_R   0.086516 0.994958 0.657375 0.026206
C68   C     C_R   0.102142 0.995728 0.482458 0.023569
C69   C     C_R   0.617914 0.545055 0.636208 -0.171802
C70   C     C_R   0.620402 0.545404 0.544057 -0.162654
C71   C     C_R   0.113613 0.043718 0.632267 -0.179853
C72   C     C_R   0.121287 0.044147 0.544057 -0.154843
C73   C     C_3   0.544778 0.396392 0.483951 -0.493796
C74   C     C_3   0.540395 0.396131 0.581810 -0.489442
C75   C     C_3   0.040151 0.895942 0.477440 -0.496542
C76   C     C_3   0.031996 0.895639 0.572545 -0.495637
C77   C     C_R   0.548081 0.453236 0.302038 -0.140181
C78   C     C_R   0.521001 0.452762 0.753207 -0.130311
C79   C     C_R   0.050306 0.953232 0.302694 -0.163914
C80   C     C_R   0.016363 0.952022 0.748341 -0.137632
C81   C     C_R   0.231923 0.543219 0.711929 0.421148
C82   C     C_R   0.752203 0.543744 0.306254 0.460386
C83   C     C_R   0.735606 0.044001 0.705428 0.423733
C84   C     C_R   0.251930 0.044130 0.305876 0.421462
C85   C     C_R   0.547971 0.544586 0.303790 -0.114376
C86   C     C_R   0.519016 0.544806 0.749514 -0.075388
C87   C     C_R   0.048709 0.044488 0.304135 -0.107947
C88   C     C_R   0.006745 0.043502 0.735145 -0.087556
C89   C     C_R   0.233925 0.451563 0.724956 -0.210887
C90   C     C_R   0.750977 0.452577 0.302523 -0.213772
C91   C     C_R   0.738232 0.952728 0.708324 -0.255159
C92   C     C_R   0.251923 0.952903 0.302421 -0.217929
C93   C     C_R   0.311040 0.626424 0.910231 -0.142059
C94   C     C_R   0.648797 0.651727 0.090311 -0.066340
C95   C     C_R   0.810477 0.125739 0.909899 -0.126611
C96   C     C_R   0.187546 0.128239 0.092309 -0.093905
C97   C     C_R   0.442919 0.347501 0.091211 -0.098751
C98   C     C_R   0.557023 0.346648 0.909557 -0.121413
C99   C     C_R   0.904613 0.872010 0.092546 -0.083967
C100  C     C_R   0.057184 0.846661 0.909659 -0.101084
C101  C     C_R   0.383110 0.315641 0.998603 0.061639
C102  C     C_R   0.618810 0.315230 0.002123 0.060534
C103  C     C_R   0.816597 0.857578 0.999402 0.063430
C104  C     C_R   0.119208 0.815375 0.002366 0.061845
H1    H     H_    0.323492 0.333668 0.825833 0.154029
H2    H     H_    0.681337 0.334958 0.175381 0.147872
H3    H     H_    0.755205 0.867895 0.824529 0.079758
H4    H     H_    0.181684 0.835138 0.175582 0.154197
H5    H     H_    0.892340 0.540359 0.523240 0.196634
H6    H     H_    0.041679 0.499239 0.514852 0.156922
H7    H     H_    0.397435 0.041915 0.519872 0.196558
H8    H     H_    0.543879 0.997394 0.498804 0.146612
H9    H     H_    0.128955 0.661302 0.832635 0.151433
H10   H     H_    0.699422 0.761919 0.160109 0.137846
H11   H     H_    0.628940 0.161839 0.831311 0.148825
H12   H     H_    0.364874 0.168963 0.171253 0.147587
H13   H     H_    0.543102 0.241155 0.830574 0.145559
H14   H     H_    0.457652 0.242827 0.170364 0.146247
H15   H     H_    0.042960 0.740736 0.831693 0.141346
H16   H     H_    0.789666 0.839286 0.160896 0.123983
H17   H     H_    0.820519 0.294548 0.198954 0.075682
H18   H     H_    0.183636 0.299396 0.800651 0.061379
H19   H     H_    0.321796 0.795906 0.197141 0.066501
H20   H     H_    0.654876 0.791731 0.733915 0.064362
H21   H     H_    0.405959 0.720832 0.191493 0.177160
H22   H     H_    0.552709 0.724540 0.726438 0.180226
H23   H     H_    0.904657 0.219484 0.193502 0.182808
H24   H     H_    0.093758 0.230810 0.808624 0.180194
H25   H     H_    0.382010 0.678947 0.277988 0.241408
H26   H     H_    0.658366 0.684253 0.835124 0.236390
H27   H     H_    0.878560 0.177119 0.277567 0.241143
H28   H     H_    0.114580 0.183333 0.724747 0.233016
H29   H     H_    0.621553 0.584014 0.673921 0.142733
H30   H     H_    0.625784 0.584614 0.514296 0.150644
H31   H     H_    0.117037 0.082469 0.670480 0.140191
H32   H     H_    0.129556 0.083295 0.516537 0.166556
H33   H     H_    0.474365 0.404138 0.405557 0.206136
H34   H     H_    0.577376 0.360169 0.636448 0.201817
H35   H     H_    0.971153 0.904608 0.397875 0.197934
H36   H     H_    0.066868 0.859335 0.626878 0.200800
H37   H     H_    0.584830 0.360777 0.482712 0.206068
H38   H     H_    0.467311 0.403858 0.558067 0.208715
H39   H     H_    0.079570 0.859742 0.476992 0.210273
H40   H     H_    0.958515 0.904259 0.546717 0.204697
H41   H     H_    0.428161 0.624152 0.178146 0.115913
H42   H     H_    0.505403 0.664488 0.824378 0.131956
H43   H     H_    0.927713 0.123950 0.177902 0.114546
H44   H     H_    0.059063 0.143255 0.825928 0.113960
H45   H     H_    0.569215 0.411299 0.329056 0.108413
H46   H     H_    0.536114 0.410091 0.749876 0.111489
H47   H     H_    0.073290 0.911518 0.330178 0.117702
H48   H     H_    0.031666 0.909310 0.745446 0.109140
H49   H     H_    0.567015 0.586427 0.333323 0.130533
H50   H     H_    0.529411 0.587291 0.738422 0.098483
H51   H     H_    0.067103 0.086377 0.333602 0.140173
H52   H     H_    0.002434 0.084204 0.704955 0.104015
H53   H     H_    0.214548 0.408562 0.710035 0.144272
H54   H     H_    0.754262 0.410432 0.325651 0.134283
H55   H     H_    0.720947 0.910479 0.681274 0.134830
H56   H     H_    0.256561 0.910723 0.326164 0.135782
H57   H     H_    0.253090 0.634819 0.827333 0.168037
H58   H     H_    0.687764 0.667011 0.173382 0.166270
H59   H     H_    0.751946 0.133066 0.826640 0.162538
H60   H     H_    0.247120 0.132597 0.176766 0.158439
H61   H     H_    0.487974 0.333707 0.175425 0.099177
H62   H     H_    0.510440 0.331803 0.826063 0.105294
H63   H     H_    0.931621 0.865248 0.177433 0.099493
H64   H     H_    0.010764 0.831732 0.826209 0.100125
N1    N     N_R   0.395410 0.396350 0.944340 -0.039544
N2    N     N_R   0.604590 0.396350 0.055660 -0.038681
N3    N     N_R   0.895410 0.896350 0.944340 -0.038797
N4    N     N_R   0.104590 0.896350 0.055660 -0.043192
N5    N     N_R   0.449930 0.602500 0.055880 -0.044554
N6    N     N_R   0.550070 0.602500 0.944120 -0.047431
N7    N     N_R   0.949930 0.102500 0.055880 -0.041552
N8    N     N_R   0.050070 0.102500 0.944120 -0.045008
N9    N     N_R   0.525080 0.471030 0.205650 -0.043995
N10   N     N_R   0.474920 0.471030 0.794350 -0.042663
N11   N     N_R   0.025080 0.971030 0.205650 -0.046895
N12   N     N_R   0.974920 0.971030 0.794350 -0.043314
N13   N     N_R   0.320260 0.527820 0.794570 -0.087171
N14   N     N_R   0.679740 0.527820 0.205430 -0.083713
N15   N     N_R   0.820260 0.027820 0.794570 -0.088477
N16   N     N_R   0.179740 0.027820 0.205430 -0.086130
N17   N     N_R   0.524590 0.527840 0.205200 -0.046371
N18   N     N_R   0.475410 0.527840 0.794800 -0.039873
N19   N     N_R   0.024590 0.027840 0.205200 -0.047171
N20   N     N_R   0.975410 0.027840 0.794800 -0.039685
N21   N     N_R   0.320750 0.471000 0.795020 -0.063460
N22   N     N_R   0.679250 0.471000 0.204980 -0.064404
N23   N     N_R   0.820750 0.971000 0.795020 -0.066125
N24   N     N_R   0.179250 0.971000 0.204980 -0.064014
N25   N     N_R   0.393620 0.602490 0.942710 -0.041072
N26   N     N_R   0.606380 0.602490 0.057290 -0.044880
N27   N     N_R   0.893620 0.102490 0.942710 -0.040341
N28   N     N_R   0.106380 0.102490 0.057290 -0.040077
N29   N     N_R   0.451720 0.396350 0.057510 -0.042342
N30   N     N_R   0.548280 0.396350 0.942490 -0.041890
N31   N     N_R   0.951720 0.896350 0.057510 -0.044292
N32   N     N_R   0.048280 0.896350 0.942490 -0.046217
Ni1   Ni    Ni4+2 0.435420 0.434270 0.870230 0.225869
Ni2   Ni    Ni4+2 0.564580 0.434270 0.129770 0.211239
Ni3   Ni    Ni4+2 0.935420 0.934270 0.870230 0.226632
Ni4   Ni    Ni4+2 0.064580 0.934270 0.129770 0.219672
Ni5   Ni    Ni4+2 0.563430 0.564580 0.128740 0.253609
Ni6   Ni    Ni4+2 0.436570 0.564580 0.871260 0.264745
Ni7   Ni    Ni4+2 0.063430 0.064580 0.128740 0.267683
Ni8   Ni    Ni4+2 0.936570 0.064580 0.871260 0.271568
Cl1   Cl    Cl    0.787057 0.251393 0.322461 -0.656603
Cl2   Cl    Cl    0.212987 0.249408 0.678363 -0.641206
Cl3   Cl    Cl    0.291527 0.753311 0.323842 -0.652623
Cl4   Cl    Cl    0.804095 0.743088 0.868619 -0.630073
Cl5   Cl    Cl    0.202065 0.604537 0.636641 -0.657742
Cl6   Cl    Cl    0.760869 0.609842 0.359483 -0.724357
Cl7   Cl    Cl    0.713153 0.107120 0.637607 -0.666234
Cl8   Cl    Cl    0.257338 0.109843 0.359374 -0.699049
C105  C     C_3   0.905350 0.396620 0.519635 -0.324860
C106  C     C_3   0.975700 0.356139 0.608761 -0.829938
H65   H     H_    0.048570 0.363101 0.631956 0.253868
H66   H     H_    0.974923 0.359835 0.682351 0.235910
H67   H     H_    0.954934 0.313437 0.576808 0.296049
H68   H     H_    0.834396 0.386750 0.499895 0.204541
H69   H     H_    0.906768 0.389220 0.447091 0.211708
C107  C     C_3   0.061840 0.468315 0.757981 -0.352836
C108  C     C_3   0.081811 0.524619 0.813314 -0.839825
H70   H     H_    0.139964 0.545821 0.816620 0.248565
H71   H     H_    0.017036 0.550740 0.767971 0.265398
H72   H     H_    0.103553 0.519385 0.898833 0.253993
H73   H     H_    0.008282 0.447731 0.764800 0.197749
H74   H     H_    0.126861 0.442481 0.802825 0.192096
C109  C     C_3   0.412929 0.898451 0.516952 -0.292003
C110  C     C_3   0.486192 0.858811 0.605286 -0.913667
H75   H     H_    0.557303 0.866604 0.623844 0.242678
H76   H     H_    0.489188 0.862826 0.681347 0.248708
H77   H     H_    0.465803 0.815852 0.574924 0.288407
H78   H     H_    0.343705 0.888262 0.501745 0.206758
H79   H     H_    0.410692 0.890745 0.442051 0.202780
C111  C     C_3   0.573545 0.973782 0.750060 -0.352342
C112  C     C_3   0.585873 0.031225 0.798493 -0.862590
H80   H     H_    0.636393 0.055734 0.792511 0.251380
H81   H     H_    0.516554 0.053050 0.754407 0.267418
H82   H     H_    0.613944 0.027905 0.886578 0.252073
H83   H     H_    0.524611 0.951017 0.761900 0.196799
H84   H     H_    0.642004 0.951245 0.796550 0.188434

loop_
_geom_bond_atom_site_label_1
_geom_bond_atom_site_label_2
_ccdc_geom_bond_type
C105  H69   S    
C99   C103  A    
C75   H39   S    
C13   C81   A    
C83   Cl7   S    
C97   N29   A    
C73   C74   S    
C19   C20   S    
C8    C96   A    
C81   N13   A    
N12   Ni3   S    
C73   H37   S    
C107  C108  S    
C60   H28   S    
C25   C51   A    
C53   C59   S    
C106  H65   S    
C97   H61   S    
C54   C60   S    
C65   C69   A    
C74   H34   S    
C30   C34   A    
C33   C39   A    
N16   Ni7   S    
C25   C57   S    
C37   C41   A    
C45   H41   S    
C80   N12   A    
C14   C21   S    
N1    N29   A    
C86   H50   S    
C35   C37   A    
C112  H80   S    
N20   Ni8   S    
C38   C42   A    
C26   C52   A    
C64   C68   A    
C71   H31   S    
C20   C111  S    
C72   H32   S    
N11   N19   A    
C63   C76   S    
C2    C102  A    
C59   H23   S    
C111  H84   S    
C16   C84   A    
C108  H72   S    
N9    N17   A    
C41   C102  S    
C58   H26   S    
C57   H25   S    
C96   N28   A    
C41   C49   A    
N4    Ni4   S    
C9    C66   S    
C14   C90   A    
N3    N31   A    
N12   N20   A    
C9    C85   A    
C43   C104  S    
C52   C56   S    
N13   N21   A    
C55   H19   S    
C100  C104  A    
C81   Cl5   S    
N27   Ni8   S    
C20   C24   D    
C29   C33   A    
C11   C87   A    
C6    C94   A    
C55   Cl3   S    
C24   H8    S    
C69   H29   S    
N16   N24   A    
C62   C73   S    
C35   H11   S    
C109  H78   S    
C93   H57   S    
C18   C107  S    
C94   H58   S    
C5    C29   S    
C6    C46   A    
C53   H17   S    
C13   C89   A    
C44   C52   A    
C76   H36   S    
C54   H18   S    
C94   N26   A    
C3    H3    S    
C85   N17   A    
N15   Ni8   S    
C78   N10   A    
C69   C70   A    
C88   N20   A    
N23   Ni3   S    
C10   C78   A    
C28   C32   A    
N7    N27   A    
C44   C103  S    
C17   C18   S    
C99   H63   S    
C28   C60   S    
C25   C29   A    
C12   C67   S    
C47   H43   S    
C7    C31   S    
N18   Ni6   S    
C27   C31   A    
C8    C32   S    
N17   Ni5   S    
C84   N16   A    
C62   C66   A    
C88   H52   S    
C82   Cl6   S    
C77   H45   S    
C23   H7    S    
C28   C50   A    
N22   Ni2   S    
C15   C83   A    
C12   C80   A    
C51   C55   S    
C22   H6    S    
C105  C106  S    
C98   C102  A    
C91   N23   A    
C111  H83   S    
C2    H2    S    
C110  H77   S    
C77   N9    A    
C96   H60   S    
C7    C47   A    
C90   H54   S    
C19   C23   D    
C75   C76   S    
C8    C48   A    
C63   C67   A    
C107  H74   S    
C86   N18   A    
C4    H4    S    
C5    C93   A    
C54   Cl2   S    
C68   C72   A    
C12   C88   A    
C59   H27   S    
N30   Ni1   S    
C46   N6    A    
C108  H70   S    
N24   Ni4   S    
C83   N15   A    
N29   Ni2   S    
C112  H81   S    
C85   H49   S    
N8    N28   A    
C89   H53   S    
C109  H79   S    
C26   C58   S    
C98   H62   S    
C11   C79   A    
C2    N2    A    
C100  N32   A    
C15   C24   S    
C6    C30   S    
C42   C50   A    
C58   H22   S    
C16   C23   S    
C55   C57   S    
N3    Ni3   S    
N5    N25   A    
N31   Ni4   S    
C87   H51   S    
C16   C92   A    
C14   C82   A    
C27   C59   S    
N19   Ni7   S    
C39   H15   S    
C42   C101  S    
C56   H20   S    
N1    Ni1   S    
N2    N30   A    
C17   C105  S    
C11   C68   S    
C78   H46   S    
C106  H67   S    
C79   H47   S    
C90   N22   A    
C10   C65   S    
C3    C103  A    
C105  H68   S    
C80   H48   S    
N26   Ni5   S    
C111  C112  S    
C10   C86   A    
N7    Ni7   S    
C95   N27   A    
N25   Ni6   S    
C4    N4    A    
N6    N26   A    
C40   H16   S    
C110  H76   S    
C18   C22   D    
C91   H55   S    
C93   N25   A    
C60   H24   S    
C63   C64   A    
C76   H40   S    
N15   N23   A    
C87   N19   A    
C32   C36   A    
C56   Cl4   S    
C84   Cl8   S    
C95   H59   S    
C61   C74   S    
C34   H10   S    
C7    C95   A    
C82   N14   A    
C33   H9    S    
C92   H56   S    
C106  H66   S    
C100  H64   S    
N14   Ni5   S    
N21   Ni1   S    
N8    Ni8   S    
N28   Ni7   S    
C36   C38   A    
N13   Ni6   S    
C9    C77   A    
C71   C72   A    
C50   C54   S    
C75   H35   S    
C107  H73   S    
C57   H21   S    
C3    N3    A    
C98   N30   A    
C46   H42   S    
C73   H33   S    
C43   C51   A    
N32   Ni3   S    
C49   C53   S    
N6    Ni6   S    
C48   H44   S    
C31   C35   A    
C1    N1    A    
C110  H75   S    
C108  H71   S    
C64   C75   S    
C56   C58   S    
C13   C22   S    
C4    C104  A    
C112  H82   S    
C67   C71   A    
C61   C65   A    
C74   H38   S    
C61   C62   A    
C17   C21   D    
N11   Ni4   S    
N2    Ni2   S    
N4    N32   A    
C47   N7    A    
C15   C91   A    
C5    C45   A    
N10   N18   A    
C27   C49   A    
C45   N5    A    
C40   C44   A    
C79   N11   A    
C37   H13   S    
C66   C70   A    
C39   C43   A    
C53   Cl1   S    
N10   Ni1   S    
C99   N31   A    
C109  C110  S    
C70   H30   S    
C89   N21   A    
N9    Ni2   S    
C34   C40   A    
C38   H14   S    
N5    Ni5   S    
N14   N22   A    
C1    C101  A    
C19   C109  S    
C97   C101  A    
C92   N24   A    
C1    H1    S    
C21   H5    S    
C48   N8    A    
C26   C30   A    
C36   H12   S    
