data_mof_unit_56026.cif
_audit_creation_date              2012-12-10T17:19:54-0500
_audit_creation_method            fapswitch 2.2
_symmetry_space_group_name_H-M    P1
_symmetry_Int_Tables_number       1
_space_group_crystal_system       triclinic
_cell_length_a                    9.621411
_cell_length_b                    10.847142
_cell_length_c                    15.47428
_cell_angle_alpha                 87.075669
_cell_angle_beta                  73.875771
_cell_angle_gamma                 89.871416
_cell_volume                      1549.30029573

loop_
_atom_site_label
_atom_site_type_symbol
_atom_type_description
_atom_site_fract_x
_atom_site_fract_y
_atom_site_fract_z
_atom_type_partial_charge
C1    C     C_R   0.004375 0.263720 0.491511 0.821713
C2    C     C_R   0.669974 0.532453 0.904632 0.036717
C3    C     C_R   0.768367 0.572200 0.951025 0.133628
C4    C     C_R   0.519354 0.521769 0.949779 -0.003941
C5    C     C_R   0.475026 0.521204 0.045745 0.002651
C6    C     C_R   0.581685 0.538578 0.092219 0.085586
C7    C     C_R   0.721575 0.580771 0.044520 0.070772
C8    C     C_R   0.411058 0.507977 0.903470 0.177396
C9    C     C_R   0.275030 0.460196 0.950714 -0.234631
C10   C     C_R   0.232763 0.452647 0.044414 0.060551
C11   C     C_R   0.326408 0.497426 0.091771 0.114709
C12   C     C_R   0.917898 0.502148 0.671900 0.802630
C13   C     C_R   0.094064 0.408393 0.091219 -0.177337
C14   C     C_R   0.043440 0.414463 0.185065 0.163446
C15   C     C_R   0.265742 0.522219 0.182569 -0.234710
C16   C     C_R   0.282408 0.113892 0.436266 0.198087
C17   C     C_R   0.397282 0.057302 0.461522 -0.173131
C18   C     C_R   0.372821 0.949367 0.516299 -0.191365
C19   C     C_R   0.239997 0.888854 0.536384 -0.139318
C20   C     C_R   0.125963 0.939661 0.506016 0.010150
C21   C     C_R   0.139951 0.063432 0.472171 0.088487
C22   C     C_R   0.010610 0.130500 0.480508 -0.154752
C23   C     C_R   0.997610 0.737617 0.505878 0.797518
C24   C     C_R   0.878979 0.067151 0.496294 -0.274562
C25   C     C_R   0.872231 0.939600 0.507781 0.145951
C26   C     C_R   0.997054 0.873245 0.510438 -0.114243
C27   C     C_R   0.696599 0.666760 0.381976 -0.124557
C28   C     C_R   0.649010 0.753552 0.327896 -0.260093
C29   C     C_R   0.505096 0.756021 0.329373 -0.215838
C30   C     C_R   0.408431 0.670281 0.383785 -0.122655
C31   C     C_R   0.450912 0.583164 0.442647 0.153502
C32   C     C_R   0.600460 0.582331 0.442219 0.200541
C33   C     C_R   0.549752 0.421613 0.555081 -0.130301
C34   C     C_R   0.081828 0.494513 0.328228 0.770482
C35   C     C_R   0.401499 0.421225 0.555283 0.238462
C36   C     C_R   0.871793 0.518762 0.769084 -0.051903
C37   C     C_R   0.127605 0.478905 0.230387 -0.077890
C38   C     C_R   0.915168 0.592871 0.903897 -0.166852
C39   C     C_R   0.965726 0.568406 0.813125 -0.230100
C40   C     C_R   0.727246 0.495735 0.816245 -0.223723
Cu1   Cu    Cu3+1 0.140660 0.499990 0.500010 0.939226
Cu2   Cu    Cu3+1 0.859340 0.500010 0.499990 0.932760
H1    H     H_    0.025732 0.368326 0.054559 0.142907
H2    H     H_    0.779025 0.116389 0.501531 0.164827
H3    H     H_    0.505631 0.096414 0.438372 0.135647
H4    H     H_    0.457632 0.908276 0.540232 0.148003
H5    H     H_    0.226641 0.804920 0.578739 0.165509
H6    H     H_    0.585441 0.357515 0.600195 0.137395
H7    H     H_    0.809677 0.670353 0.374185 0.203900
H8    H     H_    0.724962 0.818439 0.283715 0.153856
H9    H     H_    0.323168 0.579101 0.216810 0.178872
H10   H     H_    0.468627 0.822504 0.286050 0.156005
H11   H     H_    0.302396 0.676055 0.376061 0.198044
H12   H     H_    0.197097 0.439464 0.914329 0.153260
H13   H     H_    0.992162 0.625817 0.937150 0.175625
H14   H     H_    0.078026 0.587757 0.777633 0.153393
H15   H     H_    0.660933 0.446264 0.783396 0.167996
N1    N     N_R   0.648320 0.501210 0.499140 -0.201373
N2    N     N_R   0.352470 0.501290 0.499110 -0.199185
O1    O     O_R   0.118810 0.319640 0.500010 -0.541261
O2    O     O_R   0.881240 0.319660 0.500000 -0.589260
O3    O     O_R   0.055570 0.499980 0.629840 -0.556046
O4    O     O_R   0.818000 0.500010 0.629830 -0.578524
O5    O     O_R   0.118760 0.680340 0.500000 -0.619802
O6    O     O_R   0.881190 0.680360 0.499990 -0.553314
O7    O     O_R   0.182000 0.499990 0.370170 -0.601282
O8    O     O_R   0.944430 0.500020 0.370160 -0.598461
N3    N     N_3   0.819403 0.625080 0.091409 -0.615986
H16   H     H_    0.772260 0.700756 0.127258 0.223524
H17   H     H_    0.833883 0.556099 0.137268 0.237916
C41   C     C_3   0.319875 0.213634 0.361646 -0.789956
H18   H     H_    0.402081 0.178687 0.302743 0.209914
H19   H     H_    0.224791 0.240917 0.338070 0.218056
H20   H     H_    0.366491 0.295536 0.384150 0.256227
N4    N     N_3   0.735441 0.879080 0.522349 -0.563363
H21   H     H_    0.696396 0.903605 0.467301 0.219528
H22   H     H_    0.665539 0.912676 0.580570 0.205197
N5    N     N_3   0.302110 0.336475 0.615076 -0.518033
H23   H     H_    0.340174 0.247153 0.601672 0.199644
H24   H     H_    0.302491 0.353093 0.680945 0.186921
C42   C     C_3   0.902773 0.350191 0.234466 -0.872056
H25   H     H_    0.920506 0.284673 0.287823 0.237941
H26   H     H_    0.820205 0.418420 0.265347 0.241851
H27   H     H_    0.858726 0.296620 0.188503 0.216166
N6    N     N_3   0.555393 0.496376 0.184824 -0.607183
H28   H     H_    0.623135 0.421931 0.188136 0.222357
H29   H     H_    0.581241 0.567012 0.221006 0.234700
C43   C     C_3   0.425899 0.558464 0.808384 -0.878061
H30   H     H_    0.518242 0.624200 0.783806 0.249552
H31   H     H_    0.436026 0.481749 0.762344 0.219896
H32   H     H_    0.328049 0.611792 0.806308 0.225454

loop_
_geom_bond_atom_site_label_1
_geom_bond_atom_site_label_2
_ccdc_geom_bond_type
C16   C21   A    
C34   C37   S    
Cu1   Cu2   S    
C19   C20   A    
C32   N1    A    
C4    C8    A    
Cu2   N1    S    
C42   H25   S    
N6    H28   S    
C33   N1    A    
C6    N6    S    
C5    C6    A    
C28   C29   A    
C17   H3    S    
C5    C11   A    
C3    C7    A    
C30   C31   A    
C19   H5    S    
C35   N2    A    
C18   C19   A    
C23   C26   S    
C31   N2    A    
C15   C37   A    
C7    N3    S    
N3    H16   S    
C11   C15   A    
C38   H13   S    
C31   C32   A    
C3    C38   A    
C8    C9    A    
Cu2   O6    S    
C15   H9    S    
C12   C36   S    
C9    C10   A    
C1    C22   S    
C21   C22   A    
C34   O7    A    
C16   C41   S    
C28   H8    S    
Cu1   O3    S    
C18   H4    S    
C42   H26   S    
N6    H29   S    
C30   H11   S    
C36   C40   A    
C24   C25   A    
Cu1   N2    S    
C1    O1    A    
C41   H19   S    
C12   O4    A    
N5    H23   S    
C16   C17   A    
C25   C26   A    
C8    C43   S    
C2    C4    A    
N4    H21   S    
C29   C30   A    
C12   O3    A    
C39   H14   S    
C43   H32   S    
C17   C18   A    
C43   H30   S    
N4    H22   S    
Cu2   O2    S    
Cu1   O7    S    
C23   O5    A    
C43   H31   S    
Cu2   O8    S    
C24   H2    S    
C22   C24   A    
C13   H1    S    
C42   H27   S    
C40   H15   S    
C27   C32   A    
C36   C39   A    
Cu1   O1    S    
C4    C5    A    
C10   C13   A    
C1    O2    A    
C34   O8    A    
C41   H20   S    
C6    C7    A    
C35   N5    S    
Cu1   O5    S    
C23   O6    A    
C2    C3    A    
C41   H18   S    
C14   C37   A    
C38   C39   A    
C20   C26   A    
C33   C35   A    
N5    H24   S    
C10   C11   A    
C2    C40   A    
C20   C21   A    
N3    H17   S    
C27   C28   A    
C33   H6    S    
C9    H12   S    
C14   C42   S    
C25   N4    S    
C13   C14   A    
Cu2   O4    S    
C27   H7    S    
C29   H10   S    
