data_mof_unit_29047.cif
_audit_creation_date              2013-03-05T16:43:54-0500
_audit_creation_method            fapswitch 2.2
_symmetry_space_group_name_H-M    P1
_symmetry_Int_Tables_number       1
_space_group_crystal_system       triclinic
_cell_length_a                    9.847358
_cell_length_b                    10.669305
_cell_length_c                    16.587768
_cell_angle_alpha                 89.980654
_cell_angle_beta                  85.058186
_cell_angle_gamma                 90.025521
_cell_volume                      1736.30622566

loop_
_atom_site_label
_atom_site_type_symbol
_atom_site_description
_atom_site_fract_x
_atom_site_fract_y
_atom_site_fract_z
_atom_type_partial_charge
O1    O     O_R   0.385310 0.683210 0.499990 -0.620224
O2    O     O_R   0.614650 0.683240 0.500000 -0.626431
C1    C     C_R   0.499553 0.740116 0.502976 0.875394
O3    O     O_R   0.371780 0.500000 0.615800 -0.583163
O4    O     O_R   0.601120 0.500040 0.615800 -0.620322
C2    C     C_R   0.480737 0.503679 0.653659 0.937532
Zn1   Zn    Zn3+2 0.346870 0.499980 0.499990 0.971044
Zn2   Zn    Zn3+2 0.653130 0.500020 0.500010 0.946613
O5    O     O_R   0.385350 0.316760 0.500000 -0.605290
O6    O     O_R   0.614690 0.316790 0.500010 -0.625949
O7    O     O_R   0.398880 0.499960 0.384200 -0.620888
O8    O     O_R   0.628220 0.500000 0.384200 -0.617178
C3    C     C_R   0.499570 0.259832 0.502871 0.899711
C4    C     C_R   0.519029 0.502403 0.346214 0.854518
C5    C     C_R   0.467135 0.541548 0.738244 -0.155810
C6    C     C_R   0.558882 0.632329 0.761961 -0.249486
C7    C     C_R   0.541573 0.685434 0.838203 -0.131777
C8    C     C_R   0.431960 0.648510 0.891975 0.136355
C9    C     C_R   0.336028 0.562587 0.867788 -0.225238
C10   C     C_R   0.353443 0.506397 0.791402 0.295940
C11   C     C_R   0.417201 0.556069 0.137617 -0.141702
C12   C     C_R   0.414686 0.513859 0.216655 -0.208511
C13   C     C_R   0.650187 0.578496 0.221433 -0.195346
C14   C     C_R   0.652509 0.621381 0.142115 -0.170508
C15   C     C_R   0.535011 0.613649 0.100561 0.196840
C16   C     C_2   0.430590 0.677437 0.977909 -0.211660
C17   C     C_2   0.542464 0.652007 0.015541 -0.221710
C18   C     C_R   0.530130 0.526949 0.259551 -0.038517
H1    H     H_    0.642847 0.664567 0.720750 0.165735
H2    H     H_    0.321571 0.472777 0.244624 0.152426
H3    H     H_    0.740482 0.589821 0.253685 0.156587
H4    H     H_    0.640386 0.640426 0.980729 0.161792
H5    H     H_    0.253334 0.532232 0.910737 0.168905
H6    H     H_    0.327345 0.541165 0.105684 0.128291
H7    H     H_    0.332197 0.688630 0.011993 0.150485
H8    H     H_    0.615782 0.752630 0.856160 0.148733
H9    H     H_    0.745404 0.661904 0.113457 0.132590
C19   C     C_R   0.374005 0.935910 0.519824 0.133592
C20   C     C_R   0.497106 0.871269 0.517288 -0.108814
C21   C     C_R   0.617395 0.935159 0.531257 -0.226458
H10   H     H_    0.712767 0.886241 0.536030 0.167609
C22   C     C_R   0.617409 0.064778 0.531113 -0.212567
H11   H     H_    0.712806 0.113777 0.535809 0.175465
C23   C     C_R   0.497105 0.128568 0.517078 -0.105506
C24   C     C_R   0.373989 0.063776 0.519742 0.191641
C25   C     C_3   0.260843 0.070695 0.465247 -0.503587
C26   C     C_3   0.260941 0.928581 0.465297 -0.484736
H12   H     H_    0.166485 0.111537 0.496304 0.214652
H13   H     H_    0.293497 0.112074 0.405102 0.195603
H14   H     H_    0.166606 0.887476 0.496276 0.204232
H15   H     H_    0.293787 0.887246 0.405193 0.208192
C27   C     C_R   0.924123 0.597979 0.532988 0.209916
N1    N     N_R   0.857140 0.500860 0.500530 -0.102201
C28   C     C_R   0.933614 0.409321 0.460786 -0.128109
H16   H     H_    0.883551 0.334890 0.430436 0.145047
C29   C     C_R   0.077720 0.409362 0.460735 -0.116339
H17   H     H_    0.136535 0.335149 0.430197 0.138840
N2    N     N_R   0.142780 0.500820 0.500530 -0.097903
C30   C     C_R   0.066803 0.598081 0.532809 0.195600
C31   C     C_3   0.061062 0.641307 0.618395 -0.469810
C32   C     C_3   0.906805 0.640427 0.618904 -0.508815
H18   H     H_    0.100635 0.570268 0.659438 0.254940
H19   H     H_    0.104351 0.736909 0.623579 0.195107
H20   H     H_    0.857545 0.568265 0.660035 0.235760
H21   H     H_    0.860956 0.735491 0.624945 0.188983
N3    N     N_R   0.259338 0.410831 0.770550 0.201259
O9    O     O_R   0.302423 0.313516 0.728509 -0.394290
O10   O     O_R   0.133645 0.412630 0.802051 -0.407088

loop_
_geom_bond_atom_site_label_1
_geom_bond_atom_site_label_2
_geom_bond_distance
_ccdc_geom_bond_type
Zn2   N1    2.009737 S    
C32   H20   1.111694 S    
N3    O10   1.301540 A    
C13   C14   1.391181 A    
C14   C15   1.399301 A    
C7    H8    1.083472 S    
C32   H21   1.111445 S    
C15   C17   1.464093 S    
Zn1   N2    2.009019 S    
C9    C10   1.399083 A    
C8    C16   1.457511 S    
Zn2   O8    1.957474 S    
C21   C22   1.382945 A    
C7    C8    1.396211 A    
C16   C17   1.339985 D    
C1    C20   1.419249 S    
C30   C31   1.489290 S    
C12   C18   1.399093 A    
N1    C28   1.367906 A    
C23   C24   1.392727 A    
C31   H18   1.111514 S    
Zn1   O7    1.944713 S    
C25   H13   1.112639 S    
C19   C26   1.495757 S    
O4    C2    1.293442 A    
C22   C23   1.403208 A    
C27   N1    1.363672 A    
O3    Zn1   1.957474 S    
O1    Zn1   1.991081 S    
C25   C26   1.516256 S    
C10   N3    1.439664 S    
C21   H10   1.083471 S    
C27   C30   1.404772 A    
O8    C4    1.292513 A    
O2    C1    1.283068 A    
C26   H14   1.112010 S    
C28   C29   1.418989 A    
C27   C32   1.491268 S    
C31   H19   1.111545 S    
C3    C23   1.419958 S    
C5    C10   1.414546 A    
O7    C4    1.291927 A    
C25   H12   1.112066 S    
N2    C30   1.362111 A    
O4    Zn2   1.944713 S    
C13   C18   1.403698 A    
C22   H11   1.083541 S    
C17   H4    1.087543 S    
C5    C6    1.403521 A    
C24   C25   1.495844 S    
C16   H7    1.085570 S    
C20   C21   1.402912 A    
C19   C20   1.392429 A    
C29   H17   1.081259 S    
C6    H1    1.082341 S    
C14   H9    1.083648 S    
O3    C2    1.289652 A    
C9    H5    1.084075 S    
O2    Zn2   1.991384 S    
N3    O9    1.301640 A    
Zn1   O5    1.991385 S    
C11   C15   1.406189 A    
C28   H16   1.081573 S    
C8    C9    1.399492 A    
C19   C24   1.364246 A    
O5    C3    1.282996 A    
C11   H6    1.081434 S    
C12   H2    1.083672 S    
C31   C32   1.518346 S    
C4    C18   1.455918 S    
C2    C5    1.455273 S    
C11   C12   1.384306 A    
Zn2   O6    1.991082 S    
C26   H15   1.112655 S    
C29   N2    1.367882 A    
C6    C7    1.383102 A    
O1    C1    1.282853 A    
O6    C3    1.283264 A    
C13   H3    1.083201 S    
