data_mof_unit_63236.cif
_audit_creation_date              2012-12-10T17:19:27-0500
_audit_creation_method            fapswitch 2.2
_symmetry_space_group_name_H-M    P1
_symmetry_Int_Tables_number       1
_space_group_crystal_system       triclinic
_cell_length_a                    18.729272
_cell_length_b                    18.792639
_cell_length_c                    18.784336
_cell_angle_alpha                 109.395346
_cell_angle_beta                  109.490315
_cell_angle_gamma                 109.303648
_cell_volume                      5103.62129224

loop_
_atom_site_label
_atom_site_type_symbol
_atom_type_description
_atom_site_fract_x
_atom_site_fract_y
_atom_site_fract_z
_atom_type_partial_charge
C1    C     C_R   0.381175 0.381188 0.500196 0.768003
C2    C     C_3   0.808663 0.497266 0.807338 0.081867
C3    C     C_3   0.768173 0.545009 0.849900 -0.427505
C4    C     C_3   0.734197 0.401840 0.736110 -0.110828
C5    C     C_R   0.242079 0.321536 0.499857 -0.172592
C6    C     C_R   0.177187 0.256648 0.498252 -0.181948
C7    C     C_R   0.185949 0.186079 0.500345 0.007635
C8    C     C_R   0.259063 0.179833 0.502592 -0.123016
C9    C     C_R   0.322495 0.243217 0.501225 -0.163693
C10   C     C_R   0.314400 0.314478 0.500539 -0.004801
C11   C     C_R   0.335270 0.576843 0.302302 0.010207
C12   C     C_R   0.617416 0.498105 0.619503 0.774442
C13   C     C_R   0.268549 0.574707 0.237910 -0.266844
C14   C     C_R   0.185036 0.501242 0.185199 -0.023484
C15   C     C_R   0.167580 0.428935 0.197027 -0.158143
C16   C     C_R   0.233303 0.429715 0.260385 -0.221780
C17   C     C_R   0.316728 0.503113 0.313462 -0.022051
C18   C     C_R   0.755796 0.766409 0.585353 -0.068242
C19   C     C_R   0.815895 0.833077 0.582667 -0.117550
C20   C     C_R   0.814578 0.817188 0.502945 -0.072851
C21   C     C_R   0.753331 0.736778 0.426621 0.206384
C22   C     C_R   0.693503 0.671962 0.429576 -0.221490
C23   C     C_R   0.622102 0.618857 0.503266 0.932282
C24   C     C_R   0.692843 0.686385 0.507198 -0.071402
C25   C     C_R   0.998047 0.381062 0.878910 0.790923
C26   C     C_R   0.877947 0.498429 0.876378 0.767012
C27   C     C_R   0.998432 0.618613 0.117521 0.788877
C28   C     C_R   0.117028 0.500200 0.117171 0.778542
C29   C     C_R   0.001552 0.882054 0.381948 0.913538
C30   C     C_R   0.118929 0.119074 0.500216 0.821801
C31   C     C_R   0.999783 0.119201 0.618098 0.827903
C32   C     C_R   0.881271 0.881658 0.500300 0.910569
C33   C     C_R   0.077721 0.325099 0.815962 -0.165205
C34   C     C_R   0.381721 0.501083 0.380593 0.857013
C35   C     C_R   0.078270 0.260357 0.753075 -0.190992
C36   C     C_R   0.999470 0.186098 0.684601 0.005078
C37   C     C_R   0.920277 0.175884 0.679964 -0.101175
C38   C     C_R   0.920002 0.239010 0.744646 -0.154332
C39   C     C_R   0.998610 0.314236 0.812258 -0.015992
C40   C     C_R   0.015696 0.762894 0.187476 -0.268752
C41   C     C_R   0.018364 0.829238 0.251464 -0.044000
C42   C     C_R   0.003161 0.815867 0.315962 -0.102491
C43   C     C_R   0.988504 0.737864 0.317572 0.192581
C44   C     C_R   0.987452 0.671539 0.252948 -0.046603
C45   C     C_3   0.773661 0.544091 0.693481 -0.411453
C46   C     C_R   0.000793 0.685089 0.187602 -0.135983
C47   C     C_3   0.846540 0.546043 0.764630 -0.340623
C48   C     C_3   0.695222 0.545412 0.780197 -0.113667
C49   C     C_3   0.664015 0.402232 0.663620 -0.352062
C50   C     C_3   0.685132 0.497128 0.688176 0.075417
Cu1   Cu    Cu3+1 0.500370 0.438230 0.438520 0.970737
Cu2   Cu    Cu3+1 0.499630 0.561770 0.561480 0.997085
Cu3   Cu    Cu3+1 0.935490 0.438190 0.997300 0.964520
Cu4   Cu    Cu3+1 0.059110 0.561720 0.997220 0.949558
Cu5   Cu    Cu3+1 0.937870 0.999900 0.437760 0.995526
Cu6   Cu    Cu3+1 0.062130 0.999920 0.562070 0.980718
H1    H     H_    0.790525 0.611740 0.708374 0.210375
H2    H     H_    0.701697 0.372905 0.767333 0.142471
H3    H     H_    0.743102 0.513803 0.883939 0.205584
H4    H     H_    0.235199 0.376305 0.498969 0.141288
H5    H     H_    0.121003 0.262139 0.496860 0.142241
H6    H     H_    0.266145 0.125253 0.503828 0.146915
H7    H     H_    0.378454 0.237502 0.502122 0.138331
H8    H     H_    0.281865 0.630674 0.228641 0.143687
H9    H     H_    0.103515 0.371470 0.156625 0.156604
H10   H     H_    0.769601 0.510617 0.629816 0.198796
H11   H     H_    0.218847 0.373240 0.268814 0.138368
H12   H     H_    0.645626 0.610624 0.369987 0.167358
H13   H     H_    0.138929 0.382770 0.868254 0.145821
H14   H     H_    0.139765 0.268747 0.756885 0.139828
H15   H     H_    0.859086 0.118368 0.627367 0.155742
H16   H     H_    0.858529 0.229751 0.741281 0.134618
H17   H     H_    0.026017 0.772188 0.136981 0.152005
H18   H     H_    0.880252 0.517024 0.736519 0.219351
H19   H     H_    0.896272 0.615000 0.814760 0.172840
H20   H     H_    0.716334 0.614595 0.797990 0.135427
H21   H     H_    0.819520 0.613227 0.900968 0.143844
H22   H     H_    0.598334 0.363554 0.653279 0.172836
H23   H     H_    0.660860 0.369902 0.600219 0.203265
O1    O     O_R   0.410130 0.357660 0.448070 -0.589549
O2    O     O_R   0.049990 0.461930 0.907530 -0.580823
O3    O     O_R   0.854450 0.447820 0.906640 -0.599169
O4    O     O_R   0.958850 0.552130 0.906580 -0.587483
O5    O     O_R   0.944620 0.537990 0.086990 -0.581874
O6    O     O_R   0.049020 0.642300 0.086930 -0.583967
O7    O     O_R   0.035760 0.447780 0.087940 -0.592203
O8    O     O_R   0.140150 0.552090 0.087880 -0.588937
O9    O     O_R   0.948110 0.909780 0.357760 -0.566748
O10   O     O_R   0.053050 0.909790 0.462730 -0.586599
O11   O     O_R   0.037720 0.090080 0.447430 -0.562041
O12   O     O_R   0.409500 0.461990 0.551910 -0.594926
O13   O     O_R   0.142660 0.090100 0.552410 -0.604140
O14   O     O_R   0.946950 0.090030 0.537090 -0.600120
O15   O     O_R   0.051890 0.090040 0.642060 -0.567018
O16   O     O_R   0.857350 0.909730 0.447410 -0.582748
O17   O     O_R   0.962280 0.909740 0.552390 -0.581554
O18   O     O_R   0.590970 0.447820 0.538740 -0.597943
O19   O     O_R   0.590340 0.552140 0.642570 -0.586562
O20   O     O_R   0.590500 0.538010 0.448090 -0.604457
O21   O     O_R   0.589870 0.642340 0.551930 -0.531777
O22   O     O_R   0.409660 0.447860 0.357430 -0.586361
O23   O     O_R   0.409030 0.552180 0.461260 -0.570468
O24   O     O_R   0.945590 0.357610 0.907590 -0.590608
C51   C     C_2   0.610691 0.510217 0.781820 0.341644
H24   H     H_    0.577451 0.547768 0.785811 0.087756
O25   O     O_2   0.578381 0.439782 0.777504 -0.555843
C52   C     C_2   0.422514 0.656356 0.353610 0.321140
H25   H     H_    0.429291 0.713937 0.348697 0.074307
O26   O     O_2   0.487876 0.658604 0.399822 -0.562097
C53   C     C_2   0.759788 0.781718 0.669996 0.346119
H26   H     H_    0.773517 0.844469 0.715943 0.069372
O27   O     O_2   0.750869 0.725494 0.690474 -0.578260
C54   C     C_2   0.880175 0.918619 0.663634 0.343713
H27   H     H_    0.909130 0.921799 0.725964 0.068970
O28   O     O_2   0.899167 0.986425 0.661851 -0.564009
N1    N     N_2   0.754125 0.719659 0.347265 -0.440936
H28   H     H_    0.752098 0.661424 0.317385 0.252422
C55   C     C_3   0.689408 0.728012 0.287390 -0.628204
H29   H     H_    0.622660 0.676991 0.263941 0.218206
H30   H     H_    0.698872 0.720408 0.230569 0.222958
H31   H     H_    0.695940 0.793051 0.319305 0.247309
C56   C     C_2   0.040098 0.911631 0.248906 0.356019
H32   H     H_    0.032056 0.911518 0.188879 0.070234
O29   O     O_2   0.070611 0.980743 0.313598 -0.557175
N2    N     N_2   0.974152 0.727480 0.384364 -0.424493
H33   H     H_    0.916048 0.674339 0.362504 0.288815
C57   C     C_3   0.048401 0.740647 0.455607 -0.602639
H34   H     H_    0.061554 0.686119 0.434395 0.225772
H35   H     H_    0.034485 0.744118 0.509298 0.221804
H36   H     H_    0.107569 0.802422 0.480867 0.230667
C58   C     C_2   0.978470 0.591185 0.256377 0.388306
H37   H     H_    0.017376 0.563678 0.240563 0.071702
O30   O     O_2   0.926321 0.553634 0.274367 -0.548782
C59   C     C_2   0.767033 0.343358 0.699248 0.307803
H38   H     H_    0.763357 0.291825 0.714405 0.066500
O31   O     O_2   0.798254 0.353394 0.653389 -0.545293

loop_
_geom_bond_atom_site_label_1
_geom_bond_atom_site_label_2
_ccdc_geom_bond_type
Cu1   O18   S    
C23   O20   A    
Cu5   Cu6   S    
C26   O4    A    
C29   C42   S    
C41   C42   A    
C48   H20   S    
C19   C20   A    
Cu5   O14   S    
C43   N2    S    
C15   H9    S    
C51   O25   D    
C7    C8    A    
Cu3   Cu4   S    
C49   H22   S    
C44   C58   S    
Cu6   O15   S    
Cu2   O23   S    
C33   C39   A    
Cu3   O5    S    
C18   C24   A    
C6    H5    S    
C27   O5    A    
Cu5   O11   S    
C31   C36   S    
C5    C6    A    
C19   C54   S    
C15   C16   A    
C48   C51   S    
C3    C48   S    
N1    H28   S    
C18   C19   A    
Cu5   O9    S    
C27   O6    A    
C55   H29   S    
Cu4   O4    S    
C29   O9    A    
Cu1   O1    S    
C11   C17   A    
C35   C36   A    
C35   H14   S    
C16   C17   A    
C52   H25   S    
Cu3   O7    S    
C9    C10   A    
C12   O19   A    
C33   H13   S    
C48   C50   S    
C23   O21   A    
C26   O3    A    
C7    C30   S    
C21   C22   A    
C25   O2    A    
C52   O26   D    
C21   N1    S    
C29   O10   A    
C51   H24   S    
C44   C46   A    
C53   O27   D    
C45   C47   S    
Cu1   O20   S    
C38   C39   A    
C38   H16   S    
C34   O22   A    
Cu1   Cu2   S    
Cu5   O16   S    
C53   H26   S    
C8    C9    A    
C59   O31   D    
C31   O14   A    
Cu2   O21   S    
C49   H23   S    
Cu3   O3    S    
C55   H31   S    
C41   C56   S    
C2    C4    S    
C43   C44   A    
C57   H35   S    
C37   C38   A    
C30   O11   A    
C23   C24   S    
C45   H1    S    
C28   O8    A    
C2    C26   S    
C16   H11   S    
C34   O23   A    
C22   H12   S    
C12   O18   A    
C6    C7    A    
C27   C46   S    
C30   O13   A    
C40   C41   A    
C32   O17   A    
C37   H15   S    
C28   O7    A    
N2    H33   S    
C22   C24   A    
C42   C43   A    
C40   C46   A    
C56   O29   D    
C57   H34   S    
C3    H21   S    
C4    C59   S    
C54   H27   S    
C20   C32   S    
Cu6   O17   S    
Cu6   O10   S    
C36   C37   A    
C5    H4    S    
C9    H7    S    
C25   O24   A    
C1    C10   S    
C18   C53   S    
C47   H18   S    
C58   O30   D    
Cu4   O6    S    
C12   C50   S    
C59   H38   S    
C2    C47   S    
Cu1   O22   S    
C31   O15   A    
C4    C49   S    
C2    C3    S    
C56   H32   S    
C57   H36   S    
C47   H19   S    
C5    C10   A    
C25   C39   S    
C11   C52   S    
C11   C13   A    
Cu4   O8    S    
C13   H8    S    
C45   C50   S    
Cu3   O24   S    
Cu2   O19   S    
C33   C35   A    
N1    C55   S    
C55   H30   S    
Cu6   O13   S    
C32   O16   A    
C20   C21   A    
C1    O12   A    
C49   C50   S    
C17   C34   S    
C4    H2    S    
C45   H10   S    
N2    C57   S    
C1    O1    A    
C14   C15   A    
Cu2   O12   S    
C14   C28   S    
C40   H17   S    
C13   C14   A    
Cu4   O2    S    
C58   H37   S    
C8    H6    S    
C54   O28   D    
C3    H3    S    
