data_mof_unit_65414.cif
_audit_creation_date              2012-12-11T15:02:40-0500
_audit_creation_method            fapswitch 2.2
_symmetry_space_group_name_H-M    P1
_symmetry_Int_Tables_number       1
_space_group_crystal_system       triclinic
_cell_length_a                    13.267389
_cell_length_b                    13.271196
_cell_length_c                    26.784004
_cell_angle_alpha                 96.598585
_cell_angle_beta                  96.881459
_cell_angle_gamma                 61.239368
_cell_volume                      4095.52026353

loop_
_atom_site_label
_atom_site_type_symbol
_atom_type_description
_atom_site_fract_x
_atom_site_fract_y
_atom_site_fract_z
_atom_type_partial_charge
C1    C     C_R   0.378855 0.723246 0.434946 0.544878
C2    C     C_3   0.852421 0.309416 0.198381 0.014011
C3    C     C_3   0.875235 0.393335 0.270711 -0.104055
C4    C     C_R   0.394654 0.373256 0.417901 0.543344
C5    C     C_3   0.826340 0.328598 0.295428 0.007184
C6    C     C_3   0.777655 0.421655 0.228308 0.067138
C7    C     C_3   0.727212 0.359122 0.253759 -0.113774
C8    C     C_1   0.869430 0.301038 0.145275 0.026725
C9    C     C_1   0.805081 0.343963 0.348295 -0.035302
C10   C     C_3   0.329667 0.927019 0.271071 -0.091630
C11   C     C_3   0.427376 0.850311 0.235983 -0.090688
C12   C     C_1   0.330674 0.340263 0.268225 0.026942
C13   C     C_1   0.306536 0.886960 0.101186 0.004097
C14   C     C_1   0.361656 0.772606 0.388335 -0.004187
C15   C     C_3   0.240176 0.916619 0.231048 -0.086688
C16   C     C_R   0.724830 0.399129 0.437210 0.544631
C17   C     C_3   0.338033 0.839548 0.196822 0.039103
C18   C     C_3   0.257214 0.807584 0.254242 -0.110854
C19   C     C_3   0.346428 0.818378 0.293427 0.032335
C20   C     C_3   0.354762 0.730889 0.219235 -0.096436
C21   C     C_3   0.444288 0.741164 0.259329 -0.077199
C22   C     C_1   0.326115 0.858908 0.143666 -0.045816
C23   C     C_1   0.344225 0.347687 0.321159 -0.017518
C24   C     C_1   0.352619 0.799848 0.346298 -0.047971
C25   C     C_3   0.345712 0.241253 0.722167 -0.105469
C26   C     C_3   0.421053 0.265147 0.765657 -0.125697
C27   C     C_1   0.296308 0.310060 0.887706 0.017987
C28   C     C_R   0.381492 0.724540 0.575488 0.544034
C29   C     C_1   0.361849 0.359491 0.603631 -0.001990
C30   C     C_3   0.236632 0.318114 0.751072 -0.128616
C31   C     C_3   0.312335 0.342033 0.793940 0.032280
C32   C     C_3   0.218108 0.425545 0.725451 -0.103496
C33   C     C_3   0.327209 0.348230 0.697534 0.031809
C34   C     C_1   0.362490 0.356539 0.366057 0.003031
C35   C     C_3   0.294142 0.447850 0.768852 0.093915
C36   C     C_3   0.403066 0.372305 0.740205 -0.104924
C37   C     C_1   0.304697 0.329883 0.846358 0.002950
C38   C     C_1   0.341764 0.352134 0.645064 -0.038930
C39   C     C_1   0.888866 0.294590 0.864784 0.000224
C40   C     C_R   0.395531 0.375833 0.558125 0.546210
C41   C     C_1   0.861307 0.306303 0.820439 -0.036425
C42   C     C_1   0.838448 0.320160 0.768131 -0.001299
C43   C     C_1   0.821432 0.333529 0.723568 -0.002077
C44   C     C_1   0.798820 0.352462 0.671677 -0.039309
C45   C     C_3   0.902172 0.214747 0.266238 -0.117224
C46   C     C_1   0.771635 0.372872 0.627955 -0.003622
C47   C     C_1   0.293293 0.893924 0.863136 -0.005045
C48   C     C_1   0.313035 0.866474 0.819475 -0.013999
C49   C     C_1   0.330752 0.843108 0.767575 0.042813
C50   C     C_1   0.342903 0.825131 0.722986 0.025368
C51   C     C_1   0.355424 0.801100 0.670698 -0.032160
C52   C     C_R   0.724236 0.403570 0.577629 0.544071
C53   C     C_1   0.366394 0.772799 0.626460 -0.001382
C54   C     C_R   0.941660 0.278270 0.056406 0.555678
C55   C     C_R   0.288048 0.271307 0.073269 0.551235
C56   C     C_3   0.803634 0.245139 0.223505 -0.139268
C57   C     C_R   0.270871 0.937147 0.053884 0.553813
C58   C     C_R   0.936761 0.279445 0.915955 0.542111
C59   C     C_R   0.281650 0.274324 0.933071 0.543065
C60   C     C_R   0.262706 0.941062 0.913315 0.541493
C61   C     C_1   0.305237 0.302789 0.125115 0.007693
C62   C     C_1   0.314629 0.320403 0.170010 -0.035995
C63   C     C_1   0.322789 0.333094 0.222941 0.009743
C64   C     C_2   0.265967 0.564027 0.794131 0.572559
C65   C     C_2   0.707459 0.535943 0.205986 0.557935
C66   C     C_2   0.075620 0.234849 0.234623 0.555737
C67   C     C_1   0.894568 0.292749 0.103070 0.046901
C68   C     C_1   0.775862 0.364506 0.390421 -0.002082
C69   C     C_3   0.949878 0.279724 0.240488 0.068402
Cr1   Cr    Cr6+3 0.585520 0.589730 0.508860 1.041284
Cr2   Cr    Cr6+3 0.329140 0.580910 0.495080 1.045257
Cr3   Cr    Cr6+3 0.585350 0.329380 0.496090 1.041184
Cr4   Cr    Cr6+3 0.077110 0.074680 0.982320 1.049099
Cr5   Cr    Cr6+3 0.079190 0.334150 0.996330 1.059989
Cr6   Cr    Cr6+3 0.334370 0.081620 0.994860 1.044546
H1    H     H_    0.774101 0.184851 0.203575 0.129741
H2    H     H_    0.954336 0.129743 0.282583 0.121688
H3    H     H_    0.634862 0.392931 0.260014 0.122016
H4    H     H_    0.904892 0.453618 0.290582 0.149234
H5    H     H_    0.497687 0.867059 0.227547 0.143897
H6    H     H_    0.319597 0.006899 0.293194 0.163123
H7    H     H_    0.527790 0.669095 0.272520 0.144518
H8    H     H_    0.236427 0.665242 0.858598 0.343242
H9    H     H_    0.579112 0.630665 0.155884 0.338275
H10   H     H_    0.203562 0.175053 0.187876 0.335186
H11   H     H_    0.365589 0.650496 0.197318 0.137916
H12   H     H_    0.186933 0.790687 0.262596 0.121306
H13   H     H_    0.155563 0.988105 0.218478 0.142330
H14   H     H_    0.504356 0.199698 0.782774 0.125083
H15   H     H_    0.366597 0.156232 0.702180 0.122101
H16   H     H_    0.471459 0.394900 0.735068 0.126348
H17   H     H_    0.134976 0.491177 0.708290 0.129348
H18   H     H_    0.168084 0.295812 0.756275 0.122860
O1    O     O_R   0.700650 0.499560 0.456090 -0.503080
O2    O     O_R   0.362310 0.174000 0.055490 -0.505484
O3    O     O_R   0.326800 0.983030 0.039600 -0.493248
O4    O     O_R   0.479220 0.682850 0.457510 -0.493671
O5    O     O_R   0.165220 0.960770 0.926060 -0.501854
O6    O     O_R   0.978660 0.179890 0.932950 -0.495215
O7    O     O_R   0.960490 0.356500 0.937600 -0.502282
O8    O     O_R   0.182720 0.328380 0.950570 -0.491316
O9    O     O_R   0.356860 0.175610 0.946640 -0.508813
O10   O     O_R   0.321740 0.984530 0.938700 -0.494783
O11   O     O_3   0.163560 0.163490 0.991170 -0.260182
O12   O     O_R   0.338920 0.475010 0.540740 -0.491616
O13   O     O_R   0.304230 0.696360 0.445090 -0.504648
O14   O     O_R   0.337790 0.472640 0.439840 -0.493534
O15   O     O_R   0.493310 0.300190 0.435520 -0.504333
O16   O     O_R   0.681220 0.340950 0.451270 -0.495044
O17   O     O_R   0.701870 0.502110 0.564940 -0.503118
O18   O     O_R   0.480360 0.685220 0.558410 -0.495105
O19   O     O_R   0.305450 0.698920 0.553940 -0.499362
O20   O     O_2   0.252456 0.641433 0.769016 -0.522899
O21   O     O_R   0.255314 0.583459 0.846068 -0.694730
O22   O     O_2   0.726497 0.616150 0.220909 -0.532108
O23   O     O_R   0.494530 0.302750 0.544370 -0.504682
O24   O     O_R   0.620633 0.549891 0.168056 -0.709617
O25   O     O_2   0.141786 0.221767 0.272143 -0.542833
O26   O     O_R   0.116874 0.207298 0.186661 -0.710683
O27   O     O_R   0.682350 0.343320 0.552170 -0.492990
O28   O     O_3   0.500010 0.500010 0.500010 -0.258126
O29   O     O_R   0.170670 0.959150 0.034900 -0.499333
O30   O     O_R   0.983710 0.178390 0.033850 -0.495770
O31   O     O_R   0.965940 0.354890 0.046440 -0.494018
O32   O     O_R   0.187770 0.326880 0.051460 -0.485407

loop_
_geom_bond_atom_site_label_1
_geom_bond_atom_site_label_2
_ccdc_geom_bond_type
C15   C18   S    
Cr5   O31   S    
C54   O30   A    
C56   H1    S    
Cr2   O14   S    
Cr3   O28   S    
C41   C42   S    
C35   C36   S    
C3    C6    S    
C3    H4    S    
C33   C36   S    
Cr6   O2    S    
C39   C41   T    
C32   H17   S    
C28   O19   A    
C26   H14   S    
C4    O15   A    
C12   C23   S    
C25   H15   S    
Cr1   O1    S    
C30   H18   S    
C60   O5    A    
C10   C15   S    
C30   C31   S    
Cr5   O32   S    
C13   C57   S    
C46   C52   S    
C17   C20   S    
Cr4   O6    S    
C18   C19   S    
C14   C24   T    
H10   O26   S    
Cr1   O17   S    
C47   C60   S    
C6    C65   S    
Cr3   O15   S    
C45   C56   S    
H9    O24   S    
Cr4   O30   S    
C57   O3    A    
C20   H11   S    
C29   C38   T    
Cr6   O3    S    
Cr6   O9    S    
C35   C64   S    
C16   C68   S    
C2    C69   S    
Cr1   O4    S    
C1    O13   A    
C57   O29   A    
C26   C31   S    
Cr6   O10   S    
C65   O22   D    
H8    O21   S    
C2    C6    S    
C7    C56   S    
C44   C46   T    
C16   O16   A    
Cr4   O11   S    
C28   O18   A    
Cr4   O5    S    
C4    O14   A    
C4    C34   S    
C64   O21   S    
C45   C69   S    
C59   O8    A    
C32   C35   S    
C55   O32   A    
C58   O7    A    
C55   O2    A    
C10   C11   S    
C1    O4    A    
C5    C7    S    
C12   C63   T    
Cr5   O7    S    
C54   C67   S    
C25   C26   S    
C39   C58   S    
C5    C45   S    
C11   C21   S    
C31   C37   S    
C51   C53   T    
C43   C44   S    
C5    C9    S    
C62   C63   S    
C47   C48   T    
C52   O17   A    
C10   C19   S    
C23   C34   T    
Cr2   O19   S    
Cr3   O27   S    
C50   C51   S    
C21   H7    S    
Cr5   O8    S    
C52   O27   A    
C36   H16   S    
C26   C36   S    
C48   C49   S    
C49   C50   T    
C66   O26   S    
Cr2   O12   S    
Cr6   O11   S    
C31   C35   S    
C42   C43   T    
C60   O10   A    
Cr5   O11   S    
C25   C30   S    
C15   C17   S    
C54   O31   A    
Cr3   O16   S    
C11   C17   S    
C64   O20   D    
C3    C69   S    
C59   O9    A    
Cr2   O28   S    
C2    C8    S    
C58   O6    A    
C17   C22   S    
C3    C5    S    
C45   H2    S    
C28   C53   S    
C6    C7    S    
C11   H5    S    
Cr3   O23   S    
C10   H6    S    
C16   O1    A    
C33   C38   S    
C32   C33   S    
C19   C24   S    
C9    C68   T    
C27   C59   S    
C30   C32   S    
Cr1   O28   S    
C40   O23   A    
C27   C37   T    
C55   C61   S    
C29   C40   S    
C13   C22   T    
C18   C20   S    
C61   C62   T    
C18   H12   S    
Cr1   O18   S    
C7    H3    S    
C66   C69   S    
C20   C21   S    
C8    C67   T    
Cr4   O29   S    
C66   O25   D    
Cr2   O13   S    
C65   O24   S    
C40   O12   A    
C2    C56   S    
C1    C14   S    
C25   C33   S    
C15   H13   S    
C19   C21   S    
