data_mof_unit_44936.cif
_audit_creation_date              2012-10-26T19:21:07-0400
_audit_creation_method            fapswitch 2.2
_symmetry_space_group_name_H-M    P1
_symmetry_Int_Tables_number       1
_space_group_crystal_system       triclinic
_cell_length_a                    9.833812
_cell_length_b                    11.026093
_cell_length_c                    13.495425
_cell_angle_alpha                 93.54678
_cell_angle_beta                  83.035292
_cell_angle_gamma                 110.184671
_cell_volume                      1362.97233679

loop_
_atom_site_label
_atom_site_type_symbol
_atom_type_description
_atom_site_fract_x
_atom_site_fract_y
_atom_site_fract_z
_atom_type_partial_charge
C1    C     C_R   0.555525 0.745167 0.505281 0.548611
C2    C     C_R   0.375687 0.445161 0.795730 0.002234
C3    C     C_2   0.586704 0.882942 0.495441 -0.085477
C4    C     C_R   0.422278 0.476163 0.689165 0.526393
C5    C     C_2   0.481479 0.925721 0.474795 -0.122243
C6    C     C_2   0.416088 0.116490 0.489800 -0.093405
C7    C     C_2   0.512872 0.060478 0.451336 0.225093
C8    C     C_2   0.913292 0.474417 0.506527 0.038143
C9    C     C_2   0.068474 0.488939 0.520121 0.080777
C10   C     C_R   0.446046 0.255097 0.489982 0.580563
C11   C     C_R   0.576271 0.511575 0.310004 0.581473
C12   C     C_R   0.433633 0.444984 0.967654 0.035734
C13   C     C_R   0.803357 0.536180 0.060782 0.049066
C14   C     C_R   0.618756 0.511956 0.202127 -0.008298
C15   C     C_R   0.229605 0.423682 0.831635 -0.114602
C16   C     C_R   0.183692 0.406143 0.932506 -0.109790
C17   C     C_R   0.284222 0.420958 0.000373 -0.107545
C18   C     C_2   0.920425 0.668976 0.594548 0.712522
C19   C     C_2   0.961670 0.587365 0.024895 0.549261
C20   C     C_R   0.475190 0.442032 0.863558 0.034151
C21   C     C_R   0.543449 0.472309 0.034241 0.009352
C22   C     C_R   0.691085 0.492557 0.996088 0.031843
C23   C     C_R   0.720584 0.461611 0.895690 -0.092014
C24   C     C_R   0.613542 0.433048 0.831453 -0.095423
C25   C     C_R   0.511147 0.482877 0.137478 -0.112353
C26   C     C_R   0.764358 0.540856 0.163760 -0.086050
Cu1   Cu    Cu3+1 0.362000 0.479240 0.482530 1.120078
Cu2   Cu    Cu3+1 0.638000 0.520760 0.517470 1.068156
H1    H     H_    0.848030 0.570459 0.214402 0.212524
H2    H     H_    0.240103 0.411519 0.077490 0.151842
H3    H     H_    0.069758 0.385565 0.958793 0.154096
H4    H     H_    0.640981 0.399982 0.757388 0.145147
H5    H     H_    0.127716 0.273052 0.223840 0.347073
H6    H     H_    0.104536 0.822650 0.604505 0.325956
H7    H     H_    0.168429 0.634315 0.058719 0.357595
H8    H     H_    0.760891 0.065883 0.227744 0.375292
H9    H     H_    0.369102 0.861110 0.476006 0.171032
H10   H     H_    0.314474 0.058971 0.531160 0.065259
H11   H     H_    0.697519 0.948315 0.499427 0.172547
H12   H     H_    0.107085 0.528858 0.591023 0.120016
H13   H     H_    0.849625 0.388794 0.468963 0.231149
H14   H     H_    0.825292 0.455422 0.866142 0.146288
H15   H     H_    0.402019 0.467742 0.169879 0.191362
H16   H     H_    0.150038 0.420438 0.781691 0.136652
N1    N     N_2   0.845330 0.551960 0.543750 -0.264293
N2    N     N_2   0.154690 0.448120 0.456210 -0.054728
O1    O     O_R   0.426290 0.668220 0.490680 -0.496610
O2    O     O_2   0.216165 0.550777 0.277799 -0.251947
O3    O     O_3   0.182522 0.306733 0.282355 -0.491527
O4    O     O_2   0.854740 0.709605 0.663780 -0.470616
O5    O     O_R   0.065459 0.740917 0.562757 -0.719340
O6    O     O_2   0.003137 0.632752 0.941690 -0.516397
O7    O     O_R   0.064466 0.591526 0.089394 -0.663479
O8    O     O_2   0.656279 0.251682 0.319303 -0.254018
O9    O     O_2   0.802120 0.166084 0.413031 -0.301156
O10   O     O_3   0.668917 0.024459 0.270565 -0.495717
O11   O     O_R   0.659360 0.703290 0.520190 -0.470340
O12   O     O_R   0.326580 0.473880 0.629020 -0.546602
O13   O     O_R   0.559660 0.508940 0.658530 -0.497145
O14   O     O_R   0.340640 0.296710 0.479810 -0.471294
O15   O     O_R   0.573710 0.331780 0.509320 -0.504012
O16   O     O_R   0.440340 0.491060 0.341470 -0.433568
O17   O     O_R   0.673420 0.526120 0.370980 -0.485322
O18   O     O_2   0.970779 0.397722 0.311320 -0.254009
S1    S     S_3+6 0.126356 0.428068 0.330444 0.137481
S2    S     S_3+6 0.665016 0.132951 0.363116 0.034564

loop_
_geom_bond_atom_site_label_1
_geom_bond_atom_site_label_2
_ccdc_geom_bond_type
C12   C17   A    
C6    C10   S    
C10   O14   A    
C23   C24   A    
C24   H4    S    
C6    C7    D    
O8    S2    D    
Cu1   O16   S    
C5    H9    S    
O2    S1    D    
H7    O7    S    
C2    C4    S    
C18   O4    D    
C2    C15   A    
C3    C5    D    
C11   O16   A    
O18   S1    D    
C12   C20   A    
C6    H10   S    
C3    H11   S    
C9    N2    D    
Cu2   O11   S    
C14   C26   A    
C7    S2    S    
C17   H2    S    
C18   N1    S    
C19   O7    S    
H6    O5    S    
C16   C17   A    
C23   H14   S    
O3    S1    S    
N2    S1    S    
H8    O10   S    
C12   C21   A    
C4    O13   A    
C25   H15   S    
C13   C22   A    
C1    O11   A    
Cu1   O14   S    
C14   C25   A    
C15   H16   S    
C13   C26   A    
C11   C14   S    
O10   S2    S    
Cu2   N1    S    
C10   O15   A    
C13   C19   S    
Cu2   O15   S    
H5    O3    S    
C15   C16   A    
Cu2   O17   S    
C20   C24   A    
O9    S2    D    
C8    H13   S    
Cu1   N2    S    
C26   H1    S    
Cu2   O13   S    
Cu1   O1    S    
Cu1   Cu2   S    
C5    C7    S    
C2    C20   A    
C21   C25   A    
C22   C23   A    
C1    O1    A    
C4    O12   A    
C21   C22   A    
C11   O17   A    
C16   H3    S    
C19   O6    D    
C9    H12   S    
C18   O5    S    
C8    N1    D    
C8    C9    S    
C1    C3    S    
Cu1   O12   S    
