data_mof_unit_49147.cif
_audit_creation_date              2012-12-11T14:52:45-0500
_audit_creation_method            fapswitch 2.2
_symmetry_space_group_name_H-M    P1
_symmetry_Int_Tables_number       1
_space_group_crystal_system       triclinic
_cell_length_a                    19.455642
_cell_length_b                    11.557692
_cell_length_c                    18.748737
_cell_angle_alpha                 89.671799
_cell_angle_beta                  91.22181
_cell_angle_gamma                 88.643738
_cell_volume                      4213.66318562

loop_
_atom_site_label
_atom_site_type_symbol
_atom_type_description
_atom_site_fract_x
_atom_site_fract_y
_atom_site_fract_z
_atom_type_partial_charge
C1    C     C_R   0.272959 0.048057 0.849968 0.531750
C2    C     C_R   0.702281 0.564336 0.031892 0.175334
C3    C     C_3   0.024563 0.322931 0.066389 0.004799
C4    C     C_3   0.382302 0.797504 0.993592 -0.298582
C5    C     C_3   0.342470 0.907907 0.993783 -0.441847
C6    C     C_3   0.666751 0.840178 0.982801 -0.288009
C7    C     C_3   0.685587 0.838568 0.903933 -0.427585
C8    C     C_3   0.852490 0.342950 0.019259 -0.239581
C9    C     C_3   0.835560 0.310901 0.095926 -0.395656
C10   C     C_3   0.140796 0.306783 0.993225 -0.304671
C11   C     C_3   0.176724 0.417154 0.994289 -0.431384
C12   C     C_3   0.371046 0.513239 0.424025 -0.273556
C13   C     C_R   0.796841 0.038524 0.967863 0.193132
C14   C     C_3   0.424532 0.602433 0.442074 -0.446051
C15   C     C_3   0.650470 0.421730 0.560142 -0.252041
C16   C     C_3   0.581972 0.422432 0.518057 -0.438432
C17   C     C_3   0.871065 0.013146 0.424086 -0.273900
C18   C     C_3   0.924434 0.102594 0.442004 -0.446752
C19   C     C_3   0.150328 0.921986 0.560244 -0.252391
C20   C     C_3   0.081809 0.922681 0.518189 -0.438465
C21   C     C_3   0.370646 0.469106 0.582612 -0.269410
C22   C     C_3   0.356193 0.400773 0.651628 -0.371327
C23   C     C_3   0.707877 0.404762 0.410196 -0.281949
C24   C     C_R   0.202835 0.071390 0.025490 0.155229
C25   C     C_3   0.774270 0.367828 0.373695 -0.371537
C26   C     C_3   0.870616 0.969005 0.582689 -0.265757
C27   C     C_3   0.856106 0.900692 0.651706 -0.379007
C28   C     C_3   0.207786 0.904822 0.410322 -0.283065
C29   C     C_3   0.274264 0.867697 0.374062 -0.368993
C30   C     C_R   0.296803 0.596902 0.055622 -0.194693
C31   C     C_R   0.703454 0.563114 0.957932 -0.170077
C32   C     C_R   0.788685 0.029507 0.040018 -0.181966
C33   C     C_R   0.204339 0.074196 0.952033 -0.202114
C34   C     C_R   0.236212 0.619292 0.085791 -0.056388
C35   C     C_R   0.761461 0.593921 0.923458 -0.094867
C36   C     C_R   0.732869 0.078554 0.073592 -0.122797
C37   C     C_R   0.724935 0.041250 0.146761 0.542459
C38   C     C_R   0.260940 0.109592 0.917884 -0.093498
C39   C     C_R   0.179269 0.676318 0.045227 0.266774
C40   C     C_R   0.815104 0.651203 0.962664 0.192617
C41   C     C_R   0.677479 0.136923 0.033813 0.245251
C42   C     C_R   0.315367 0.170018 0.956906 0.231244
C43   C     C_R   0.185649 0.678379 0.968441 0.188456
C44   C     C_R   0.813914 0.650721 0.038321 0.152371
C45   C     C_R   0.681977 0.134659 0.957789 0.182386
C46   C     C_R   0.312491 0.166372 0.033829 0.177228
C47   C     C_R   0.250628 0.642289 0.937213 -0.058439
C48   C     C_R   0.773767 0.543330 0.852499 0.536908
C49   C     C_R   0.754584 0.610275 0.072992 -0.047499
C50   C     C_R   0.745084 0.095403 0.925105 -0.073159
C51   C     C_R   0.253019 0.121535 0.068085 -0.046123
C52   C     C_R   0.540296 0.748158 0.549521 -0.204906
C53   C     C_R   0.553544 0.747871 0.477127 -0.218458
C54   C     C_R   0.040273 0.248241 0.549496 -0.204171
C55   C     C_R   0.053504 0.247916 0.477101 -0.218320
C56   C     C_R   0.522849 0.831744 0.431488 -0.039881
C57   C     C_R   0.504529 0.841387 0.578978 -0.017392
C58   C     C_R   0.022786 0.331750 0.431448 -0.039318
C59   C     C_R   0.226575 0.550351 0.151164 0.542514
C60   C     C_R   0.004461 0.341427 0.578932 -0.016906
C61   C     C_R   0.490686 0.930454 0.460533 0.235955
C62   C     C_R   0.491109 0.941958 0.535584 0.250734
C63   C     C_R   0.990595 0.430456 0.460462 0.236339
C64   C     C_R   0.990998 0.441977 0.535515 0.250615
C65   C     C_R   0.469758 0.818601 0.854309 0.534114
C66   C     C_R   0.561889 0.815427 0.138793 0.544919
C67   C     C_R   0.946918 0.319094 0.861903 0.588359
C68   C     C_R   0.053468 0.317494 0.138520 0.548372
C69   C     C_R   0.187938 0.591550 0.544680 -0.158229
C70   C     C_3   0.550514 0.721601 0.957898 -0.065602
C71   C     C_R   0.761659 0.703661 0.477579 -0.100315
C72   C     C_R   0.687935 0.091446 0.544705 -0.158775
C73   C     C_R   0.261684 0.203701 0.477595 -0.100334
C74   C     C_R   0.183159 0.585181 0.472185 -0.158002
C75   C     C_R   0.763881 0.685179 0.549802 -0.122846
C76   C     C_R   0.683156 0.085076 0.472207 -0.158333
C77   C     C_R   0.263917 0.185228 0.549820 -0.121750
C78   C     C_R   0.241268 0.560356 0.431775 -0.002103
C79   C     C_R   0.741055 0.582237 0.577335 0.025550
C80   C     C_R   0.741270 0.060284 0.431795 -0.002718
C81   C     C_3   0.505763 0.716694 0.025236 -0.053407
C82   C     C_R   0.241015 0.082348 0.577375 0.026086
C83   C     C_R   0.305265 0.530241 0.466588 0.007693
C84   C     C_R   0.704162 0.504613 0.531762 0.000741
C85   C     C_R   0.805266 0.030147 0.466620 0.007415
C86   C     C_R   0.204031 0.004815 0.531825 0.000652
C87   C     C_R   0.307094 0.521930 0.542547 0.025195
C88   C     C_R   0.717604 0.509584 0.458272 0.018808
C89   C     C_R   0.807087 0.021855 0.542585 0.026804
C90   C     C_R   0.217480 0.009716 0.458337 0.018576
C91   C     C_R   0.250374 0.572233 0.579370 0.012380
C92   C     C_3   0.018368 0.228820 0.968422 -0.046782
C93   C     C_R   0.743457 0.613714 0.431603 0.087263
C94   C     C_R   0.750369 0.072172 0.579395 0.013034
C95   C     C_R   0.243416 0.113772 0.431634 0.087284
C96   C     C_R   0.266594 0.665938 0.859580 0.587157
C97   C     C_R   0.739625 0.643426 0.147382 0.600085
C98   C     C_R   0.760378 0.138870 0.852197 0.591006
C99   C     C_R   0.238693 0.146981 0.145317 0.609880
C100  C     C_R   0.270173 0.042877 0.646252 0.543195
C101  C     C_R   0.727039 0.039494 0.356143 0.517609
C102  C     C_R   0.770180 0.542856 0.646243 0.540563
C103  C     C_3   0.976606 0.231840 0.037799 -0.029345
C104  C     C_R   0.227036 0.539502 0.356137 0.516516
C105  C     C_R   0.469831 0.824426 0.647885 0.544666
C106  C     C_R   0.537434 0.822615 0.355546 0.593087
C107  C     C_R   0.969806 0.324434 0.647865 0.551844
C108  C     C_R   0.037394 0.322619 0.355522 0.589905
C109  C     C_R   0.260123 0.634508 0.645831 0.558317
C110  C     C_R   0.738861 0.643274 0.357209 0.555088
C111  C     C_R   0.760120 0.134492 0.645840 0.547800
C112  C     C_R   0.238852 0.143288 0.357223 0.553378
C113  C     C_3   0.496892 0.905119 0.026950 -0.010331
C114  C     C_R   0.302008 0.596701 0.983004 0.112667
C115  C     C_3   0.542056 0.910701 0.959819 -0.036058
C116  C     C_3   0.977818 0.419677 0.037424 -0.036978
C117  C     C_3   0.019517 0.418573 0.967089 -0.043840
C118  C     C_3   0.457563 0.809040 0.992310 -0.026305
C119  C     C_3   0.591807 0.818899 0.992889 -0.039965
C120  C     C_3   0.929938 0.329708 0.006679 0.001756
C121  C     C_3   0.065100 0.320919 0.998122 -0.046898
C122  C     C_3   0.501300 0.815233 0.926460 0.023199
C123  C     C_3   0.546751 0.815330 0.060051 0.007088
C124  C     C_3   0.971866 0.327264 0.936987 0.051223
Cr1   Cr    Cr6+3 0.229630 0.835900 0.747350 1.071867
Cr2   Cr    Cr6+3 0.614200 0.677120 0.250660 1.025450
Cr3   Cr    Cr6+3 0.885800 0.177120 0.749340 1.068705
Cr4   Cr    Cr6+3 0.114200 0.177120 0.250660 1.038961
Cr5   Cr    Cr6+3 0.770370 0.835900 0.252650 1.064353
Cr6   Cr    Cr6+3 0.729630 0.335900 0.747350 1.074109
Cr7   Cr    Cr6+3 0.270370 0.335900 0.252650 1.071887
Cr8   Cr    Cr6+3 0.387410 0.989850 0.750850 1.135149
Cr9   Cr    Cr6+3 0.612590 0.989850 0.249150 1.118579
Cr10  Cr    Cr6+3 0.887410 0.489850 0.750850 1.138557
Cr11  Cr    Cr6+3 0.112590 0.489850 0.249150 1.111142
Cr12  Cr    Cr6+3 0.385800 0.677120 0.749340 1.061657
H1    H     H_    0.144033 0.621556 0.573827 0.227937
H2    H     H_    0.558128 0.968280 0.918222 0.212052
H3    H     H_    0.915240 0.712543 0.551231 0.357638
H4    H     H_    0.960157 0.472446 0.081477 0.233980
H5    H     H_    0.038154 0.486232 0.932507 0.242973
H6    H     H_    0.569929 0.645875 0.927916 0.160395
H7    H     H_    0.485467 0.640063 0.052371 0.172209
H8    H     H_    0.037109 0.150556 0.940004 0.170539
H9    H     H_    0.960408 0.160255 0.072239 0.214054
H10   H     H_    0.338803 0.566250 0.090095 0.184145
H11   H     H_    0.663423 0.520115 0.927875 0.214672
H12   H     H_    0.828997 0.988057 0.072105 0.243272
H13   H     H_    0.777944 0.786405 0.457420 0.142002
H14   H     H_    0.163048 0.038487 0.920012 0.212689
H15   H     H_    0.556712 0.674744 0.582298 0.148168
H16   H     H_    0.584994 0.678592 0.455653 0.155494
H17   H     H_    0.056739 0.174888 0.582298 0.149244
H18   H     H_    0.084968 0.178634 0.455646 0.155621
H19   H     H_    0.345036 0.944647 0.047869 0.213086
H20   H     H_    0.364565 0.965090 0.953832 0.215360
H21   H     H_    0.288181 0.889544 0.979923 0.163696
H22   H     H_    0.368856 0.753710 0.943644 0.187678
H23   H     H_    0.372453 0.754139 0.044432 0.168657
H24   H     H_    0.644039 0.121438 0.573863 0.228174
H25   H     H_    0.660967 0.912020 0.874349 0.175420
H26   H     H_    0.741587 0.846960 0.899560 0.204395
H27   H     H_    0.669442 0.757742 0.877639 0.150898
H28   H     H_    0.675661 0.924495 0.004523 0.140880
H29   H     H_    0.698853 0.781452 0.014808 0.132575
H30   H     H_    0.859330 0.226702 0.112340 0.145477
H31   H     H_    0.852521 0.379051 0.133377 0.203085
H32   H     H_    0.779871 0.299986 0.099798 0.222966
H33   H     H_    0.836774 0.433312 0.008833 0.148304
H34   H     H_    0.820976 0.291374 0.982216 0.191590
H35   H     H_    0.278035 0.286397 0.457423 0.142016
H36   H     H_    0.171354 0.457694 0.940906 0.207511
H37   H     H_    0.152712 0.469447 0.035988 0.178083
H38   H     H_    0.231694 0.399442 0.007740 0.193101
H39   H     H_    0.156470 0.261563 0.042344 0.155361
H40   H     H_    0.152210 0.264792 0.942063 0.171723
H41   H     H_    0.401740 0.691233 0.437402 0.164346
H42   H     H_    0.447148 0.589266 0.495774 0.148629
H43   H     H_    0.467087 0.592916 0.404059 0.177236
H44   H     H_    0.392641 0.424047 0.430928 0.155960
H45   H     H_    0.363237 0.526734 0.366247 0.183953
H46   H     H_    0.133126 0.601975 0.447681 0.226395
H47   H     H_    0.563958 0.511398 0.506281 0.128836
H48   H     H_    0.584912 0.373587 0.467624 0.180466
H49   H     H_    0.542197 0.381416 0.550744 0.188630
H50   H     H_    0.672398 0.332688 0.562177 0.186131
H51   H     H_    0.634727 0.447213 0.614332 0.181158
H52   H     H_    0.901625 0.191313 0.436775 0.163810
H53   H     H_    0.946733 0.090182 0.495899 0.148741
H54   H     H_    0.967197 0.092628 0.404272 0.176965
H55   H     H_    0.892757 0.924046 0.431132 0.156314
H56   H     H_    0.863290 0.026333 0.366283 0.184090
H57   H     H_    0.785665 0.749033 0.583910 0.131239
H58   H     H_    0.063680 0.011645 0.506593 0.128880
H59   H     H_    0.084759 0.874110 0.467658 0.180542
H60   H     H_    0.042106 0.881371 0.550830 0.187977
H61   H     H_    0.172238 0.832929 0.562298 0.185407
H62   H     H_    0.134619 0.947520 0.614438 0.181313
H63   H     H_    0.300448 0.395049 0.662066 0.156951
H64   H     H_    0.378885 0.312388 0.649981 0.178274
H65   H     H_    0.381410 0.441886 0.698433 0.196457
H66   H     H_    0.399499 0.409741 0.547583 0.120567
H67   H     H_    0.406388 0.538914 0.596810 0.183583
H68   H     H_    0.633122 0.101856 0.447703 0.226162
H69   H     H_    0.787841 0.431350 0.332148 0.213673
H70   H     H_    0.817047 0.358288 0.413645 0.178948
H71   H     H_    0.767235 0.283319 0.347026 0.146157
H72   H     H_    0.692849 0.328194 0.441335 0.152466
H73   H     H_    0.666645 0.422395 0.369525 0.175947
H74   H     H_    0.800353 0.895029 0.662125 0.151121
H75   H     H_    0.878760 0.812278 0.650060 0.175949
H76   H     H_    0.881314 0.941777 0.698529 0.192186
H77   H     H_    0.899488 0.909643 0.547684 0.120359
H78   H     H_    0.906375 0.038776 0.596905 0.183364
H79   H     H_    0.285784 0.249020 0.583912 0.131318
H80   H     H_    0.288035 0.931210 0.332594 0.215986
H81   H     H_    0.316908 0.858028 0.414159 0.178251
H82   H     H_    0.267227 0.783222 0.347356 0.147968
H83   H     H_    0.192621 0.828342 0.441460 0.152402
H84   H     H_    0.166667 0.922449 0.369522 0.175828
H85   H     H_    0.437812 0.464801 0.037214 0.377462
H86   H     H_    0.565171 0.488878 0.125653 0.368997
H87   H     H_    0.983295 0.988884 0.991022 0.409407
H88   H     H_    0.065071 0.985610 0.133857 0.393469
H89   H     H_    0.066007 0.751173 0.198464 0.334268
H90   H     H_    0.468422 0.962483 0.062023 0.235918
H91   H     H_    0.958843 0.656975 0.843553 0.377183
H92   H     H_    0.564623 0.261316 0.180010 0.343641
H93   H     H_    0.462678 0.119481 0.846909 0.393296
H94   H     H_    0.062184 0.823911 0.841903 0.359567
H95   H     H_    0.940361 0.621595 0.187644 0.372168
H96   H     H_    0.563481 0.334827 0.858645 0.371549
H97   H     H_    0.433073 0.077368 0.178192 0.385797
H98   H     H_    0.478936 0.189875 0.347056 0.351257
H99   H     H_    0.415315 0.212453 0.551308 0.357342
H100  H     H_    0.979369 0.688257 0.345508 0.347270
O1    O     O_R   0.214270 0.709000 0.827470 -0.413278
O2    O     O_R   0.543270 0.717630 0.330160 -0.542312
O3    O     O_3   0.915903 0.640034 0.579485 -0.478034
O4    O     O_R   0.956730 0.217630 0.669840 -0.549704
O5    O     O_R   0.043270 0.217630 0.330160 -0.544597
O6    O     O_R   0.320620 0.625640 0.672920 -0.519335
O7    O     O_R   0.679380 0.625640 0.327080 -0.531311
O8    O     O_R   0.820620 0.125640 0.672920 -0.524400
O9    O     O_R   0.179380 0.125640 0.327080 -0.532820
O10   O     O_3   0.334280 0.834290 0.749180 -0.329394
O11   O     O_3   0.665720 0.834290 0.250820 -0.346569
O12   O     O_3   0.834280 0.334290 0.749180 -0.330886
O13   O     O_R   0.785730 0.709000 0.172530 -0.433412
O14   O     O_3   0.165720 0.334290 0.250820 -0.341678
O15   O     O_R   0.236160 0.958490 0.823130 -0.497468
O16   O     O_R   0.763840 0.958490 0.176870 -0.511643
O17   O     O_R   0.736160 0.458490 0.823130 -0.497932
O18   O     O_R   0.263840 0.458490 0.176870 -0.496300
O19   O     O_R   0.332080 0.075470 0.831280 -0.448863
O20   O     O_R   0.667920 0.075470 0.168720 -0.424413
O21   O     O_R   0.832080 0.575470 0.831280 -0.439361
O22   O     O_R   0.167920 0.575470 0.168720 -0.438771
O23   O     O_R   0.446300 0.918110 0.826620 -0.489302
O24   O     O_R   0.714270 0.209000 0.827470 -0.419261
O25   O     O_R   0.553700 0.918110 0.173380 -0.459909
O26   O     O_R   0.946300 0.418110 0.826620 -0.486886
O27   O     O_R   0.053700 0.418110 0.173380 -0.468235
O28   O     O_R   0.457110 0.716200 0.831760 -0.481035
O29   O     O_R   0.542890 0.716200 0.168240 -0.521887
O30   O     O_R   0.957110 0.216200 0.831760 -0.459172
O31   O     O_R   0.042890 0.216200 0.168240 -0.497737
O32   O     O_R   0.320980 0.624310 0.823030 -0.423616
O33   O     O_R   0.679020 0.624310 0.176970 -0.468388
O34   O     O_R   0.820980 0.124310 0.823030 -0.426886
O35   O     O_R   0.285730 0.209000 0.172530 -0.430366
O36   O     O_R   0.179020 0.124310 0.176970 -0.447901
O37   O     O_R   0.213890 0.710430 0.665540 -0.516283
O38   O     O_R   0.786110 0.710430 0.334460 -0.478125
O39   O     O_R   0.713890 0.210430 0.665540 -0.516838
O40   O     O_R   0.286110 0.210430 0.334460 -0.479892
O41   O     O_R   0.235810 0.959820 0.673020 -0.542916
O42   O     O_R   0.764190 0.959820 0.326980 -0.530162
O43   O     O_R   0.735810 0.459820 0.673020 -0.543538
O44   O     O_R   0.264190 0.459820 0.326980 -0.532837
O45   O     O_R   0.331700 0.076900 0.669350 -0.443388
O46   O     O_R   0.445950 0.919440 0.676520 -0.422423
O47   O     O_R   0.668300 0.076900 0.330650 -0.501829
O48   O     O_R   0.831700 0.576900 0.669350 -0.447295
O49   O     O_R   0.168300 0.576900 0.330650 -0.502845
O50   O     O_2   0.320824 0.429099 0.904292 -0.230317
O51   O     O_2   0.420420 0.555340 0.914519 -0.261942
O52   O     O_3   0.393321 0.429527 0.024883 -0.454576
O53   O     O_2   0.670832 0.363123 0.014028 -0.258793
O54   O     O_2   0.689135 0.417854 0.138636 -0.284307
O55   O     O_3   0.574976 0.492494 0.074092 -0.503035
O56   O     O_2   0.901086 0.973102 0.876433 -0.192175
O57   O     O_R   0.554050 0.919440 0.323480 -0.423698
O58   O     O_2   0.891038 0.153256 0.932622 -0.364720
O59   O     O_3   0.937121 0.991151 0.012257 -0.483213
O60   O     O_2   0.130324 0.900531 0.998530 -0.240154
O61   O     O_2   0.189578 0.907246 0.116199 -0.262415
O62   O     O_3   0.077707 0.035848 0.093484 -0.506272
O63   O     O_2   0.044845 0.796767 0.057388 -0.091047
O64   O     O_2   0.061779 0.599649 0.096571 -0.284812
O65   O     O_3   0.109694 0.763379 0.173564 -0.470999
O66   O     O_2   0.851152 0.784431 0.852222 -0.309897
O67   O     O_2   0.921796 0.803232 0.960390 -0.091444
O68   O     O_R   0.945950 0.419440 0.676520 -0.420133
O69   O     O_3   0.939725 0.623092 0.887384 -0.449133
O70   O     O_2   0.554620 0.282245 0.037663 -0.059917
O71   O     O_2   0.558131 0.090615 0.092028 -0.285612
O72   O     O_3   0.610712 0.257311 0.158510 -0.440375
O73   O     O_2   0.373435 0.272692 0.837788 -0.257115
O74   O     O_2   0.442681 0.297306 0.944347 -0.075142
O75   O     O_3   0.439073 0.100314 0.891754 -0.470695
O76   O     O_2   0.109538 0.599581 0.855749 -0.319920
O77   O     O_2   0.045353 0.682003 0.951231 -0.168943
O78   O     O_3   0.106193 0.822478 0.869501 -0.457865
O79   O     O_R   0.054050 0.419440 0.323480 -0.424561
O80   O     O_2   0.949766 0.651135 0.043432 -0.171446
O81   O     O_2   0.892599 0.804293 0.109101 -0.232047
O82   O     O_3   0.897899 0.595982 0.162937 -0.536927
O83   O     O_2   0.603792 0.109341 0.835410 -0.335198
O84   O     O_2   0.545468 0.151674 0.943459 -0.198410
O85   O     O_3   0.607386 0.319149 0.885047 -0.441277
O86   O     O_2   0.448612 0.150511 0.039686 -0.169574
O87   O     O_2   0.398451 0.284045 0.124306 -0.229267
O88   O     O_3   0.391037 0.064835 0.148769 -0.547870
O89   O     O_2   0.418702 0.979022 0.338460 -0.311379
O90   O     O_R   0.456730 0.717630 0.669840 -0.551761
O91   O     O_2   0.392126 0.096813 0.441629 -0.286316
O92   O     O_3   0.505963 0.133853 0.377157 -0.489166
O93   O     O_2   0.531674 0.083568 0.643136 -0.269760
O94   O     O_2   0.532801 0.160484 0.521754 -0.344637
O95   O     O_3   0.416005 0.139990 0.579612 -0.476633
O96   O     O_2   0.918631 0.478956 0.338376 -0.312676
O97   O     O_2   0.892180 0.597120 0.441426 -0.284463
O98   O     O_3   0.006039 0.633662 0.376914 -0.490909
O99   O     O_2   0.031570 0.583653 0.643028 -0.272873
O100  O     O_2   0.032717 0.660473 0.521629 -0.343781
S1    S     S_3+6 0.362432 0.502421 0.953273 0.024514
S2    S     S_3+6 0.890557 0.678893 0.088711 0.064584
S3    S     S_3+6 0.607715 0.176602 0.903923 0.059896
S4    S     S_3+6 0.389939 0.170823 0.086589 0.066766
S5    S     S_3+6 0.448915 0.036008 0.403413 0.034126
S6    S     S_3+6 0.495122 0.083768 0.571676 0.032012
S7    S     S_3+6 0.948903 0.536032 0.403272 0.033858
S8    S     S_3+6 0.995021 0.583805 0.571568 0.030792
S9    S     S_3+6 0.658460 0.455347 0.067714 0.039911
S10   S     S_3+6 0.882937 0.031270 0.944923 0.033691
S11   S     S_3+6 0.148910 0.974605 0.060279 0.021071
S12   S     S_3+6 0.096437 0.712767 0.090107 0.170713
S13   S     S_3+6 0.882423 0.722055 0.916138 0.111394
S14   S     S_3+6 0.598642 0.195085 0.078182 0.189598
S15   S     S_3+6 0.392856 0.219053 0.909231 0.173399
S16   S     S_3+6 0.109465 0.693022 0.911392 0.066112

loop_
_geom_bond_atom_site_label_1
_geom_bond_atom_site_label_2
_ccdc_geom_bond_type
C55   H18   S    
C87   C91   A    
C2    S9    S    
C96   O1    A    
C83   C87   A    
C19   C20   S    
C104  O44   A    
C90   C95   A    
Cr1   O37   S    
C17   H55   S    
C17   C85   S    
C11   H37   S    
O85   S3    S    
C94   C111  S    
C89   C94   A    
O91   S5    D    
C3    C68   S    
C19   H62   S    
Cr3   O34   S    
H87   O59   S    
C53   H16   S    
H96   O85   S    
C79   C102  S    
Cr11  O49   S    
O59   S10   S    
Cr7   O14   S    
C93   C110  S    
C72   C94   A    
C24   C51   A    
Cr8   O45   S    
C6    H29   S    
Cr3   O4    S    
C28   H84   S    
C21   C22   S    
C10   H40   S    
Cr5   O38   S    
C16   H47   S    
Cr10  O12   S    
O92   S5    S    
Cr5   O13   S    
H89   O65   S    
O88   S4    S    
C101  O42   A    
O75   S15   S    
C86   C90   A    
C97   O13   A    
Cr9   O47   S    
C7    H27   S    
C13   S10   S    
C12   H45   S    
C69   C74   A    
C65   C122  S    
O94   S6    D    
C56   C106  S    
Cr7   O44   S    
C15   C84   S    
C60   C107  S    
Cr11  O79   S    
C65   O28   A    
C73   C95   A    
Cr11  O14   S    
C25   H70   S    
C37   O16   A    
C8    H33   S    
Cr5   O11   S    
C3    C103  S    
C18   H54   S    
Cr11  O22   S    
C22   H65   S    
C84   C88   A    
C4    C5    S    
Cr6   O24   S    
C16   H48   S    
C6    C7    S    
C71   C93   A    
C119  C123  S    
C107  O4    A    
C108  O79   A    
C33   C38   A    
O51   S1    D    
C60   C64   A    
C35   C40   A    
O66   S13   D    
C77   C82   A    
C52   H15   S    
Cr4   O31   S    
O93   S6    D    
C49   C97   S    
O3    S8    S    
C41   C45   A    
Cr3   O12   S    
C48   O17   A    
C75   C79   A    
C3    C121  S    
C113  C115  S    
C96   O32   A    
C47   C114  A    
H99   O95   S    
C100  O41   A    
C99   O36   A    
C13   C32   A    
C102  O43   A    
C16   H49   S    
C45   S3    S    
Cr9   O25   S    
O52   S1    S    
C7    H25   S    
C81   C123  S    
C26   H77   S    
Cr4   O9    S    
C109  O6    A    
C36   C37   S    
C65   O23   A    
C3    C116  S    
C79   C84   A    
C24   S11   S    
C39   S12   S    
O62   S11   S    
C118  C122  S    
Cr6   O43   S    
O78   S16   S    
C68   O31   A    
O80   S2    D    
C108  O5    A    
C59   O22   A    
O72   S14   S    
C66   O25   A    
O87   S4    D    
C110  O38   A    
Cr4   O36   S    
C78   C83   A    
C114  S1    S    
C112  O9    A    
C50   C98   S    
C30   C34   A    
C78   C104  S    
C34   C39   A    
Cr1   O15   S    
C52   C57   A    
O86   S4    D    
C46   C51   A    
C64   S8    S    
Cr10  O48   S    
C116  C120  S    
C70   C122  S    
C37   O20   A    
C17   C18   S    
O67   S13   D    
Cr12  O10   S    
Cr5   O42   S    
Cr2   O29   S    
C14   H42   S    
C66   O29   A    
C29   H82   S    
C12   H44   S    
C115  C119  S    
C23   C88   S    
C74   C78   A    
C106  O57   A    
C6    C119  S    
C52   C53   A    
C103  H9    S    
H98   O92   S    
C53   C56   A    
C10   H39   S    
C54   C55   A    
C11   H38   S    
C73   C77   A    
Cr2   O11   S    
C9    H32   S    
C76   C80   A    
C1    O15   A    
C74   H46   S    
O58   S10   D    
Cr12  O32   S    
C92   C103  S    
C31   H11   S    
Cr7   O40   S    
O100  S8    D    
Cr8   O10   S    
C43   C47   A    
C99   O35   A    
C105  O90   A    
C61   C62   A    
C10   C11   S    
O71   S14   D    
C13   C50   A    
C40   C44   A    
C66   C123  S    
O69   S13   S    
C69   C91   A    
O98   S7    S    
H97   O88   S    
Cr8   O46   S    
O73   S15   D    
C69   H1    S    
Cr12  O90   S    
C103  C120  S    
C43   S16   S    
Cr1   O10   S    
C26   C27   S    
C61   S5    S    
C22   H64   S    
C28   C29   S    
C117  C124  S    
C95   C112  S    
C92   C124  S    
C4    H23   S    
C98   O24   A    
C42   C46   A    
C21   H67   S    
C63   S7    S    
C110  O7    A    
C100  O45   A    
C47   C96   S    
C20   H59   S    
O64   S12   D    
C10   C121  S    
C11   H36   S    
Cr4   O5    S    
C36   C41   A    
C25   H69   S    
C35   C48   S    
C8    H34   S    
C17   H56   S    
C15   H50   S    
C48   O21   A    
C19   H61   S    
C101  O47   A    
C102  O48   A    
C67   O30   A    
C85   C89   A    
C82   C86   A    
C81   C118  S    
C27   H74   S    
Cr4   O14   S    
C12   C83   S    
C117  H5    S    
C80   C85   A    
C22   H63   S    
O95   S6    S    
C113  C123  S    
C40   S13   S    
C105  O46   A    
O74   S15   D    
H94   O78   S    
C1    C38   S    
Cr9   O11   S    
O55   S9    S    
O61   S11   D    
C6    H28   S    
H91   O69   S    
C28   H83   S    
C5    H21   S    
C34   C59   S    
C31   C35   A    
H92   O72   S    
C32   C36   A    
Cr1   O1    S    
C77   H79   S    
C30   C114  A    
C9    H30   S    
Cr6   O12   S    
C21   H66   S    
C112  O40   A    
C32   H12   S    
C5    H20   S    
C24   C33   A    
Cr12  O6    S    
C26   H78   S    
C5    H19   S    
C45   C50   A    
C113  H90   S    
C71   H13   S    
Cr1   O41   S    
Cr10  O21   S    
C18   H52   S    
C58   C108  S    
O60   S11   D    
C107  O68   A    
Cr6   O17   S    
Cr7   O35   S    
C106  O2    A    
C55   C58   A    
Cr2   O7    S    
C56   C61   A    
C28   C90   S    
C25   H71   S    
C109  O37   A    
C1    O19   A    
C44   C49   A    
C57   C105  S    
C21   C87   S    
C18   H53   S    
Cr11  O27   S    
C111  O8    A    
Cr3   O30   S    
C23   H72   S    
Cr12  O28   S    
Cr2   O33   S    
C41   S14   S    
C72   C76   A    
C19   C86   S    
C97   O33   A    
C67   C124  S    
C54   H17   S    
Cr7   O18   S    
C57   C62   A    
H95   O82   S    
C54   C60   A    
C98   O34   A    
C26   C89   S    
C46   S4    S    
C38   C42   A    
C33   H14   S    
C15   C16   S    
C116  C117  S    
O65   S12   S    
C70   C81   S    
C117  C121  S    
C27   H76   S    
Cr8   O19   S    
C4    H22   S    
C8    C9    S    
O77   S16   D    
C111  O39   A    
C73   H35   S    
C14   H43   S    
H93   O75   S    
C104  O49   A    
C29   H81   S    
O82   S2    S    
Cr5   O16   S    
Cr10  O26   S    
C115  C122  S    
H88   O62   S    
C59   O18   A    
C4    C118  S    
Cr10  O68   S    
Cr9   O20   S    
C20   H58   S    
O99   S8    D    
C30   H10   S    
Cr8   O23   S    
Cr9   O57   S    
C51   C99   S    
C7    H26   S    
C70   H6    S    
H3    O3    S    
C9    H31   S    
O81   S2    D    
O70   S14   D    
C29   H80   S    
C39   C43   A    
C23   H73   S    
C15   H51   S    
H86   O55   S    
C63   C64   A    
O83   S3    D    
C2    C31   A    
H85   O52   S    
O84   S3    D    
C2    C49   A    
O53   S9    D    
C115  H2    S    
C70   C119  S    
C27   H75   S    
C62   S6    S    
O96   S7    D    
C75   H57   S    
C42   S15   S    
C12   C14   S    
C44   S2    S    
C67   O26   A    
O89   S5    D    
C8    C120  S    
O56   S10   D    
C58   C63   A    
O76   S16   D    
C88   C93   A    
C82   C100  S    
Cr3   O8    S    
C76   H68   S    
O63   S12   D    
C72   H24   S    
C80   C101  S    
C91   C109  S    
O50   S1    D    
O54   S9    D    
C92   C121  S    
C71   C75   A    
C23   C25   S    
C92   H8    S    
C14   H41   S    
C113  C118  S    
C81   H7    S    
O97   S7    D    
H100  O98   S    
Cr6   O39   S    
C20   H60   S    
C68   O27   A    
C120  C124  S    
C116  H4    S    
Cr2   O2    S    
