data_mof_unit_10498.cif
_audit_creation_date              2012-10-26T19:52:27-0400
_audit_creation_method            fapswitch 2.2
_symmetry_space_group_name_H-M    P1
_symmetry_Int_Tables_number       1
_space_group_crystal_system       triclinic
_cell_length_a                    9.574632
_cell_length_b                    10.839867
_cell_length_c                    13.451625
_cell_angle_alpha                 90.264537
_cell_angle_beta                  73.378748
_cell_angle_gamma                 90.085462
_cell_volume                      1337.76498433

loop_
_atom_site_label
_atom_site_type_symbol
_atom_type_description
_atom_site_fract_x
_atom_site_fract_y
_atom_site_fract_z
_atom_type_partial_charge
Br1   Br    Br    0.694719 0.287861 0.711592 -0.549799
C1    C     C_R   0.499047 0.737447 0.502895 0.547221
C2    C     C_R   0.382184 0.451188 0.809899 0.016720
C3    C     C_R   0.367665 0.935361 0.520103 0.023123
C4    C     C_R   0.423703 0.483788 0.698403 0.561922
C5    C     C_R   0.494905 0.870250 0.514973 0.005504
C6    C     C_R   0.616829 0.935494 0.525540 -0.152148
C7    C     C_R   0.616462 0.064158 0.525088 -0.109161
C8    C     C_R   0.494673 0.128784 0.513597 0.018618
C9    C     C_R   0.367326 0.062420 0.519379 0.021670
C10   C     C_3   0.267181 0.065758 0.452265 -0.268903
C11   C     C_3   0.267544 0.925935 0.453523 -0.256176
C12   C     C_R   0.441519 0.453717 0.975120 0.014896
C13   C     C_R   0.961950 0.471349 0.411949 0.146709
C14   C     C_R   0.892619 0.542765 0.582897 0.009002
C15   C     C_R   0.040969 0.541846 0.583245 -0.008752
C16   C     C_R   0.499052 0.262176 0.502128 0.571788
C17   C     C_R   0.109183 0.472155 0.411796 0.105015
C18   C     C_3   0.142062 0.355589 0.350856 -0.239949
C19   C     C_3   0.983311 0.353594 0.350580 0.099124
C20   C     C_R   0.577412 0.503726 0.300243 0.542784
C21   C     C_R   0.803550 0.508323 0.020318 -0.130383
C22   C     C_R   0.620331 0.505829 0.186431 0.003361
C23   C     C_R   0.487447 0.439532 0.865774 0.043236
C24   C     C_R   0.234064 0.438102 0.863732 -0.130590
C25   C     C_R   0.191144 0.425208 0.970948 -0.138563
C26   C     C_R   0.291458 0.440881 0.026654 -0.112393
C27   C     C_R   0.548315 0.475391 0.028052 0.024116
C28   C     C_R   0.697542 0.479049 0.970962 0.023154
C29   C     C_R   0.740318 0.442859 0.867273 -0.118925
C30   C     C_R   0.636002 0.411725 0.818040 0.157189
C31   C     C_R   0.512188 0.493572 0.135656 -0.124789
C32   C     C_R   0.766247 0.517949 0.128004 -0.129135
Cu1   Cu    Cu3+1 0.359330 0.500020 0.500010 0.943422
Cu2   Cu    Cu3+1 0.640670 0.499980 0.499990 1.007352
H1    H     H_    0.851128 0.533601 0.165303 0.115905
H2    H     H_    0.172858 0.281039 0.395943 0.153658
H3    H     H_    0.967873 0.364754 0.272300 0.137264
H4    H     H_    0.854606 0.427258 0.827635 0.124178
H5    H     H_    0.915310 0.521015 0.974954 0.101214
H6    H     H_    0.400552 0.496700 0.181895 0.116353
H7    H     H_    0.151380 0.437403 0.823094 0.124502
H8    H     H_    0.248104 0.438530 0.109541 0.088066
H9    H     H_    0.079030 0.406686 0.012437 0.115165
H10   H     H_    0.714828 0.887898 0.528742 0.140770
H11   H     H_    0.921903 0.249500 0.474563 0.343203
H12   H     H_    0.713798 0.111909 0.528894 0.198907
H13   H     H_    0.159021 0.105082 0.493947 0.149166
H14   H     H_    0.320126 0.104463 0.374105 0.137712
H15   H     H_    0.160289 0.885617 0.495849 0.146496
H16   H     H_    0.320454 0.883935 0.376338 0.145343
H17   H     H_    0.810741 0.576428 0.650610 0.130617
H18   H     H_    0.068578 0.573993 0.651437 0.116388
H19   H     H_    0.218927 0.368770 0.273007 0.086365
N1    N     N_R   0.852320 0.499070 0.499340 -0.209874
N2    N     N_R   0.148230 0.499110 0.499340 -0.233222
O1    O     O_R   0.381190 0.680360 0.500000 -0.499780
O2    O     O_R   0.618780 0.680320 0.499990 -0.514511
O3    O     O_R   0.323230 0.500000 0.650990 -0.519521
O4    O     O_R   0.560820 0.499960 0.650980 -0.480159
O5    O     O_R   0.381220 0.319680 0.500010 -0.511323
O6    O     O_R   0.618810 0.319640 0.500000 -0.426819
O7    O     O_R   0.439180 0.500040 0.349020 -0.512286
O8    O     O_R   0.676770 0.500000 0.349010 -0.500275
O9    O     O_3   0.905461 0.252820 0.404953 -0.679759

loop_
_geom_bond_atom_site_label_1
_geom_bond_atom_site_label_2
_ccdc_geom_bond_type
C24   H7    S    
C7    C8    A    
Cu1   O1    S    
C11   H15   S    
C10   C11   S    
C15   N2    A    
C12   C27   A    
Cu1   N2    S    
C28   C29   A    
C10   H14   S    
C21   C28   A    
C13   C19   S    
C16   O6    A    
C3    C11   S    
C19   H3    S    
C8    C9    A    
C13   C17   A    
C18   C19   S    
C17   N2    A    
C31   H6    S    
C21   H5    S    
C22   C31   A    
C11   H16   S    
C1    O2    A    
C13   N1    A    
C10   H13   S    
C23   C30   A    
C25   H9    S    
C6    C7    A    
C1    C5    S    
C14   H17   S    
C25   C26   A    
Cu2   O8    S    
Cu2   O2    S    
C6    H10   S    
C27   C31   A    
C8    C16   S    
Cu1   O7    S    
C29   H4    S    
C17   C18   S    
C5    C6    A    
C20   C22   S    
C29   C30   A    
C7    H12   S    
C20   O7    A    
C9    C10   S    
C4    O3    A    
C3    C9    A    
C14   C15   A    
Cu2   O4    S    
C26   H8    S    
C19   O9    S    
Br1   C30   S    
C32   H1    S    
C18   H19   S    
H11   O9    S    
C3    C5    A    
Cu1   Cu2   S    
C1    O1    A    
C21   C32   A    
C18   H2    S    
C15   H18   S    
C27   C28   A    
C20   O8    A    
C2    C24   A    
C4    O4    A    
C16   O5    A    
C24   C25   A    
Cu1   O3    S    
Cu2   N1    S    
Cu1   O5    S    
C12   C26   A    
C22   C32   A    
C12   C23   A    
C2    C23   A    
Cu2   O6    S    
C2    C4    S    
C14   N1    A    
