data_mof_unit_55710.cif
_audit_creation_date              2012-12-10T17:50:38-0500
_audit_creation_method            fapswitch 2.2
_symmetry_space_group_name_H-M    P1
_symmetry_Int_Tables_number       1
_space_group_crystal_system       triclinic
_cell_length_a                    15.714307
_cell_length_b                    10.634792
_cell_length_c                    9.983649
_cell_angle_alpha                 87.420335
_cell_angle_beta                  89.93601
_cell_angle_gamma                 94.239078
_cell_volume                      1662.18421111

loop_
_atom_site_label
_atom_site_type_symbol
_atom_type_description
_atom_site_fract_x
_atom_site_fract_y
_atom_site_fract_z
_atom_type_partial_charge
C1    C     C_R   0.498303 0.260606 0.503050 0.852332
C2    C     C_3   0.082758 0.490260 0.499415 0.148462
C3    C     C_3   0.975414 0.607501 0.503274 -0.131036
C4    C     C_3   0.916058 0.485606 0.501753 0.121304
C5    C     C_3   0.029650 0.555391 0.390822 -0.177052
C6    C     C_3   0.968184 0.433875 0.388495 -0.195300
C7    C     C_1   0.173774 0.493345 0.499787 0.023609
C8    C     C_1   0.825269 0.486738 0.501438 -0.007123
C9    C     C_R   0.654080 0.148658 0.572326 -0.174988
C10   C     C_R   0.733197 0.097618 0.579797 0.103640
C11   C     C_R   0.740413 0.975621 0.537135 -0.177540
C12   C     C_R   0.338215 0.499657 0.499972 0.923884
C13   C     C_R   0.668338 0.902733 0.495807 0.333562
C14   C     C_R   0.585804 0.948069 0.505914 -0.038956
C15   C     C_R   0.580539 0.075732 0.531749 0.030349
C16   C     C_R   0.502111 0.128510 0.510327 -0.125695
C17   C     C_R   0.428030 0.056702 0.479473 -0.229828
C18   C     C_R   0.429920 0.928412 0.472643 0.384486
C19   C     C_R   0.508130 0.873996 0.487161 -0.180786
C20   C     C_R   0.378386 0.349666 0.154872 -0.283151
C21   C     C_R   0.308878 0.285955 0.099426 0.344394
C22   C     C_R   0.302978 0.282358 0.961959 0.301368
C23   C     C_R   0.504968 0.739994 0.496648 1.005917
C24   C     C_R   0.369349 0.340302 0.879473 -0.035783
C25   C     C_R   0.436983 0.423662 0.933767 0.128813
C26   C     C_R   0.438783 0.425508 0.078039 0.080167
C27   C     C_R   0.558434 0.571621 0.067363 -0.070636
C28   C     C_R   0.558500 0.571538 0.924924 -0.098199
C29   C     C_R   0.661507 0.495709 0.500296 0.942968
C30   C     C_3   0.968151 0.419668 0.611448 -0.208978
C31   C     C_3   0.022010 0.371899 0.498034 0.114800
C32   C     C_1   0.249188 0.496483 0.500014 -0.089530
C33   C     C_1   0.750160 0.490196 0.500831 -0.113273
C34   C     C_3   0.028821 0.540119 0.609164 0.107736
H1    H     H_    0.802778 0.939205 0.529917 0.166709
H2    H     H_    0.606414 0.630583 0.117402 0.177199
H3    H     H_    0.382994 0.335803 0.259944 0.242078
H4    H     H_    0.606480 0.630365 0.868921 0.150209
H5    H     H_    0.942467 0.364561 0.701530 0.157399
H6    H     H_    0.941416 0.387909 0.298545 0.163095
H7    H     H_    0.056345 0.610520 0.301404 0.179865
H8    H     H_    0.954485 0.704695 0.507687 0.162864
H9    H     H_    0.368545 0.100631 0.462794 0.194070
H10   H     H_    0.650863 0.245366 0.599206 0.149792
N1    N     N_R   0.499210 0.498800 0.142780 -0.100165
N2    N     N_R   0.499180 0.498720 0.857170 -0.092442
O1    O     O_R   0.500000 0.316780 0.614690 -0.613952
O2    O     O_R   0.499990 0.316750 0.385360 -0.632878
O3    O     O_R   0.376780 0.500000 0.614650 -0.598928
O4    O     O_R   0.376770 0.499980 0.385310 -0.619818
O5    O     O_R   0.500010 0.683250 0.614640 -0.609754
O6    O     O_R   0.500000 0.683220 0.385310 -0.557800
O7    O     O_R   0.623230 0.500020 0.614690 -0.632823
O8    O     O_R   0.623220 0.500000 0.385350 -0.579550
Zn1   Zn    Zn3+2 0.500010 0.500020 0.653130 0.982828
Zn2   Zn    Zn3+2 0.499990 0.499980 0.346870 1.006962
N3    N     N_3   0.049847 0.244486 0.495100 -0.405566
H11   H     H_    0.995210 0.183064 0.487582 0.193168
H12   H     H_    0.084450 0.238968 0.406413 0.242849
Cl1   Cl    Cl    0.689110 0.775148 0.399248 -0.675281
Cl2   Cl    Cl    0.333024 0.838633 0.444878 -0.564902
Cl3   Cl    Cl    0.232924 0.203092 0.206953 -0.552264
Cl4   Cl    Cl    0.216069 0.191250 0.893168 -0.539740
N4    N     N_3   0.371884 0.295195 0.748331 -0.347934
H13   H     H_    0.312907 0.303587 0.701719 0.220980
H14   H     H_    0.381453 0.198762 0.756536 0.213027
N5    N     N_3   0.064041 0.599120 0.727787 -0.411924
H15   H     H_    0.012620 0.621132 0.786610 0.193290
H16   H     H_    0.095696 0.530917 0.782712 0.210982
N6    N     N_3   0.806484 0.174240 0.621718 -0.460421
H17   H     H_    0.796574 0.195097 0.721619 0.191447
H18   H     H_    0.860794 0.123148 0.620545 0.187389

loop_
_geom_bond_atom_site_label_1
_geom_bond_atom_site_label_2
_ccdc_geom_bond_type
C3    H8    S    
C2    C7    S    
C4    C8    S    
C12   O3    A    
N3    H11   S    
C13   Cl1   S    
C28   N2    A    
C20   C26   A    
C5    C6    S    
N3    H12   S    
C29   O8    A    
C15   C16   A    
C29   C33   S    
C18   C19   A    
C26   N1    A    
C22   Cl4   S    
N1    Zn2   S    
C16   C17   A    
N2    Zn1   S    
N6    H17   S    
C9    C10   A    
C2    C34   S    
C6    C31   S    
C24   N4    S    
C21   C22   A    
C12   C32   S    
O7    Zn1   S    
O8    Zn2   S    
C30   C34   S    
N5    H15   S    
C6    H6    S    
C24   C25   A    
C4    C6    S    
C1    O1    A    
C3    C34   S    
C25   C26   A    
O3    Zn1   S    
O4    Zn2   S    
C2    C31   S    
N5    H16   S    
N4    H14   S    
C19   C23   S    
C17   H9    S    
C23   O5    A    
C28   H4    S    
C17   C18   A    
C18   Cl2   S    
C1    C16   S    
C21   Cl3   S    
C10   N6    S    
C22   C24   A    
C2    C5    S    
C3    C4    S    
O1    Zn1   S    
O2    Zn2   S    
C5    H7    S    
C9    H10   S    
C7    C32   T    
C14   C19   A    
C3    C5    S    
C34   N5    S    
C12   O4    A    
C1    O2    A    
C27   H2    S    
N4    H13   S    
C31   N3    S    
C11   H1    S    
C9    C15   A    
C20   H3    S    
C11   C13   A    
C27   N1    A    
C23   O6    A    
C30   C31   S    
C29   O7    A    
C30   H5    S    
O5    Zn1   S    
C8    C33   T    
C10   C11   A    
C20   C21   A    
C27   C28   A    
C14   C15   A    
N6    H18   S    
C13   C14   A    
C25   N2    A    
C4    C30   S    
O6    Zn2   S    
