data_mof_unit_59297.cif
_audit_creation_date              2012-12-10T19:28:31-0500
_audit_creation_method            fapswitch 2.2
_symmetry_space_group_name_H-M    P1
_symmetry_Int_Tables_number       1
_space_group_crystal_system       triclinic
_cell_length_a                    27.756566
_cell_length_b                    10.511774
_cell_length_c                    9.823133
_cell_angle_alpha                 88.941813
_cell_angle_beta                  89.942541
_cell_angle_gamma                 90.161055
_cell_volume                      2865.60115778

loop_
_atom_site_label
_atom_site_type_symbol
_atom_type_description
_atom_site_fract_x
_atom_site_fract_y
_atom_site_fract_z
_atom_type_partial_charge
C1    C     C_R   0.499992 0.258081 0.501199 0.930722
C2    C     C_R   0.500006 0.741918 0.498802 0.930235
C3    C     C_R   0.101977 0.507181 0.497235 -0.057406
C4    C     C_R   0.898047 0.497665 0.495780 -0.057668
C5    C     C_R   0.127689 0.393024 0.479832 -0.028719
C6    C     C_R   0.872279 0.607686 0.531485 -0.030232
C7    C     C_R   0.103000 0.278865 0.462622 -0.120897
C8    C     C_R   0.896922 0.717767 0.567557 -0.120325
C9    C     C_R   0.127433 0.622632 0.515969 -0.072503
C10   C     C_R   0.872656 0.385627 0.461029 -0.071305
C11   C     C_R   0.353600 0.501873 0.500012 -0.082333
C12   C     C_R   0.646374 0.499155 0.499688 -0.081033
C13   C     C_R   0.975056 0.388664 0.464222 0.036591
C14   C     C_R   0.024980 0.618655 0.518731 0.036721
C15   C     C_R   0.973959 0.614641 0.526425 0.055932
C16   C     C_R   0.026042 0.389044 0.472778 0.057359
C17   C     C_R   0.949174 0.500259 0.495355 0.077483
C18   C     C_R   0.050845 0.505093 0.496155 0.076899
C19   C     C_R   0.949103 0.280060 0.423934 -0.249557
C20   C     C_R   0.051012 0.733276 0.532083 -0.248031
C21   C     C_R   0.899020 0.276928 0.423121 0.003674
C22   C     C_R   0.101114 0.736270 0.532427 0.006505
C23   C     C_R   0.406247 0.500339 0.500012 0.901171
C24   C     C_R   0.593743 0.499835 0.499961 0.900569
C25   C     C_R   0.053228 0.276368 0.460396 -0.209697
C26   C     C_R   0.946715 0.721182 0.566094 -0.210259
C27   C     C_3   0.501831 0.037035 0.632496 -0.289274
C28   C     C_3   0.498162 0.962960 0.367510 -0.289374
C29   C     C_3   0.539614 0.956630 0.558163 0.440931
C30   C     C_3   0.460379 0.043364 0.441844 0.441304
C31   C     C_3   0.499621 0.876565 0.496424 -0.120866
C32   C     C_3   0.500372 0.123430 0.503581 -0.120905
C33   C     C_3   0.461474 0.956368 0.568133 -0.127421
C34   C     C_3   0.538519 0.043624 0.431872 -0.127515
C35   C     C_3   0.465095 0.430918 0.049710 -0.234265
C36   C     C_3   0.534910 0.569077 0.950282 -0.235272
C37   C     C_3   0.504989 0.386969 0.954913 0.385263
C38   C     C_3   0.495018 0.613036 0.045085 0.385326
C39   C     C_3   0.460351 0.544512 0.951798 0.371865
C40   C     C_3   0.539652 0.455490 0.048206 0.370876
C41   C     C_R   0.177898 0.394934 0.481495 0.570268
C42   C     C_R   0.822062 0.605206 0.531538 0.576388
C43   C     C_R   0.178317 0.618988 0.516234 0.551490
C44   C     C_R   0.821798 0.388090 0.464655 0.544873
C45   C     C_R   0.278011 0.514612 0.375908 0.513661
C46   C     C_R   0.722115 0.481817 0.622445 0.515945
C47   C     C_R   0.328410 0.512748 0.376597 -0.309074
C48   C     C_R   0.671697 0.482991 0.622285 -0.312149
C49   C     C_R   0.328248 0.493081 0.623414 -0.208202
C50   C     C_R   0.671567 0.514409 0.376641 -0.205911
C51   C     C_R   0.278165 0.494881 0.623872 -0.053394
C52   C     C_R   0.721639 0.513776 0.375669 -0.054161
C53   C     C_R   0.253160 0.505600 0.500013 0.240107
C54   C     C_R   0.746832 0.497299 0.498648 0.238121
H1    H     H_    0.347313 0.484363 0.719384 0.210969
H2    H     H_    0.652369 0.527572 0.281365 0.208473
H3    H     H_    0.503876 0.068078 0.739591 0.220161
H4    H     H_    0.496116 0.931917 0.260415 0.220178
H5    H     H_    0.122127 0.190124 0.450998 0.201700
H6    H     H_    0.877764 0.802342 0.598001 0.197414
H7    H     H_    0.652412 0.470587 0.717573 0.164468
H8    H     H_    0.347770 0.520252 0.280968 0.165147
H9    H     H_    0.966974 0.195917 0.388623 0.139701
H10   H     H_    0.033223 0.823902 0.539528 0.135353
H11   H     H_    0.037266 0.183349 0.452247 0.141002
H12   H     H_    0.962644 0.808433 0.600301 0.144749
N1    N     N_R   0.201787 0.506543 0.499397 -0.336102
N2    N     N_R   0.798230 0.496771 0.498502 -0.335880
N3    N     N_3   0.499960 0.500030 0.863290 -0.128775
N4    N     N_3   0.500040 0.499970 0.136710 -0.128885
O1    O     O_R   0.500000 0.313960 0.616610 -0.576578
O2    O     O_R   0.500000 0.686040 0.383390 -0.576747
O3    O     O_R   0.500020 0.313950 0.383350 -0.598256
O4    O     O_R   0.499980 0.686050 0.616650 -0.598422
O5    O     O_R   0.428750 0.500030 0.616610 -0.574866
O6    O     O_R   0.571250 0.499970 0.383390 -0.574866
O7    O     O_R   0.428770 0.500020 0.383360 -0.627066
O8    O     O_R   0.571230 0.499980 0.616640 -0.626868
O9    O     O_2   0.202906 0.286179 0.465563 -0.526086
O10   O     O_2   0.796993 0.710346 0.563989 -0.527088
O11   O     O_2   0.795699 0.283717 0.435259 -0.532819
O12   O     O_2   0.204536 0.725784 0.532926 -0.530252
Zn1   Zn    Zn3+2 0.499990 0.500010 0.655740 1.051851
Zn2   Zn    Zn3+2 0.500010 0.499990 0.344260 1.051782
C55   C     C_1   0.418924 0.905249 0.639445 0.246146
N5    N     N_1   0.385423 0.864674 0.695587 -0.138608
C56   C     C_1   0.581070 0.094721 0.360550 0.244865
N6    N     N_1   0.614572 0.135274 0.304396 -0.137555
O13   O     O_3   0.511027 0.265589 0.902170 -0.750376
H13   H     H_    0.513893 0.207753 0.982582 0.332135
O14   O     O_3   0.488983 0.734418 0.097823 -0.750297
H14   H     H_    0.486144 0.792260 0.017409 0.332165
C57   C     C_1   0.426038 0.353422 0.108518 0.285720
N7    N     N_1   0.395146 0.292312 0.154623 -0.136156
C58   C     C_1   0.574022 0.646325 0.891391 0.286668
N8    N     N_1   0.604968 0.707182 0.845188 -0.134330
O15   O     O_3   0.418081 0.594160 0.895115 -0.736826
H15   H     H_    0.397522 0.616356 0.973687 0.329163
O16   O     O_3   0.581931 0.405906 0.104917 -0.734793
H16   H     H_    0.602471 0.383566 0.026357 0.329253
C59   C     C_1   0.252723 0.485152 0.751856 0.228698
N9    N     N_1   0.232299 0.477385 0.854452 -0.156618
C60   C     C_1   0.746867 0.530922 0.248062 0.229898
N10   N     N_1   0.767116 0.544618 0.145773 -0.155342
O17   O     O_3   0.748158 0.465493 0.741174 -0.732596
H17   H     H_    0.725473 0.456395 0.818842 0.339787
O18   O     O_3   0.252102 0.525198 0.256304 -0.733741
H18   H     H_    0.274871 0.530235 0.178498 0.340044
C61   C     C_1   0.876617 0.159368 0.381411 0.282152
N11   N     N_1   0.858950 0.065057 0.348053 -0.142545
C62   C     C_1   0.123663 0.858961 0.551284 0.279502
N12   N     N_1   0.141588 0.957154 0.566805 -0.149995
O19   O     O_3   0.581256 0.905183 0.616830 -0.736273
H19   H     H_    0.599281 0.978855 0.652666 0.344596
O20   O     O_3   0.418736 0.094806 0.383182 -0.735669
H20   H     H_    0.400711 0.021132 0.347346 0.345007

loop_
_geom_bond_atom_site_label_1
_geom_bond_atom_site_label_2
_ccdc_geom_bond_type
C56   N6    T    
C38   N4    S    
C52   C60   S    
C42   O10   S    
C57   N7    T    
C37   N3    S    
C27   C29   S    
C8    C26   A    
C14   C18   A    
C11   C47   A    
C58   N8    T    
O4    Zn1   S    
C12   C48   A    
O6    Zn2   S    
C47   H8    S    
O15   H15   S    
C41   N1    A    
C55   N5    T    
C27   C33   S    
C1    O1    A    
C40   N4    S    
N3    Zn1   S    
C35   C37   S    
C37   C40   S    
C38   C39   S    
C9    C22   A    
C39   O15   S    
C54   N2    S    
O20   H20   S    
C46   O17   S    
C3    C18   A    
C11   C23   S    
C33   C55   S    
C29   O19   S    
O8    Zn1   S    
C62   N12   T    
C35   N4    S    
C19   H9    S    
C49   C51   A    
C50   C52   A    
O18   H18   S    
C31   C33   S    
N4    Zn2   S    
O3    Zn2   S    
C2    O4    A    
C45   C47   A    
C28   C34   S    
C42   N2    A    
C40   O16   S    
C2    O2    A    
C7    H5    S    
C52   C54   A    
O1    Zn1   S    
C30   O20   S    
C35   C57   S    
C10   C21   A    
C46   C48   A    
C9    C43   A    
C13   C19   A    
C10   C44   A    
C26   H12   S    
C59   N9    T    
C14   C20   A    
C36   C40   S    
C25   H11   S    
C11   C49   A    
C4    C6    A    
C44   O11   S    
C27   H3    S    
O14   H14   S    
C5    C7    A    
C24   O6    A    
C15   C26   A    
C6    C8    A    
O7    Zn2   S    
C49   H1    S    
C29   C34   S    
C1    C32   S    
C50   H2    S    
C2    C31   S    
C51   C53   A    
C32   C34   S    
C20   H10   S    
C35   C39   S    
C3    C9    A    
C21   C61   S    
O16   H16   S    
C46   C54   A    
C39   N3    S    
C16   C18   A    
C23   O7    A    
O2    Zn2   S    
C4    C17   A    
C24   O8    A    
C20   C22   A    
C44   N2    A    
C4    C10   A    
C36   N3    S    
O19   H19   S    
C16   C25   A    
C15   C17   A    
C5    C41   A    
C30   C33   S    
C19   C21   A    
C27   C32   S    
C28   C31   S    
C23   O5    A    
C3    C5    A    
C41   O9    S    
C12   C50   A    
C28   H4    S    
C51   C59   S    
O17   H17   S    
C12   C24   S    
C7    C25   A    
C13   C17   A    
C1    O3    A    
C36   C38   S    
C29   C31   S    
C61   N11   T    
C8    H6    S    
C30   C32   S    
C36   C58   S    
O5    Zn1   S    
C48   H7    S    
C38   O14   S    
C28   C30   S    
C37   O13   S    
C34   C56   S    
C53   N1    S    
C45   C53   A    
C43   N1    A    
C22   C62   S    
C6    C42   A    
C13   C16   A    
C60   N10   T    
C43   O12   S    
C14   C15   A    
O13   H13   S    
C45   O18   S    
