data_mof_unit_36322.cif
_audit_creation_date              2013-03-05T15:40:45-0500
_audit_creation_method            fapswitch 2.2
_symmetry_space_group_name_H-M    P1
_symmetry_Int_Tables_number       1
_space_group_crystal_system       triclinic
_cell_length_a                    6.920236
_cell_length_b                    17.300607
_cell_length_c                    24.12186
_cell_angle_alpha                 104.552209
_cell_angle_beta                  90.439076
_cell_angle_gamma                 89.976044
_cell_volume                      2795.23814312

loop_
_atom_site_label
_atom_site_type_symbol
_atom_site_description
_atom_site_fract_x
_atom_site_fract_y
_atom_site_fract_z
_atom_type_partial_charge
O1    O     O_R   0.494290 0.391990 0.999150 -0.544105
O2    O     O_R   0.827170 0.534410 0.082350 -0.542454
O3    O     O_R   0.994360 0.608010 0.000850 -0.563673
C1    C     C_R   0.658405 0.547921 0.106171 0.884133
O4    O     O_R   0.824210 0.388010 0.004470 -0.562046
O5    O     O_R   0.991370 0.460560 0.922410 -0.567678
C2    C     C_R   0.654526 0.354876 0.001507 0.885863
O6    O     O_R   0.497270 0.539440 0.077590 -0.531345
O7    O     O_3   0.659770 0.523970 0.973170 -0.292305
V1    V     V_3+5 0.935840 0.495550 0.004980 1.179986
O8    O     O_R   0.320910 0.465590 0.917650 -0.571001
C3    C     C_R   0.151351 0.450004 0.893918 0.818818
O9    O     O_R   0.323870 0.611990 0.995530 -0.570153
C4    C     C_R   0.154385 0.645135 0.998531 0.854063
V2    V     V_3+5 0.435470 0.504450 0.995020 1.167530
O10   O     O_3   0.161670 0.476030 0.026830 -0.233113
C5    C     C_2   0.142797 0.730256 0.998108 -0.255468
H1    H     H_    0.277313 0.761057 0.994722 0.102198
C6    C     C_2   0.972758 0.769791 0.002044 -0.257336
H2    H     H_    0.838242 0.738991 0.005432 0.100414
C7    C     C_R   0.206229 0.262343 0.622062 0.555328
N1    N     N_R   0.099208 0.328001 0.648493 -0.446010
C8    C     C_R   0.976895 0.363675 0.617259 0.554720
C9    C     C_R   0.957213 0.333095 0.557566 -0.026225
C10   C     C_R   0.066456 0.265933 0.530012 -0.044613
C11   C     C_R   0.192777 0.230327 0.562356 -0.025913
C12   C     C_R   0.831291 0.368095 0.524844 -0.076434
C13   C     C_R   0.814346 0.336877 0.465636 -0.069623
C14   C     C_R   0.922947 0.269885 0.437631 -0.028879
C15   C     C_R   0.049269 0.234278 0.469974 -0.044602
C16   C     C_R   0.158511 0.167116 0.442420 -0.024516
C17   C     C_R   0.284403 0.132105 0.475144 -0.077596
C18   C     C_R   0.301349 0.163324 0.534352 -0.072165
C19   C     C_R   0.909517 0.237880 0.377925 0.562146
N2    N     N_R   0.016549 0.172228 0.351492 -0.446626
C20   C     C_R   0.138852 0.136547 0.382725 0.552360
O11   O     O_2   0.323485 0.227318 0.653469 -0.560280
O12   O     O_2   0.875622 0.429026 0.643729 -0.559254
H3    H     H_    0.745294 0.419759 0.544857 0.127567
H4    H     H_    0.715945 0.365518 0.441903 0.132606
O13   O     O_2   0.792266 0.272910 0.346518 -0.544578
O14   O     O_2   0.240134 0.071201 0.356250 -0.562872
H5    H     H_    0.370378 0.080433 0.455131 0.126469
H6    H     H_    0.399731 0.134676 0.558086 0.130061
C21   C     C_R   0.167285 0.137605 0.255716 -0.002139
H7    H     H_    0.305363 0.158584 0.275186 0.096983
C22   C     C_R   0.154801 0.107659 0.196254 -0.117488
H8    H     H_    0.284700 0.106092 0.171241 0.099587
C23   C     C_R   0.976879 0.080970 0.169475 -0.103332
C24   C     C_R   0.811952 0.084759 0.203911 -0.124027
H9    H     H_    0.672734 0.064681 0.184886 0.095243
C25   C     C_R   0.825040 0.114190 0.263514 -0.009506
H10   H     H_    0.696625 0.115935 0.289180 0.099495
C26   C     C_R   0.002781 0.141064 0.289969 0.271615
C27   C     C_R   0.290684 0.386010 0.736490 -0.012228
H11   H     H_    0.419131 0.384248 0.710835 0.100973
C28   C     C_R   0.303733 0.415422 0.796097 -0.132040
H12   H     H_    0.442953 0.435466 0.815136 0.095302
C29   C     C_R   0.138768 0.419224 0.830520 -0.100350
C30   C     C_R   0.960843 0.392588 0.803723 -0.130055
H13   H     H_    0.830909 0.394175 0.828723 0.092688
C31   C     C_R   0.948399 0.362658 0.744259 -0.014240
H14   H     H_    0.810316 0.341711 0.724778 0.093265
C32   C     C_R   0.112945 0.359167 0.710018 0.273323
C33   C     C_R   0.373584 0.844327 0.611923 0.558342
N3    N     N_R   0.513067 0.827971 0.648320 -0.446088
C34   C     C_R   0.670462 0.781769 0.626697 0.568572
C35   C     C_R   0.694022 0.752001 0.567102 -0.021493
C36   C     C_R   0.550963 0.767683 0.529629 -0.046908
C37   C     C_R   0.388449 0.813630 0.552091 -0.031717
C38   C     C_R   0.856803 0.706690 0.544169 -0.066058
C39   C     C_R   0.876616 0.677166 0.484945 -0.086490
C40   C     C_R   0.733749 0.691835 0.447083 -0.040234
C41   C     C_R   0.570345 0.737235 0.469554 -0.047425
C42   C     C_R   0.426042 0.752093 0.432103 -0.023973
C43   C     C_R   0.263708 0.797681 0.455032 -0.068110
C44   C     C_R   0.245478 0.828267 0.514222 -0.087161
C45   C     C_R   0.749175 0.661525 0.387252 0.572053
N4    N     N_R   0.606946 0.676024 0.351085 -0.442623
C46   C     C_R   0.447668 0.720840 0.372570 0.574388
O15   O     O_2   0.222020 0.891173 0.633284 -0.556869
O16   O     O_2   0.803248 0.763606 0.662669 -0.561194
H15   H     H_    0.970021 0.694095 0.571886 0.128252
H16   H     H_    0.004287 0.642726 0.468974 0.127561
O17   O     O_2   0.903798 0.616844 0.365592 -0.531102
O18   O     O_2   0.310891 0.735739 0.336468 -0.553038
H17   H     H_    0.149873 0.809825 0.427334 0.127913
H18   H     H_    0.118281 0.863047 0.530183 0.126609
C47   C     C_R   0.778528 0.660931 0.258913 0.000793
H19   H     H_    0.889240 0.701933 0.280655 0.131098
C48   C     C_R   0.791496 0.628279 0.199695 -0.127082
H20   H     H_    0.911749 0.645535 0.176903 0.114635
C49   C     C_R   0.648336 0.575972 0.169809 -0.170829
C50   C     C_R   0.492783 0.554668 0.201203 0.289604
C51   C     C_R   0.480741 0.588742 0.260570 -0.043526
H21   H     H_    0.362859 0.572209 0.284585 0.148572
C52   C     C_R   0.622130 0.642037 0.289839 0.205229
C53   C     C_R   0.327201 0.848175 0.738980 -0.014843
H22   H     H_    0.207861 0.814128 0.715646 0.132876
C54   C     C_R   0.312179 0.878914 0.798470 -0.131613
H23   H     H_    0.180994 0.868213 0.819621 0.095080
C55   C     C_R   0.467270 0.920807 0.830466 -0.101127
C56   C     C_R   0.635569 0.932926 0.801352 -0.131998
H24   H     H_    0.757134 0.965465 0.824596 0.098350
C57   C     C_R   0.648595 0.904022 0.741827 -0.013452
H25   H     H_    0.778900 0.915412 0.720568 0.116672
C58   C     C_R   0.495775 0.860332 0.709871 0.258858
C59   C     C_2   0.642891 0.269752 0.001960 -0.232899
H26   H     H_    0.777592 0.238882 0.005296 0.101454
C60   C     C_2   0.472573 0.230279 0.998074 -0.233859
H27   H     H_    0.337869 0.261161 0.994762 0.108247
O19   O     O_R   0.618210 0.960470 0.922400 -0.559801
O20   O     O_R   0.291310 0.111960 0.995450 -0.561118
O21   O     O_R   0.124210 0.039530 0.077580 -0.558813
C61   C     C_R   0.460974 0.145123 0.998462 0.860339
O22   O     O_R   0.288310 0.965490 0.917650 -0.562053
O23   O     O_R   0.121180 0.892010 0.999220 -0.557298
C62   C     C_R   0.456813 0.950335 0.893909 0.826366
O24   O     O_R   0.621230 0.107990 0.000760 -0.556750
O25   O     O_3   0.455770 0.976060 0.026840 -0.275145
V3    V     V_3+5 0.179680 0.004440 0.995020 1.134850
O26   O     O_R   0.791670 0.888040 0.004570 -0.564058
C63   C     C_R   0.961161 0.854900 0.001584 0.859581
O27   O     O_R   0.794680 0.034510 0.082370 -0.562372
C64   C     C_R   0.964255 0.050127 0.106083 0.836887
V4    V     V_3+5 0.680070 0.995560 0.005010 1.133265
O28   O     O_3   0.953840 0.023940 0.973160 -0.274949
N5    N     N_R   0.350847 0.496312 0.174279 0.097942
O29   O     O_R   0.404281 0.430351 0.138482 -0.352302
O30   O     O_R   0.173214 0.502917 0.192174 -0.344491

loop_
_geom_bond_atom_site_label_1
_geom_bond_atom_site_label_2
_geom_bond_distance
_ccdc_geom_bond_type
C27   H11   1.083023 S    
C49   C50   1.421676 A    
C40   C41   1.408594 A    
C20   O14   1.349291 S    
C51   H21   1.083313 S    
C9    C12   1.406499 A    
N3    C58   1.455054 S    
C1    O6    1.295297 A    
N5    O29   1.301533 A    
C22   C23   1.408848 A    
C21   H7    1.083097 S    
O25   V3    2.155636 S    
C57   C58   1.406880 A    
C6    C63   1.477404 S    
C31   H14   1.083095 S    
C13   C14   1.406437 A    
V3    O28   1.706088 S    
C36   C37   1.407976 A    
C35   C38   1.407264 A    
O5    C3    1.296068 A    
C15   C16   1.407933 A    
O25   V4    1.703728 S    
C28   C29   1.408568 A    
C13   H4    1.083174 S    
C33   C37   1.411612 A    
C59   H26   1.086575 S    
C30   C31   1.399250 A    
C19   N2    1.373990 A    
O23   V3    2.014426 S    
C60   H27   1.086593 S    
C31   C32   1.404187 A    
O21   V3    1.971279 S    
O8    V2    1.977582 S    
C16   C17   1.406509 A    
C44   H18   1.083246 S    
C12   H3    1.083172 S    
C35   C36   1.407157 A    
C24   C25   1.401682 A    
C40   C45   1.411133 A    
O1    V2    2.014249 S    
C47   C48   1.401441 A    
C42   C46   1.410693 A    
O19   V4    1.975325 S    
C55   C62   1.488952 S    
N3    C34   1.376887 A    
C29   C30   1.408843 A    
O1    C2    1.289143 A    
O9    C4    1.299836 A    
N2    C26   1.448437 S    
C3    C29   1.489507 S    
C4    C5    1.477386 S    
C50   C51   1.408115 A    
C19   O13   1.349262 S    
C7    C11   1.409539 A    
C25   C26   1.405588 A    
C24   H9    1.082979 S    
C38   H15   1.083237 S    
C21   C22   1.399261 A    
C37   C44   1.407010 A    
C41   C42   1.407852 A    
C34   C35   1.410609 A    
C43   C44   1.399097 A    
O22   V3    1.972662 S    
C48   H20   1.083333 S    
O4    C2    1.300482 A    
O21   C64   1.296063 A    
C45   N4    1.374556 A    
C10   C11   1.408166 A    
C14   C19   1.409513 A    
C53   C58   1.408934 A    
N4    C46   1.375059 A    
C61   O24   1.289194 A    
C47   C52   1.403556 A    
C30   H13   1.083015 S    
N2    C20   1.374218 A    
O26   V4    2.011408 S    
O2    C1    1.300525 A    
C42   C43   1.406961 A    
C14   C15   1.408172 A    
C48   C49   1.407862 A    
C11   C18   1.406458 A    
C33   O15   1.349139 S    
C22   H8    1.083018 S    
C8    C9    1.409254 A    
C27   C32   1.405607 A    
C54   C55   1.407031 A    
C5    H1    1.086565 S    
O20   V3    2.012076 S    
C36   C41   1.419421 A    
C56   C57   1.400344 A    
C9    C10   1.407929 A    
C43   H17   1.083249 S    
C39   H16   1.083265 S    
O3    C4    1.289031 A    
C45   O17   1.349230 S    
C21   C26   1.404187 A    
C53   H22   1.082822 S    
O6    V2    1.974250 S    
C53   C54   1.404149 A    
O9    V2    2.011347 S    
O2    V1    1.972609 S    
C56   H24   1.083303 S    
C25   H10   1.083026 S    
O27   V4    1.977675 S    
O7    V1    2.155636 S    
C10   C15   1.417845 A    
C2    C59   1.477723 S    
C18   H6    1.083174 S    
N4    C52   1.450930 S    
N1    C8    1.374218 A    
C39   C40   1.406565 A    
N5    O30   1.301423 A    
O5    V1    1.971496 S    
O8    C3    1.299866 A    
C51   C52   1.403208 A    
C50   N5    1.437846 S    
C8    O12   1.349293 S    
C23   C64   1.489482 S    
C57   H25   1.083023 S    
C46   O18   1.349333 S    
C17   C18   1.398252 A    
C6    H2    1.086566 S    
C27   C28   1.401721 A    
O7    V2    1.704000 S    
O4    V1    2.011954 S    
O3    V1    2.014467 S    
V1    O10   1.706034 S    
O19   C62   1.295531 A    
C28   H12   1.082974 S    
C59   C60   1.353203 D    
V4    O28   2.152512 S    
C54   H23   1.083254 S    
C5    C6    1.352739 D    
C17   H5    1.083177 S    
O22   C62   1.300375 A    
C33   N3    1.376305 A    
O23   C63   1.289059 A    
C55   C56   1.407260 A    
N1    C32   1.448472 S    
C1    C49   1.491326 S    
O24   V4    2.014612 S    
C38   C39   1.398859 A    
C7    O11   1.349254 S    
C34   O16   1.349294 S    
C23   C24   1.408560 A    
C12   C13   1.398233 A    
O26   C63   1.299857 A    
C16   C20   1.409270 A    
C47   H19   1.082866 S    
C7    N1    1.374011 A    
C60   C61   1.477865 S    
V2    O10   2.152511 S    
O27   C64   1.299845 A    
O20   C61   1.300501 A    
