data_mof_unit_20631.cif
_audit_creation_date              2012-12-10T18:05:46-0500
_audit_creation_method            fapswitch 2.2
_symmetry_space_group_name_H-M    P1
_symmetry_Int_Tables_number       1
_space_group_crystal_system       triclinic
_cell_length_a                    11.136874
_cell_length_b                    10.869885
_cell_length_c                    9.906204
_cell_angle_alpha                 87.156821
_cell_angle_beta                  92.739319
_cell_angle_gamma                 95.278126
_cell_volume                      1191.5288705

loop_
_atom_site_label
_atom_site_type_symbol
_atom_type_description
_atom_site_fract_x
_atom_site_fract_y
_atom_site_fract_z
_atom_type_partial_charge
Br1   Br    Br    0.319559 0.301484 0.831383 -0.325249
Br2   Br    Br    0.475557 0.076203 0.799380 -0.159985
Br3   Br    Br    0.337746 0.277191 0.162586 -0.273172
Br4   Br    Br    0.662241 0.722820 0.837416 -0.273187
Br5   Br    Br    0.680447 0.698510 0.168620 -0.325300
Br6   Br    Br    0.307399 0.768302 0.001039 -0.203752
Br7   Br    Br    0.692574 0.231792 0.999003 -0.203829
Br8   Br    Br    0.004846 0.255165 0.231116 -0.243072
Br9   Br    Br    0.995161 0.744866 0.768819 -0.243123
Br10  Br    Br    0.705290 0.166812 0.329381 -0.303571
Br11  Br    Br    0.294735 0.833189 0.670646 -0.303577
Br12  Br    Br    0.524485 0.923803 0.200628 -0.159993
C1    C     C_R   0.504676 0.263096 0.504602 0.883749
C2    C     C_R   0.453925 0.048888 0.611510 0.263666
C3    C     C_R   0.485367 0.871748 0.485073 -0.261196
C4    C     C_R   0.514644 0.128254 0.514932 -0.261213
C5    C     C_R   0.432111 0.411463 0.073283 0.278627
C6    C     C_R   0.567884 0.588541 0.926718 0.278608
C7    C     C_R   0.430616 0.413597 0.926884 0.292444
C8    C     C_R   0.569380 0.586406 0.073117 0.292421
C9    C     C_R   0.263008 0.500404 0.497348 0.812089
C10   C     C_R   0.736992 0.499594 0.502651 0.812050
C11   C     C_R   0.209678 0.626905 0.064325 0.354957
C12   C     C_R   0.495327 0.736905 0.495399 0.883771
C13   C     C_R   0.790326 0.373159 0.935693 0.354917
C14   C     C_R   0.165371 0.623924 0.193197 0.419038
C15   C     C_R   0.834632 0.376111 0.806824 0.419161
C16   C     C_R   0.102170 0.513252 0.242900 -0.255323
C17   C     C_R   0.897835 0.486772 0.757096 -0.255310
C18   C     C_R   0.078961 0.411153 0.161470 0.308942
C19   C     C_R   0.921049 0.588891 0.838502 0.308913
C20   C     C_R   0.112775 0.420211 0.028273 0.378766
C21   C     C_R   0.887239 0.579857 0.971702 0.378841
C22   C     C_R   0.182813 0.527245 0.981697 -0.492606
C23   C     C_R   0.871549 0.498758 0.505328 -0.057988
C24   C     C_R   0.817197 0.472834 0.018296 -0.492621
C25   C     C_R   0.928710 0.502084 0.383527 -0.146931
C26   C     C_R   0.071291 0.497910 0.616467 -0.146929
C27   C     C_R   0.128451 0.501236 0.494668 -0.057945
C28   C     C_R   0.945928 0.495272 0.623368 0.052421
C29   C     C_R   0.054074 0.504725 0.376627 0.052429
C30   C     C_R   0.571591 0.075649 0.413155 0.232190
C31   C     C_R   0.428425 0.924354 0.586855 0.232193
C32   C     C_R   0.546092 0.951115 0.388500 0.263657
Cu1   Cu    Cu3+1 0.500000 0.500020 0.640660 1.082656
Cu2   Cu    Cu3+1 0.500000 0.499980 0.359340 1.082667
H1    H     H_    0.222092 0.533169 0.884824 0.210812
H2    H     H_    0.777907 0.466936 0.115160 0.210805
H3    H     H_    0.875228 0.501452 0.292258 0.159211
H4    H     H_    0.124779 0.498549 0.707731 0.159179
H5    H     H_    0.139636 0.721356 0.348939 0.346197
H6    H     H_    0.860294 0.278672 0.651058 0.346179
H7    H     H_    0.087609 0.348349 0.853378 0.341336
H8    H     H_    0.912431 0.651724 0.146591 0.341324
N1    N     N_R   0.500030 0.500030 0.852070 -0.266733
N2    N     N_R   0.499970 0.499970 0.147930 -0.266731
O1    O     O_R   0.499990 0.319660 0.618740 -0.526931
O2    O     O_3   0.812407 0.270984 0.732963 -0.636725
O3    O     O_3   0.078035 0.321592 0.948888 -0.603277
O4    O     O_3   0.921977 0.678484 0.051074 -0.603240
O5    O     O_R   0.500010 0.680340 0.381260 -0.526929
O6    O     O_R   0.499990 0.319630 0.381170 -0.523561
O7    O     O_R   0.500010 0.680370 0.618830 -0.523569
O8    O     O_R   0.319650 0.500020 0.618780 -0.565847
O9    O     O_R   0.680350 0.499980 0.381220 -0.565826
O10   O     O_R   0.319640 0.500000 0.381210 -0.571099
O11   O     O_R   0.680360 0.500000 0.618790 -0.571113
O12   O     O_3   0.187587 0.729036 0.267083 -0.636759

loop_
_geom_bond_atom_site_label_1
_geom_bond_atom_site_label_2
_ccdc_geom_bond_type
Cu1   O11   S    
C18   C20   A    
H6    O2    S    
C19   C21   A    
C10   O9    A    
Cu2   O10   S    
C12   O5    A    
C26   H4    S    
C9    O10   A    
Br10  C30   S    
C25   H3    S    
Cu1   O8    S    
C14   C16   A    
C9    C27   S    
C8    N2    A    
C11   C22   A    
Br8   C18   S    
C2    C31   A    
C16   C18   A    
C23   C28   A    
H7    O3    S    
C3    C31   A    
C17   C19   A    
Br5   C8    S    
H8    O4    S    
Cu1   Cu2   S    
C26   C28   A    
C10   C23   S    
C5    N2    A    
Cu1   O1    S    
C30   C32   A    
C6    N1    A    
Cu2   O6    S    
Br6   C11   S    
C17   C28   S    
C3    C12   S    
C5    C7    A    
C3    C32   A    
Br3   C5    S    
C21   O4    S    
C6    C8    A    
H5    O12   S    
C25   C29   A    
C26   C27   A    
Br2   C2    S    
C2    C4    A    
C10   O11   A    
Br1   C7    S    
C13   C15   A    
C12   O7    A    
C13   C24   A    
Cu2   N2    S    
C24   H2    S    
C4    C30   A    
C16   C29   S    
C21   C24   A    
C1    O1    A    
C15   C17   A    
Cu1   N1    S    
Cu2   O9    S    
C27   C29   A    
C1    C4    S    
C7    N1    A    
C11   C14   A    
Br9   C19   S    
Br12  C32   S    
C9    O8    A    
C22   H1    S    
Cu2   O5    S    
C20   O3    S    
C23   C25   A    
C15   O2    S    
Br4   C6    S    
Cu1   O7    S    
C1    O6    A    
C20   C22   A    
C14   O12   S    
Br11  C31   S    
Br7   C13   S    
