data_mof_unit_58460.cif
_audit_creation_date              2012-12-10T16:41:58-0500
_audit_creation_method            fapswitch 2.2
_symmetry_space_group_name_H-M    P1
_symmetry_Int_Tables_number       1
_space_group_crystal_system       triclinic
_cell_length_a                    10.890982
_cell_length_b                    8.758633
_cell_length_c                    7.442052
_cell_angle_alpha                 102.961191
_cell_angle_beta                  93.730866
_cell_angle_gamma                 92.92889
_cell_volume                      688.768501167

loop_
_atom_site_label
_atom_site_type_symbol
_atom_type_description
_atom_site_fract_x
_atom_site_fract_y
_atom_site_fract_z
_atom_type_partial_charge
C1    C     C_R   0.499611 0.200273 0.452581 0.846685
C2    C     C_2   0.513118 0.034549 0.421786 -0.192879
C3    C     C_2   0.880803 0.658359 0.252845 0.379788
C4    C     C_2   0.538324 0.950452 0.231384 0.442450
C5    C     C_2   0.510436 0.967529 0.567235 -0.418528
C6    C     C_R   0.265499 0.503848 0.503544 0.860885
C7    C     C_R   0.507601 0.800156 0.545586 0.898923
C8    C     C_R   0.734741 0.503397 0.497477 0.887383
C9    C     C_2   0.932287 0.559566 0.373334 0.036012
C10   C     C_2   0.866738 0.497659 0.490624 -0.312992
C11   C     C_2   0.063468 0.532915 0.364405 -0.237050
C12   C     C_2   0.134722 0.521349 0.513903 -0.306394
Cu1   Cu    Cu3+1 0.513740 0.517380 0.684380 0.988022
Cu2   Cu    Cu3+1 0.486260 0.482620 0.315620 1.000743
H1    H     H_    0.910329 0.431575 0.581291 0.127738
H2    H     H_    0.103425 0.532186 0.234095 0.169122
H3    H     H_    0.098836 0.535070 0.648910 0.149875
H4    H     H_    0.501006 0.036940 0.705820 0.205937
H5    H     H_    0.400313 0.382675 0.949713 0.231752
H6    H     H_    0.601458 0.614374 0.049414 0.240533
H7    H     H_    0.921148 0.661377 0.123993 0.060969
H8    H     H_    0.612643 0.872922 0.211953 0.120848
N1    N     N_2   0.465540 0.456420 0.038510 -0.213214
N2    N     N_2   0.534460 0.543580 0.961490 -0.209782
O1    O     O_R   0.508930 0.286130 0.619780 -0.602097
O2    O     O_2   0.476462 0.968281 0.095643 -0.533364
O3    O     O_R   0.485720 0.256780 0.308360 -0.546915
O4    O     O_R   0.333540 0.514670 0.655670 -0.592110
O5    O     O_R   0.310330 0.485320 0.344250 -0.580898
O6    O     O_R   0.514280 0.743220 0.691640 -0.550551
O7    O     O_R   0.491070 0.713870 0.380220 -0.591479
O8    O     O_R   0.689670 0.514680 0.655750 -0.595628
O9    O     O_R   0.666460 0.485330 0.344330 -0.566986
O10   O     O_2   0.799033 0.744855 0.301658 -0.596798

loop_
_geom_bond_atom_site_label_1
_geom_bond_atom_site_label_2
_ccdc_geom_bond_type
Cu2   N1    S    
C12   H3    S    
C2    C4    S    
N1    N2    D    
Cu1   O4    S    
C3    C9    S    
Cu2   O3    S    
C4    H8    S    
C11   H2    S    
Cu1   O8    S    
C4    O2    D    
Cu2   O7    S    
C11   C12   D    
C1    O3    A    
Cu2   O9    S    
C7    O6    A    
Cu1   Cu2   S    
C1    O1    A    
C9    C11   S    
Cu1   O1    S    
C10   H1    S    
C6    C12   S    
C3    H7    S    
C2    C5    D    
C7    O7    A    
Cu2   O5    S    
C8    O8    A    
Cu1   O6    S    
C6    O5    A    
C8    C10   S    
C1    C2    S    
C9    C10   D    
C5    C7    S    
H5    N1    S    
C5    H4    S    
C3    O10   D    
C6    O4    A    
H6    N2    S    
Cu1   N2    S    
C8    O9    A    
