data_mof_unit_25904.cif
_audit_creation_date              2012-10-26T20:17:37-0400
_audit_creation_method            fapswitch 2.2
_symmetry_space_group_name_H-M    P1
_symmetry_Int_Tables_number       1
_space_group_crystal_system       triclinic
_cell_length_a                    27.792111
_cell_length_b                    8.660926
_cell_length_c                    7.504537
_cell_angle_alpha                 102.819497
_cell_angle_beta                  94.992352
_cell_angle_gamma                 93.321126
_cell_volume                      1749.11847231

loop_
_atom_site_label
_atom_site_type_symbol
_atom_type_description
_atom_site_fract_x
_atom_site_fract_y
_atom_site_fract_z
_atom_type_partial_charge
C1    C     C_R   0.498460 0.199916 0.453352 0.532532
C2    C     C_R   0.868680 0.356689 0.461054 0.025832
C3    C     C_R   0.354637 0.500476 0.502292 -0.037755
C4    C     C_R   0.645363 0.499530 0.497709 -0.037757
C5    C     C_R   0.970727 0.353210 0.460458 0.018949
C6    C     C_R   0.029273 0.646810 0.539525 0.018948
C7    C     C_R   0.978094 0.647191 0.539468 0.019469
C8    C     C_R   0.021905 0.352830 0.460501 0.019468
C9    C     C_R   0.949166 0.500389 0.499932 0.035303
C10   C     C_R   0.050834 0.499632 0.500047 0.035303
C11   C     C_R   0.940012 0.210894 0.422056 -0.145239
C12   C     C_R   0.501540 0.800084 0.546648 0.532532
C13   C     C_R   0.059989 0.789127 0.577953 -0.145244
C14   C     C_R   0.890142 0.213016 0.422523 -0.111913
C15   C     C_R   0.109858 0.787005 0.577484 -0.111916
C16   C     C_R   0.407583 0.500263 0.501000 0.535120
C17   C     C_R   0.592417 0.499737 0.499000 0.535120
C18   C     C_R   0.045472 0.210109 0.422125 -0.145926
C19   C     C_R   0.954527 0.789912 0.577818 -0.145923
C20   C     C_2   0.497690 0.031799 0.427330 -0.152839
C21   C     C_2   0.502309 0.968201 0.572670 -0.152839
C22   C     C_R   0.174634 0.357108 0.461918 0.413594
C23   C     C_R   0.102024 0.499253 0.500136 -0.026500
C24   C     C_R   0.825366 0.642911 0.538076 0.413596
C25   C     C_R   0.181744 0.640303 0.538719 0.425468
C26   C     C_R   0.818257 0.359719 0.461281 0.425468
C27   C     C_R   0.275560 0.518246 0.347170 -0.114304
C28   C     C_R   0.724441 0.481777 0.652836 -0.114301
C29   C     C_R   0.325608 0.517586 0.346105 -0.166027
C30   C     C_R   0.674393 0.482431 0.653901 -0.166025
C31   C     C_R   0.332646 0.483309 0.659025 -0.133153
C32   C     C_R   0.667354 0.516694 0.340974 -0.133150
C33   C     C_R   0.282014 0.477006 0.658111 0.326118
C34   C     C_R   0.897976 0.500768 0.499849 -0.026501
C35   C     C_R   0.717986 0.523006 0.341890 0.326117
C36   C     C_R   0.253742 0.498299 0.502389 0.258089
C37   C     C_R   0.746258 0.501720 0.497614 0.258086
C38   C     C_3   0.421041 0.285376 0.972506 -0.036898
C39   C     C_3   0.578959 0.714623 0.027493 -0.036899
C40   C     C_3   0.268583 0.314913 0.854304 -0.104948
C41   C     C_3   0.731414 0.685107 0.145706 -0.104940
C42   C     C_R   0.124090 0.354801 0.461310 0.026426
C43   C     C_R   0.875910 0.645219 0.538672 0.026429
C44   C     C_R   0.095432 0.211493 0.422622 -0.118103
C45   C     C_R   0.904567 0.788528 0.577336 -0.118098
C46   C     C_R   0.131320 0.643331 0.538942 0.025832
Cu1   Cu    Cu3+1 0.505380 0.517380 0.684380 1.049197
Cu2   Cu    Cu3+1 0.494620 0.482620 0.315620 1.049196
H1    H     H_    0.354622 0.475006 0.781746 0.118054
H2    H     H_    0.131614 0.899402 0.608012 0.170665
H3    H     H_    0.953023 0.094439 0.390366 0.106527
H4    H     H_    0.046978 0.905581 0.609668 0.106538
H5    H     H_    0.026598 0.093896 0.390525 0.104428
H6    H     H_    0.973401 0.906125 0.609386 0.104417
H7    H     H_    0.493306 0.960112 0.287390 0.163841
H8    H     H_    0.506694 0.039888 0.712610 0.163841
H9    H     H_    0.400643 0.392905 0.006295 0.106069
H10   H     H_    0.423033 0.223635 0.086875 0.148861
H11   H     H_    0.400118 0.203048 0.852763 0.095300
H12   H     H_    0.645377 0.524989 0.218250 0.118058
H13   H     H_    0.576967 0.776363 0.913124 0.148861
H14   H     H_    0.599357 0.607095 0.993705 0.106069
H15   H     H_    0.599882 0.796952 0.147236 0.095299
H16   H     H_    0.305800 0.318521 0.923001 0.082110
H17   H     H_    0.262474 0.214631 0.730662 0.176119
H18   H     H_    0.242919 0.290886 0.951939 0.163924
H19   H     H_    0.737529 0.785388 0.269347 0.176127
H20   H     H_    0.694194 0.681508 0.077033 0.082100
H21   H     H_    0.757073 0.709133 0.048051 0.163916
H22   H     H_    0.111530 0.098815 0.392159 0.163119
H23   H     H_    0.888470 0.901205 0.607787 0.163113
H24   H     H_    0.658425 0.467137 0.776023 0.142302
H25   H     H_    0.341577 0.532886 0.223986 0.142302
H26   H     H_    0.746434 0.465774 0.772744 0.163119
H27   H     H_    0.253568 0.534256 0.227264 0.163118
H28   H     H_    0.868387 0.100618 0.392010 0.170661
N1    N     N_R   0.202217 0.498541 0.500970 -0.374426
N2    N     N_R   0.797784 0.501480 0.499031 -0.374427
N3    N     N_2   0.486510 0.456430 0.038510 0.103555
N4    N     N_2   0.513490 0.543570 0.961490 0.103554
O1    O     O_R   0.503500 0.286120 0.619780 -0.457055
O2    O     O_2   0.803918 0.780665 0.576703 -0.500207
O3    O     O_2   0.789851 0.222321 0.423578 -0.479871
O4    O     O_2   0.210149 0.777701 0.576426 -0.479872
O5    O     O_3   0.467413 0.320281 0.923896 -0.472226
O6    O     O_3   0.532587 0.679718 0.076105 -0.472226
O7    O     O_3   0.259636 0.462243 0.812065 -0.558480
O8    O     O_3   0.740362 0.537775 0.187936 -0.558481
O9    O     O_R   0.496500 0.713880 0.380220 -0.457056
O10   O     O_R   0.494410 0.256780 0.308360 -0.510117
O11   O     O_R   0.505590 0.743220 0.691640 -0.510117
O12   O     O_R   0.434810 0.514700 0.655690 -0.486095
O13   O     O_R   0.565190 0.485300 0.344310 -0.486094
O14   O     O_R   0.425720 0.485350 0.344280 -0.542003
O15   O     O_R   0.574280 0.514650 0.655720 -0.542002
O16   O     O_2   0.196082 0.219355 0.423295 -0.500206

loop_
_geom_bond_atom_site_label_1
_geom_bond_atom_site_label_2
_ccdc_geom_bond_type
C1    O10   A    
C45   H23   S    
Cu1   O12   S    
C12   O11   A    
C28   H26   S    
C41   H19   S    
Cu1   O11   S    
C26   N2    A    
C23   C42   A    
Cu2   O14   S    
C26   O3    S    
C25   N1    A    
Cu2   N3    S    
C35   C37   A    
C5    C11   A    
C36   N1    S    
C11   C14   A    
C29   H25   S    
C1    O1    A    
C38   H9    S    
C33   C36   A    
C27   C29   A    
C15   H2    S    
C3    C29   A    
C24   O2    S    
N4    O6    S    
C18   H5    S    
C38   H10   S    
C25   O4    S    
C31   C33   A    
C44   H22   S    
C17   O15   A    
C2    C34   A    
C23   C46   A    
C40   H18   S    
C42   C44   A    
Cu1   N4    S    
C31   H1    S    
C20   H7    S    
C27   H27   S    
C41   H20   S    
C39   H13   S    
Cu2   O13   S    
C38   O5    S    
C32   C35   A    
C12   O9    A    
C41   O8    S    
C12   C21   S    
C8    C18   A    
N3    N4    D    
C14   H28   S    
C5    C9    A    
C18   C44   A    
C5    C8    A    
C13   H4    S    
C35   O8    S    
Cu1   Cu2   S    
C2    C26   A    
C3    C31   A    
C43   C45   A    
C4    C32   A    
C4    C17   S    
C19   H6    S    
C24   N2    A    
C16   O12   A    
C7    C19   A    
Cu2   O9    S    
C13   C15   A    
C9    C34   A    
C10   C23   A    
C17   O13   A    
C32   H12   S    
N3    O5    S    
C40   O7    S    
C41   H21   S    
C7    C9    A    
C39   H14   S    
C1    C20   S    
C22   O16   S    
C34   C43   A    
C22   N1    A    
C6    C10   A    
C21   H8    S    
C30   H24   S    
C19   C45   A    
C6    C7    A    
C27   C36   A    
C39   H15   S    
C37   N2    S    
C16   O14   A    
C40   H16   S    
C40   H17   S    
C28   C30   A    
C33   O7    S    
C6    C13   A    
C22   C42   A    
C28   C37   A    
Cu1   O1    S    
C2    C14   A    
C11   H3    S    
C38   H11   S    
C20   C21   D    
C8    C10   A    
C24   C43   A    
Cu1   O15   S    
Cu2   O10   S    
C15   C46   A    
C25   C46   A    
C4    C30   A    
C3    C16   S    
C39   O6    S    
