data_mof_unit_31232.cif
_audit_creation_date              2012-12-11T17:01:29-0500
_audit_creation_method            fapswitch 2.2
_symmetry_space_group_name_H-M    P1
_symmetry_Int_Tables_number       1
_space_group_crystal_system       triclinic
_cell_length_a                    15.054427
_cell_length_b                    14.844715
_cell_length_c                    14.89527
_cell_angle_alpha                 109.238353
_cell_angle_beta                  109.154526
_cell_angle_gamma                 109.675115
_cell_volume                      2573.3198831

loop_
_atom_site_label
_atom_site_type_symbol
_atom_type_description
_atom_site_fract_x
_atom_site_fract_y
_atom_site_fract_z
_atom_type_partial_charge
C1    C     C_R   0.003900 0.804302 0.097008 -0.158901
C2    C     C_R   0.210249 0.803556 0.300674 -0.124999
C3    C     C_R   0.906063 0.410261 0.210902 -0.154845
C4    C     C_R   0.778290 0.228710 0.685173 -0.140088
C5    C     C_R   0.301134 0.593136 0.999538 -0.141197
C6    C     C_R   0.937186 0.503112 0.304156 0.085888
C7    C     C_R   0.302629 0.502333 0.937179 -0.004620
C8    C     C_R   0.302091 0.865780 0.299678 0.078960
C9    C     C_R   0.050624 0.225446 0.052901 0.072973
C10   C     C_3   0.476219 0.406065 0.838779 -0.395493
C11   C     C_3   0.371594 0.403988 0.832426 -0.408539
C12   C     C_R   0.675513 0.193613 0.672276 0.069946
C13   C     C_3   0.561403 0.494737 0.045517 -0.398843
C14   C     C_3   0.580916 0.611994 0.954667 -0.402472
C15   C     C_3   0.575578 0.504085 0.949987 0.393929
C16   C     C_R   0.029231 0.594873 0.779825 -0.163104
C17   C     C_3   0.399782 0.503362 0.936963 0.400273
C18   C     C_3   0.459161 0.496308 0.038921 -0.389075
C19   C     C_3   0.475743 0.610649 0.944850 -0.407272
C20   C     C_R   0.576830 0.103390 0.470420 0.161957
C21   C     C_R   0.576492 0.139895 0.569519 0.041347
C22   C     C_R   0.477031 0.119689 0.566612 -0.204191
C23   C     C_R   0.960892 0.505396 0.675997 0.068350
C24   C     C_R   0.380397 0.039069 0.469623 -0.203829
C25   C     C_R   0.384925 0.979750 0.377332 0.031674
C26   C     C_R   0.481759 0.023905 0.374812 0.157824
C27   C     C_3   0.538049 0.970245 0.330888 -0.519772
C28   C     C_R   0.685130 0.409786 0.947219 -0.134393
C29   C     C_3   0.641869 0.057715 0.435528 -0.526471
C30   C     C_R   0.950378 0.608215 0.480759 0.088548
C31   C     C_R   0.902460 0.508099 0.385281 0.041444
C32   C     C_R   0.834852 0.411244 0.379163 -0.210237
C33   C     C_R   0.840886 0.412245 0.475161 -0.175595
C34   C     C_R   0.675538 0.502701 0.963653 -0.002174
C35   C     C_R   0.915018 0.509878 0.576119 -0.035007
C36   C     C_R   0.956219 0.609231 0.575395 0.185813
C37   C     C_3   0.066545 0.710010 0.645228 0.316891
C38   C     C_3   0.060198 0.708815 0.541634 -0.637231
C39   C     C_R   0.056895 0.036069 0.162688 0.158797
C40   C     C_R   0.947603 0.411894 0.684529 -0.112688
C41   C     C_R   0.102315 0.986390 0.109008 0.028423
C42   C     C_R   0.170189 0.047547 0.079870 -0.187409
C43   C     C_R   0.167343 0.140057 0.077366 -0.195682
C44   C     C_R   0.095782 0.170062 0.102860 0.031843
C45   C     C_R   0.997574 0.593084 0.300037 -0.138615
C46   C     C_R   0.053090 0.126456 0.159176 0.163704
C47   C     C_3   0.942915 0.086952 0.149611 -0.520857
C48   C     C_3   0.947669 0.988839 0.154241 -0.522897
C49   C     C_R   0.778108 0.594134 0.033093 -0.137029
C50   C     C_R   0.685449 0.228180 0.775132 -0.126187
C51   C     C_R   0.093979 0.805603 0.005137 -0.108753
C52   C     C_R   0.064922 0.869071 0.067981 0.083932
C53   C     C_R   0.210331 0.409713 0.905940 -0.155585
C54   C     C_R   0.298171 0.802430 0.205817 -0.153736
C55   C     C_R   0.976726 0.254836 0.068958 -0.147896
C56   C     C_R   0.066017 0.250117 0.974743 -0.117962
H1    H     H_    0.985384 0.832151 0.161573 0.098887
H2    H     H_    0.485019 0.414155 0.770069 0.161095
H3    H     H_    0.326597 0.406868 0.758345 0.156811
H4    H     H_    0.800135 0.206148 0.623307 0.097835
H5    H     H_    0.319430 0.324806 0.824250 0.148851
H6    H     H_    0.555659 0.416932 0.042599 0.155336
H7    H     H_    0.405579 0.420500 0.035397 0.154535
H8    H     H_    0.649455 0.685241 0.033531 0.149727
H9    H     H_    0.593133 0.620958 0.887683 0.159706
H10   H     H_    0.434249 0.616211 0.871451 0.156325
H11   H     H_    0.498360 0.684977 0.018066 0.148900
H12   H     H_    0.181953 0.324943 0.850927 0.089936
H13   H     H_    0.632716 0.564174 0.125552 0.159609
H14   H     H_    0.481281 0.568100 0.114660 0.160723
H15   H     H_    0.473133 0.155865 0.640246 0.123051
H16   H     H_    0.055571 0.680210 0.804784 0.146415
H17   H     H_    0.305358 0.013943 0.472116 0.124326
H18   H     H_    0.513922 0.886988 0.322147 0.204138
H19   H     H_    0.537443 0.976337 0.258282 0.186322
H20   H     H_    0.675199 0.023464 0.485383 0.201660
H21   H     H_    0.700869 0.114490 0.423253 0.185669
H22   H     H_    0.788827 0.332792 0.304611 0.123104
H23   H     H_    0.344582 0.829867 0.168880 0.099137
H24   H     H_    0.798889 0.334618 0.471192 0.125071
H25   H     H_    0.132469 0.696963 0.689531 0.041357
H26   H     H_    0.055935 0.779868 0.534937 0.219217
H27   H     H_    0.621284 0.327716 0.914033 0.079243
H28   H     H_    0.121357 0.692104 0.524769 0.175415
H29   H     H_    0.214285 0.017262 0.045984 0.123672
H30   H     H_    0.209472 0.177523 0.041780 0.123424
H31   H     H_    0.944138 0.142113 0.222330 0.190246
H32   H     H_    0.877732 0.062931 0.069168 0.201314
H33   H     H_    0.952423 0.987943 0.229996 0.187804
H34   H     H_    0.950266 0.252790 0.127463 0.112179
H35   H     H_    0.885222 0.910358 0.076755 0.202234
H36   H     H_    0.909244 0.330185 0.617632 0.081774
H37   H     H_    0.801183 0.680030 0.070465 0.092274
H38   H     H_    0.620937 0.203538 0.793595 0.084352
H39   H     H_    0.154918 0.835026 0.982880 0.084686
H40   H     H_    0.018414 0.677188 0.347267 0.105837
H41   H     H_    0.139272 0.862090 0.755664 0.310428
H42   H     H_    0.118933 0.238962 0.943303 0.092794
H43   H     H_    0.180538 0.832049 0.354785 0.084303
H44   H     H_    0.845430 0.326736 0.179903 0.087478
H45   H     H_    0.356558 0.679077 0.032603 0.085865
H46   H     H_    0.468892 0.325852 0.828327 0.142891
N1    N     N_R   0.995640 0.706130 0.053910 -0.036246
N2    N     N_R   0.054010 0.556790 0.847890 -0.041908
N3    N     N_R   0.789940 0.443190 0.997130 -0.033588
N4    N     N_R   0.997630 0.443170 0.791110 -0.038212
N5    N     N_R   0.846320 0.556810 0.053910 -0.035285
N6    N     N_R   0.791080 0.293860 0.847890 -0.038593
N7    N     N_R   0.052880 0.706130 0.997130 -0.040873
N8    N     N_R   0.002370 0.556830 0.208890 -0.040863
N9    N     N_R   0.153680 0.443190 0.946090 -0.033943
N10   N     N_R   0.208920 0.706140 0.152110 -0.039242
N11   N     N_R   0.947120 0.293870 0.002870 -0.042514
N12   N     N_R   0.004360 0.293870 0.946090 -0.042670
N13   N     N_R   0.151690 0.706140 0.208890 -0.039532
N14   N     N_R   0.945990 0.443210 0.152110 -0.039518
N15   N     N_R   0.210060 0.556810 0.002870 -0.033248
N16   N     N_R   0.848310 0.293860 0.791110 -0.039143
Ni1   Ni    Ni4+2 0.999010 0.630300 0.130220 0.204374
Ni2   Ni    Ni4+2 0.000990 0.369700 0.869780 0.214106
Ni3   Ni    Ni4+2 0.130280 0.630280 0.000000 0.204532
Ni4   Ni    Ni4+2 0.869720 0.369720 0.000000 0.209619
O1    O     O_3   0.063372 0.800153 0.711105 -0.742084

loop_
_geom_bond_atom_site_label_1
_geom_bond_atom_site_label_2
_ccdc_geom_bond_type
C18   H14   S    
C6    C45   A    
C27   C29   S    
C41   C42   A    
C35   C36   A    
C16   H16   S    
C56   H42   S    
C3    C6    A    
C4    N16   A    
N2    N4    A    
C39   C41   A    
C29   H20   S    
N3    N5    A    
C26   C27   S    
N14   Ni4   S    
C13   C18   S    
C36   C37   S    
C10   H2    S    
N11   N12   A    
C55   H34   S    
C3    N14   A    
C30   C31   A    
C11   H3    S    
C18   H7    S    
N9    N15   A    
C23   C40   A    
C30   C38   S    
C19   H10   S    
C53   H12   S    
N15   Ni3   S    
C17   C19   S    
C37   O1    S    
C3    H44   S    
C16   N2    A    
N11   Ni4   S    
C31   C32   A    
C7    C17   S    
C48   H35   S    
C19   H11   S    
C9    C55   A    
C4    C12   A    
C27   H18   S    
C1    N1    A    
C15   C34   S    
C38   H28   S    
C53   N9    A    
C6    C31   S    
C28   C34   A    
C51   N7    A    
C21   C22   A    
C38   H26   S    
C28   H27   S    
C50   N6    A    
C8    C25   S    
C37   H25   S    
C27   H19   S    
N5    Ni1   S    
C44   C46   A    
C20   C29   S    
C5    H45   S    
C13   H6    S    
C51   C52   A    
N6    N16   A    
C10   H46   S    
C24   C25   A    
C49   N5    A    
C8    C54   A    
C5    C7    A    
C45   N8    A    
C50   H38   S    
N2    Ni3   S    
C55   N11   A    
C25   C26   A    
C12   C21   S    
C5    N15   A    
N9    Ni2   S    
C47   H31   S    
C43   C44   A    
C37   C38   S    
C1    H1    S    
C2    N13   A    
C47   C48   S    
C28   N3    A    
C14   H8    S    
C4    H4    S    
C17   C18   S    
C54   N10   A    
C9    C56   A    
C40   H36   S    
C39   C46   A    
C2    H43   S    
C16   C23   A    
C23   C35   S    
C48   H33   S    
C13   C15   S    
C22   C24   A    
C42   C43   A    
C7    C53   A    
N8    N14   A    
C22   H15   S    
C40   N4    A    
C54   H23   S    
C46   C47   S    
C11   C17   S    
C9    C44   S    
C41   C52   S    
N4    Ni2   S    
C10   C15   S    
C43   H30   S    
C14   C19   S    
N1    Ni1   S    
N6    Ni4   S    
C11   H5    S    
N8    Ni1   S    
C12   C50   A    
C33   H24   S    
N13   Ni1   S    
C30   C36   A    
N1    N7    A    
C47   H32   S    
C13   H13   S    
N10   Ni3   S    
H41   O1    S    
C32   C33   A    
N7    Ni3   S    
C20   C26   A    
C33   C35   A    
C14   H9    S    
N3    Ni4   S    
C24   H17   S    
C1    C52   A    
N16   Ni2   S    
C10   C11   S    
C32   H22   S    
C29   H21   S    
C20   C21   A    
C34   C49   A    
C2    C8    A    
C56   N12   A    
C14   C15   S    
C49   H37   S    
C45   H40   S    
N10   N13   A    
N12   Ni2   S    
C51   H39   S    
C39   C48   S    
C42   H29   S    
