data_mof_unit_36020.cif
_audit_creation_date              2013-03-05T15:41:33-0500
_audit_creation_method            fapswitch 2.2
_symmetry_space_group_name_H-M    P1
_symmetry_Int_Tables_number       1
_space_group_crystal_system       triclinic
_cell_length_a                    24.596403
_cell_length_b                    17.493438
_cell_length_c                    15.529311
_cell_angle_alpha                 89.699135
_cell_angle_beta                  129.395834
_cell_angle_gamma                 90.42054
_cell_volume                      5163.48416687

loop_
_atom_site_label
_atom_site_type_symbol
_atom_site_description
_atom_site_fract_x
_atom_site_fract_y
_atom_site_fract_z
_atom_type_partial_charge
C1    C     C_R   0.334148 0.391308 0.198467 -0.123266
C2    C     C_R   0.333923 0.608398 0.198778 -0.117152
C3    C     C_R   0.851186 0.858430 0.243659 -0.120121
C4    C     C_R   0.848389 0.137630 0.233421 -0.120564
H1    H     H_    0.281049 0.394033 0.169484 0.080260
H2    H     H_    0.281101 0.605511 0.170983 0.080790
H3    H     H_    0.803472 0.844498 0.230043 0.088145
H4    H     H_    0.797260 0.148331 0.208865 0.084787
N1    N     N_R   0.389430 0.421450 0.294590 -0.044985
N2    N     N_R   0.389430 0.578550 0.294590 -0.045266
N3    N     N_R   0.889430 0.921450 0.294590 -0.048994
N4    N     N_R   0.889430 0.078550 0.294590 -0.047248
C5    C     C_R   0.667103 0.391480 0.798660 -0.125879
C6    C     C_R   0.667871 0.605425 0.801890 -0.144779
C7    C     C_R   0.150334 0.861504 0.757277 -0.116548
C8    C     C_R   0.152686 0.136750 0.761079 -0.117473
H5    H     H_    0.719347 0.391390 0.823860 0.084014
H6    H     H_    0.720839 0.602597 0.830323 0.093170
H7    H     H_    0.197980 0.847944 0.770912 0.087013
H8    H     H_    0.200549 0.150213 0.774890 0.087003
N5    N     N_R   0.612200 0.424040 0.705410 -0.045687
N6    N     N_R   0.612200 0.575960 0.705410 -0.048342
N7    N     N_R   0.112200 0.924040 0.705410 -0.047459
N8    N     N_R   0.112200 0.075960 0.705410 -0.047061
C9    C     C_R   0.613722 0.394647 0.407180 -0.119473
C10   C     C_R   0.589902 0.642342 0.407731 -0.097974
C11   C     C_R   0.112328 0.894653 0.405313 -0.127996
C12   C     C_R   0.114031 0.104755 0.406777 -0.124903
H9    H     H_    0.590288 0.391137 0.320393 0.104348
H10   H     H_    0.564262 0.655129 0.321642 0.090129
H11   H     H_    0.088171 0.893788 0.318411 0.145426
H12   H     H_    0.091181 0.105119 0.320212 0.124019
N9    N     N_R   0.581780 0.422390 0.443390 -0.044839
N10   N     N_R   0.581780 0.577610 0.443390 -0.031735
N11   N     N_R   0.081780 0.922390 0.443390 -0.040476
N12   N     N_R   0.081780 0.077610 0.443390 -0.038663
C13   C     C_R   0.410953 0.359473 0.593349 -0.144408
C14   C     C_R   0.407078 0.637083 0.592924 -0.146818
C15   C     C_R   0.887080 0.897056 0.593213 -0.144125
C16   C     C_R   0.900491 0.128815 0.593592 -0.149660
H13   H     H_    0.436233 0.347342 0.679528 0.090605
H14   H     H_    0.432259 0.649316 0.679040 0.090551
H15   H     H_    0.909398 0.897584 0.679606 0.096545
H16   H     H_    0.920475 0.133383 0.678299 0.088797
N13   N     N_R   0.419850 0.423100 0.556610 -0.038074
N14   N     N_R   0.419850 0.576900 0.556610 -0.037065
N15   N     N_R   0.919850 0.923100 0.556610 -0.036085
N16   N     N_R   0.919850 0.076900 0.556610 -0.033488
C17   C     C_R   0.688571 0.396172 0.592778 -0.106410
C18   C     C_R   0.664149 0.641294 0.593881 -0.029805
C19   C     C_R   0.188460 0.895788 0.590279 -0.141541
C20   C     C_R   0.189039 0.103842 0.591746 -0.142424
H17   H     H_    0.735203 0.394983 0.679358 0.091019
H18   H     H_    0.707044 0.652733 0.680382 0.098812
H19   H     H_    0.236657 0.894479 0.675657 0.085181
H20   H     H_    0.236633 0.104277 0.677591 0.085179
N17   N     N_R   0.627410 0.423100 0.556610 -0.045813
N18   N     N_R   0.627410 0.576900 0.556610 -0.037065
N19   N     N_R   0.127410 0.923100 0.556610 -0.036300
N20   N     N_R   0.127410 0.076900 0.556610 -0.036427
C21   C     C_R   0.336731 0.358969 0.406852 -0.139587
C22   C     C_R   0.332575 0.636755 0.405730 -0.138092
C23   C     C_R   0.812531 0.895918 0.408385 -0.142973
C24   C     C_R   0.825528 0.129584 0.407637 -0.144525
H21   H     H_    0.294622 0.346842 0.320251 0.099671
H22   H     H_    0.289690 0.647076 0.318754 0.099505
H23   H     H_    0.765275 0.894631 0.322309 0.083984
H24   H     H_    0.777301 0.134863 0.323321 0.085195
N21   N     N_R   0.374220 0.422390 0.443390 -0.040764
N22   N     N_R   0.374220 0.577610 0.443390 -0.039881
N23   N     N_R   0.874220 0.922390 0.443390 -0.035506
N24   N     N_R   0.874220 0.077610 0.443390 -0.034400
C25   C     C_R   0.577389 0.392064 0.801791 -0.148565
C26   C     C_R   0.577154 0.606719 0.801977 -0.145663
C27   C     C_R   0.059183 0.860404 0.758129 -0.117041
C28   C     C_R   0.063657 0.136180 0.766561 -0.121297
H25   H     H_    0.549054 0.393736 0.833652 0.095315
H26   H     H_    0.547901 0.605057 0.832286 0.093774
H27   H     H_    0.022738 0.843980 0.771732 0.108986
H28   H     H_    0.031875 0.149917 0.789664 0.095639
N25   N     N_R   0.555000 0.424040 0.705410 -0.040386
N26   N     N_R   0.555000 0.575960 0.705410 -0.040220
N27   N     N_R   0.055000 0.924040 0.705410 -0.046114
N28   N     N_R   0.055000 0.075960 0.705410 -0.043280
C29   C     C_R   0.425462 0.389356 0.199505 -0.154849
C30   C     C_R   0.424135 0.609288 0.197444 -0.160564
C31   C     C_R   0.942244 0.857757 0.242556 -0.141906
C32   C     C_R   0.941420 0.139970 0.237706 -0.143344
H29   H     H_    0.455395 0.390074 0.170351 0.097374
H30   H     H_    0.452796 0.607308 0.166153 0.097936
H31   H     H_    0.978213 0.841560 0.228301 0.105862
H32   H     H_    0.977855 0.155610 0.223793 0.099748
N29   N     N_R   0.446630 0.421450 0.294590 -0.043173
N30   N     N_R   0.446630 0.578550 0.294590 -0.042992
N31   N     N_R   0.946630 0.921450 0.294590 -0.045471
N32   N     N_R   0.946630 0.078550 0.294590 -0.044714
C33   C     C_R   0.355024 0.370743 0.137251 0.155579
C34   C     C_R   0.353868 0.628233 0.135979 0.155712
C35   C     C_R   0.883854 0.816498 0.212153 0.147349
C36   C     C_R   0.881477 0.179244 0.201809 0.148632
C37   C     C_R   0.647262 0.371674 0.861703 0.145436
C38   C     C_R   0.647640 0.625252 0.864105 0.150877
C39   C     C_R   0.117575 0.819496 0.789259 0.140099
C40   C     C_R   0.122224 0.176898 0.797425 0.142245
C41   C     C_R   0.681601 0.378438 0.500029 0.085740
C42   C     C_R   0.641906 0.684185 0.501594 -0.036272
C43   C     C_R   0.179497 0.876148 0.495967 0.024791
C44   C     C_R   0.182080 0.121272 0.498719 0.026123
C45   C     C_R   0.358576 0.317694 0.499928 0.030764
C46   C     C_R   0.351356 0.675107 0.498502 0.030020
C47   C     C_R   0.819006 0.880066 0.501332 0.022802
C48   C     C_R   0.844953 0.167210 0.500984 0.035233
Ni1   Ni    Ni4+2 0.382890 0.500000 0.370170 0.203013
Ni2   Ni    Ni4+2 0.882890 0.000000 0.370170 0.207884
Ni3   Ni    Ni4+2 0.618740 0.500000 0.629830 0.230570
Ni4   Ni    Ni4+2 0.118740 1.000000 0.629830 0.213053
Ni5   Ni    Ni4+2 0.514090 0.500000 0.370170 0.232527
Ni6   Ni    Ni4+2 0.014090 0.000000 0.370170 0.238096
Ni7   Ni    Ni4+2 0.487550 0.500000 0.629830 0.206734
Ni8   Ni    Ni4+2 0.987550 1.000000 0.629830 0.223470
C49   C     C_3   0.357995 0.198952 0.589255 -0.379758
C50   C     C_3   0.348779 0.804750 0.560135 -0.375193
C51   C     C_3   0.783818 0.839065 0.614049 -0.390277
C52   C     C_3   0.850818 0.276612 0.607456 -0.400204
H33   H     H_    0.398532 0.224639 0.672692 0.139174
H34   H     H_    0.396851 0.790780 0.646151 0.141803
H35   H     H_    0.778260 0.899471 0.629453 0.151081
H36   H     H_    0.879289 0.241692 0.684591 0.145038
H37   H     H_    0.386017 0.163771 0.568939 0.190140
H38   H     H_    0.366099 0.833512 0.517046 0.197040
H39   H     H_    0.838090 0.820231 0.684592 0.179700
H40   H     H_    0.890956 0.307947 0.608927 0.189375
C53   C     C_3   0.732138 0.787992 0.612020 -0.360389
C54   C     C_3   0.804939 0.333362 0.609993 -0.342751
C55   C     C_3   0.309162 0.147760 0.595003 -0.358876
C56   C     C_3   0.302191 0.859218 0.566051 -0.350784
H41   H     H_    0.762857 0.752280 0.688187 0.186844
H42   H     H_    0.825737 0.392473 0.623716 0.226079
H43   H     H_    0.319400 0.086372 0.592890 0.190329
H44   H     H_    0.303227 0.917721 0.539017 0.215921
H45   H     H_    0.321870 0.157602 0.676747 0.141099
H46   H     H_    0.324248 0.864002 0.654350 0.138980
H47   H     H_    0.697010 0.824005 0.616817 0.155819
H48   H     H_    0.808289 0.318593 0.682976 0.139722
H49   H     H_    0.305122 0.332818 0.606013 0.162451
H50   H     H_    0.322314 0.681272 0.641087 0.158925
H51   H     H_    0.682063 0.913335 0.417303 0.165425
H52   H     H_    0.770363 0.148010 0.570127 0.164276
H53   H     H_    0.607163 0.830245 0.412066 0.183672
H54   H     H_    0.700634 0.234529 0.565003 0.182821
H55   H     H_    0.226853 0.256626 0.595354 0.176785
H56   H     H_    0.244919 0.756928 0.629897 0.171072
C57   C     C_3   0.269945 0.305873 0.522017 -0.393176
C58   C     C_3   0.278369 0.694302 0.551880 -0.400696
C59   C     C_3   0.692125 0.853755 0.406074 -0.404473
C60   C     C_3   0.746154 0.185778 0.496113 -0.396440
C61   C     C_3   0.263191 0.221803 0.383591 -0.494356
C62   C     C_3   0.243177 0.751657 0.374216 -0.494502
C63   C     C_3   0.783452 0.749244 0.486506 -0.486903
C64   C     C_3   0.770087 0.280050 0.398293 -0.519574
C65   C     C_3   0.313911 0.261509 0.498931 0.333600
C66   C     C_3   0.306822 0.730979 0.496423 0.333911
C67   C     C_3   0.770118 0.832395 0.501989 0.331537
C68   C     C_3   0.803958 0.226333 0.500871 0.350121
H57   H     H_    0.772967 0.743477 0.405678 0.145842
H58   H     H_    0.735857 0.247471 0.319008 0.128570
H59   H     H_    0.228055 0.264301 0.317039 0.131018
H60   H     H_    0.210125 0.699871 0.329562 0.136650
H61   H     H_    0.293647 0.193745 0.362054 0.202636
H62   H     H_    0.261863 0.772241 0.328947 0.198946
H63   H     H_    0.839796 0.734279 0.552911 0.207097
H64   H     H_    0.811860 0.307472 0.400319 0.202116
C69   C     C_3   0.687334 0.739981 0.502797 0.211318
C70   C     C_3   0.727669 0.326898 0.500328 0.196475
C71   C     C_3   0.231075 0.168675 0.498261 0.216891
C72   C     C_3   0.226110 0.826822 0.493596 0.213779
C73   C     C_3   0.642957 0.797893 0.404959 -0.454029
C74   C     C_3   0.700263 0.245069 0.493798 -0.471354
C75   C     C_3   0.218964 0.251819 0.516552 -0.456230
C76   C     C_3   0.227760 0.749169 0.544665 -0.448045
C77   C     C_3   0.735236 0.694300 0.487462 0.265461
C78   C     C_3   0.724030 0.339756 0.397070 0.263856
C79   C     C_3   0.215558 0.165109 0.383777 0.240581
C80   C     C_3   0.197330 0.811212 0.371511 0.223950
H65   H     H_    0.700377 0.666164 0.404084 0.079728
H66   H     H_    0.669099 0.328853 0.320047 0.035299
H67   H     H_    0.160563 0.184440 0.317026 0.038347
H68   H     H_    0.143601 0.785686 0.323161 0.045983
H69   H     H_    0.239742 0.352570 0.459878 0.161921
H70   H     H_    0.250671 0.639487 0.510038 0.163654
H71   H     H_    0.679667 0.850727 0.323766 0.150583
H72   H     H_    0.712807 0.149157 0.420432 0.156624
H73   H     H_    0.609559 0.768097 0.323246 0.153639
H74   H     H_    0.644909 0.237893 0.415899 0.164152
H75   H     H_    0.163911 0.269660 0.447340 0.165180
H76   H     H_    0.174132 0.723205 0.492627 0.167452
H77   H     H_    0.212879 0.631385 0.992615 0.127316
H78   H     H_    0.214465 0.370625 0.990360 0.126828
H79   H     H_    0.788116 0.275108 0.174441 0.129874
H80   H     H_    0.784868 0.722684 0.175769 0.129898
H81   H     H_    0.787885 0.370880 0.004446 0.123797
H82   H     H_    0.788567 0.628077 0.009470 0.126668
H83   H     H_    0.215713 0.726336 0.824706 0.123074
H84   H     H_    0.216256 0.273790 0.824412 0.123771
C81   C     C_2   0.693813 0.343200 0.976207 -0.205492
C82   C     C_2   0.693704 0.652778 0.979207 -0.208592
C83   C     C_2   0.142870 0.747549 0.851422 -0.188776
C84   C     C_2   0.148355 0.248149 0.860421 -0.203039
C85   C     C_2   0.763572 0.343231 0.035237 -0.094680
C86   C     C_2   0.763604 0.654122 0.039666 -0.093993
C87   C     C_2   0.195663 0.709604 0.867356 -0.113509
C88   C     C_2   0.198003 0.289057 0.869924 -0.109786
H85   H     H_    0.331361 0.682914 0.988768 0.128128
H86   H     H_    0.333732 0.314015 0.992810 0.128601
H87   H     H_    0.873142 0.266011 0.091185 0.131673
H88   H     H_    0.878239 0.727526 0.107588 0.136933
C89   C     C_2   0.307424 0.656050 0.020876 -0.221212
C90   C     C_2   0.309427 0.342708 0.022654 -0.219701
C91   C     C_2   0.855765 0.250339 0.138175 -0.225926
C92   C     C_2   0.858526 0.744427 0.150555 -0.221576
C93   C     C_2   0.237594 0.657585 0.961641 -0.097735
C94   C     C_2   0.239551 0.342789 0.961504 -0.102678
C95   C     C_2   0.805901 0.290485 0.128007 -0.096391
C96   C     C_2   0.805371 0.706086 0.134016 -0.093737
H89   H     H_    0.670243 0.314914 0.008048 0.130228
H90   H     H_    0.669490 0.679562 0.010432 0.130037
H91   H     H_    0.123518 0.730433 0.895115 0.141314
H92   H     H_    0.131057 0.263643 0.907346 0.133380
N33   N     N_R   0.776323 0.634192 0.571832 0.242069
O1    O     O_R   0.762867 0.562696 0.542170 -0.355798
O2    O     O_R   0.827846 0.651131 0.675454 -0.435375
N34   N     N_R   0.743528 0.418023 0.391048 0.255269
O3    O     O_R   0.695988 0.463209 0.311174 -0.405330
O4    O     O_R   0.808642 0.441312 0.459053 -0.373156
N35   N     N_R   0.223022 0.088047 0.356120 0.247565
O5    O     O_R   0.169114 0.055362 0.265690 -0.346879
O6    O     O_R   0.284900 0.057535 0.409800 -0.386107
N36   N     N_R   0.192957 0.879868 0.312463 0.254066
O7    O     O_R   0.133495 0.896202 0.215538 -0.382897
O8    O     O_R   0.250008 0.911997 0.340416 -0.332165

loop_
_geom_bond_atom_site_label_1
_geom_bond_atom_site_label_2
_geom_bond_distance
_ccdc_geom_bond_type
C28   C40   1.387214 A    
C83   C87   1.338303 D    
C56   C72   1.551601 S    
C53   H41   1.106787 S    
C58   C76   1.524037 S    
C6    H6    1.079475 S    
C70   C78   1.563401 S    
C3    N3    1.332405 A    
N5    Ni3   1.841009 S    
C21   C45   1.381377 A    
C10   C42   1.388302 A    
C32   N32   1.341477 A    
C46   C66   1.458329 S    
C9    C41   1.376159 A    
C16   C48   1.376610 A    
C88   C94   1.451049 S    
C55   H43   1.110199 S    
C74   H74   1.114136 S    
N21   Ni1   1.862516 S    
C18   H18   1.076279 S    
H80   C96   1.085467 S    
C63   H63   1.114004 S    
C51   C53   1.532273 S    
N16   N24   1.358785 A    
C1    H1    1.079406 S    
C64   C68   1.557507 S    
N32   Ni6   1.887705 S    
C8    H8    1.078602 S    
H78   C94   1.084581 S    
C26   N26   1.342467 A    
C14   H14   1.080515 S    
C3    H3    1.078329 S    
H77   C93   1.084334 S    
C13   H13   1.079527 S    
N30   Ni5   1.887705 S    
C6    C38   1.384799 A    
C77   H65   1.115896 S    
C43   C72   1.459054 S    
N2    N30   1.406914 A    
N3    N31   1.406914 A    
C87   C93   1.455516 S    
C44   C71   1.461547 S    
N24   Ni2   1.873469 S    
C17   N17   1.317393 A    
C52   H40   1.113196 S    
N11   N19   1.358803 A    
C78   H66   1.113477 S    
C61   C65   1.552741 S    
C80   N36   1.469697 S    
N3    Ni2   1.884537 S    
C56   H46   1.112572 S    
C20   N20   1.326639 A    
C61   H61   1.113128 S    
N7    Ni4   1.841009 S    
C20   H20   1.080132 S    
C29   N29   1.339845 A    
C56   H44   1.110403 S    
C10   N10   1.326423 A    
C32   H32   1.079929 S    
C36   C91   1.458971 S    
C77   N33   1.471060 S    
N19   Ni4   1.864436 S    
C31   N31   1.342798 A    
C82   H90   1.087392 S    
C3    C35   1.390886 A    
N35   O5    1.300342 A    
C81   H89   1.087429 S    
C40   C84   1.458291 S    
C64   H58   1.110913 S    
C14   C46   1.386760 A    
H51   C59   1.112852 S    
C4    N4    1.333163 A    
C70   C74   1.553821 S    
C13   C45   1.386887 A    
C76   H76   1.114112 S    
C4    H4    1.075170 S    
C52   H36   1.110056 S    
H49   C57   1.113617 S    
C50   H34   1.112687 S    
N13   Ni7   1.858815 S    
N10   Ni5   1.867659 S    
C7    N7    1.331215 A    
C58   H70   1.113945 S    
C69   C77   1.566990 S    
C50   C56   1.542729 S    
C8    N8    1.330873 A    
C27   C39   1.392381 A    
N35   O6    1.301157 A    
C22   N22   1.307870 A    
H83   C87   1.085357 S    
C81   C85   1.337090 D    
C2    H2    1.079018 S    
N29   Ni5   1.878929 S    
N26   Ni7   1.846074 S    
H82   C86   1.084583 S    
C37   C81   1.461404 S    
C64   C78   1.537672 S    
C84   C88   1.335911 D    
C8    C40   1.386327 A    
C90   C94   1.335664 D    
C78   N34   1.469443 S    
N4    Ni2   1.873796 S    
N22   Ni1   1.873469 S    
C9    H9    1.080138 S    
N9    Ni5   1.876724 S    
C48   C68   1.448974 S    
H81   C85   1.084655 S    
N36   O8    1.300473 A    
C28   N28   1.344411 A    
C53   H47   1.113163 S    
C18   C42   1.384086 A    
C86   C96   1.455383 S    
C31   H31   1.079306 S    
C22   H22   1.077654 S    
C55   H45   1.112044 S    
N13   N21   1.358803 A    
C18   N18   1.322314 A    
C28   H28   1.075745 S    
C12   H12   1.078868 S    
C12   N12   1.319912 A    
C1    N1    1.332836 A    
C89   C93   1.338592 D    
N16   Ni8   1.867840 S    
H86   C90   1.087513 S    
C1    C33   1.386624 A    
C29   H29   1.081693 S    
C62   H62   1.113609 S    
C15   H15   1.080080 S    
N17   Ni3   1.864436 S    
C11   N11   1.312239 A    
N1    N29   1.406914 A    
C11   H11   1.075516 S    
C63   C77   1.528378 S    
C80   H68   1.115776 S    
N23   Ni2   1.862516 S    
C57   C65   1.551658 S    
C55   C71   1.556174 S    
N27   Ni8   1.854713 S    
H56   C76   1.113729 S    
C7    H7    1.078442 S    
H50   C58   1.113107 S    
C23   H23   1.079837 S    
C49   H33   1.111127 S    
N33   O1    1.300942 A    
H87   C91   1.087376 S    
C51   C67   1.553285 S    
C82   C86   1.337402 D    
C72   C76   1.557096 S    
H55   C75   1.114320 S    
C22   C46   1.378376 A    
C11   C43   1.366357 A    
N28   Ni8   1.846074 S    
C49   C65   1.552899 S    
C72   C80   1.571356 S    
H84   C88   1.085774 S    
C9    N9    1.318425 A    
N34   O4    1.301638 A    
C30   N30   1.344429 A    
C64   H64   1.112953 S    
C47   C67   1.463638 S    
C49   C55   1.540155 S    
C84   H92   1.087605 S    
C38   C82   1.463192 S    
C20   C44   1.375348 A    
C32   C36   1.387135 A    
N2    Ni1   1.873796 S    
N7    N27   1.406914 A    
C25   N25   1.343814 A    
C60   H72   1.113998 S    
C83   H91   1.087365 S    
N6    Ni3   1.851579 S    
C23   N23   1.325735 A    
C10   H10   1.078780 S    
C60   C74   1.521987 S    
C41   C70   1.450919 S    
C4    C36   1.388502 A    
C30   H30   1.081511 S    
N18   Ni3   1.853528 S    
C85   C95   1.451572 S    
C63   C67   1.546600 S    
C61   H59   1.111455 S    
N20   Ni4   1.853528 S    
C19   N19   1.329572 A    
N15   N23   1.358803 A    
C13   N13   1.326841 A    
C2    N2    1.331991 A    
C24   H24   1.076515 S    
C51   H35   1.113036 S    
C92   C96   1.337122 D    
N12   Ni6   1.867659 S    
C5    C37   1.384603 A    
C54   H48   1.112099 S    
C15   N15   1.324316 A    
C21   N21   1.315500 A    
C16   N16   1.319194 A    
N25   Ni7   1.854713 S    
N36   O7    1.301360 A    
N15   Ni8   1.858815 S    
N9    N17   1.358803 A    
C25   C37   1.386482 A    
C54   C70   1.554208 S    
C51   H39   1.112214 S    
N31   Ni6   1.878929 S    
C71   C79   1.565184 S    
C62   C80   1.521674 S    
C58   C66   1.547831 S    
H88   C92   1.087467 S    
C39   C83   1.462672 S    
C57   C75   1.523832 S    
N12   N20   1.358785 A    
C54   H42   1.110203 S    
C17   C41   1.375000 A    
N5    N25   1.406914 A    
N8    Ni4   1.851579 S    
C5    H5    1.079859 S    
H52   C60   1.114091 S    
C57   H69   1.114020 S    
C71   C75   1.550182 S    
C59   H71   1.110754 S    
C50   C66   1.551486 S    
N6    N26   1.406914 A    
C52   C54   1.527699 S    
C26   C38   1.383285 A    
C75   H75   1.114212 S    
C59   C67   1.554332 S    
C6    N6    1.333815 A    
C60   C68   1.543573 S    
N8    N28   1.406914 A    
C49   H37   1.112484 S    
N1    Ni1   1.884537 S    
N33   O2    1.301620 A    
C45   C65   1.461458 S    
H54   C74   1.114398 S    
C5    N5    1.328697 A    
C14   N14   1.327059 A    
C27   N27   1.343601 A    
C53   C69   1.557407 S    
C12   C44   1.373804 A    
C17   H17   1.079950 S    
C15   C47   1.375627 A    
N34   O3    1.301114 A    
C42   C69   1.469432 S    
N14   Ni7   1.867840 S    
C19   H19   1.081080 S    
C24   N24   1.317535 A    
C23   C47   1.374896 A    
C30   C34   1.385283 A    
C63   H57   1.114580 S    
N14   N22   1.358785 A    
C24   C48   1.374450 A    
C29   C33   1.382475 A    
C62   C66   1.553404 S    
C91   C95   1.337190 D    
C31   C35   1.390732 A    
C21   H21   1.076134 S    
C16   H16   1.076184 S    
H79   C95   1.086427 S    
C35   C92   1.461972 S    
C2    C34   1.383249 A    
C19   C43   1.380589 A    
C26   H26   1.081443 S    
C34   C89   1.464209 S    
C79   N35   1.464677 S    
N10   N18   1.358785 A    
C25   H25   1.081465 S    
C33   C90   1.460471 S    
N4    N32   1.406914 A    
N11   Ni6   1.876724 S    
H53   C73   1.113049 S    
C61   C79   1.530839 S    
C7    C39   1.389752 A    
C69   C73   1.556004 S    
C27   H27   1.080143 S    
C50   H38   1.112436 S    
H85   C89   1.087306 S    
C79   H67   1.114374 S    
C59   C73   1.540801 S    
C62   H60   1.114740 S    
C52   C68   1.555799 S    
C73   H73   1.110949 S    
