data_mof_unit_60509.cif
_audit_creation_date              2013-03-05T16:24:10-0500
_audit_creation_method            fapswitch 2.2
_symmetry_space_group_name_H-M    P1
_symmetry_Int_Tables_number       1
_space_group_crystal_system       triclinic
_cell_length_a                    28.739727
_cell_length_b                    18.365664
_cell_length_c                    21.786414
_cell_angle_alpha                 90.482324
_cell_angle_beta                  140.293828
_cell_angle_gamma                 89.619802
_cell_volume                      7346.13651744

loop_
_atom_site_label
_atom_site_type_symbol
_atom_site_description
_atom_site_fract_x
_atom_site_fract_y
_atom_site_fract_z
_atom_type_partial_charge
O1    O     O_R   0.894200 0.438770 0.894190 -0.577321
O2    O     O_R   0.105800 0.561230 0.105810 -0.578481
O3    O     O_R   0.105800 0.438770 0.105810 -0.589869
O4    O     O_R   0.894200 0.561230 0.894190 -0.590719
O5    O     O_R   0.394200 0.938770 0.894190 -0.585979
O6    O     O_R   0.605800 0.061230 0.105810 -0.579941
O7    O     O_R   0.605800 0.938770 0.105810 -0.587864
O8    O     O_R   0.394200 0.061230 0.894190 -0.581721
C1    C     C_R   0.860182 0.499981 0.862257 0.836687
C2    C     C_R   0.139816 0.500022 0.137717 0.836742
C3    C     C_R   0.360198 0.000093 0.862514 0.836361
C4    C     C_R   0.639811 0.000023 0.137634 0.836024
O9    O     O_R   0.999990 0.438770 0.909810 -0.589938
O10   O     O_R   0.000010 0.561230 0.090190 -0.590926
O11   O     O_R   0.000010 0.438770 0.090190 -0.571316
O12   O     O_R   0.999990 0.561230 0.909810 -0.571753
O13   O     O_R   0.499990 0.938770 0.909810 -0.571851
O14   O     O_R   0.500010 0.061230 0.090190 -0.590191
O15   O     O_R   0.500010 0.938770 0.090190 -0.571574
O16   O     O_R   0.499990 0.061230 0.909810 -0.590630
C5    C     C_R   0.996162 0.499600 0.877084 0.804179
C6    C     C_R   0.003763 0.500409 0.122842 0.804487
C7    C     C_R   0.496418 0.999939 0.877367 0.804534
C8    C     C_R   0.503809 0.000412 0.122879 0.803945
Cu1   Cu    Cu3+1 0.000000 0.427490 0.000000 0.962195
Cu2   Cu    Cu3+1 0.000000 0.572510 0.000000 0.959376
Cu3   Cu    Cu3+1 0.500000 0.927490 0.000000 0.964216
Cu4   Cu    Cu3+1 0.500000 0.072510 0.000000 0.958383
H1    H     H_    0.078104 0.420898 0.884630 0.156050
H2    H     H_    0.921330 0.578691 0.114755 0.156148
H3    H     H_    0.582265 0.073995 0.890128 0.155611
H4    H     H_    0.420500 0.077659 0.113878 0.155528
C9    C     C_R   0.876202 0.574380 0.682425 0.173926
C10   C     C_R   0.124081 0.426347 0.317925 0.171347
C11   C     C_R   0.373916 0.929396 0.679120 0.169217
C12   C     C_R   0.624974 0.927622 0.318773 0.173155
C13   C     C_R   0.840631 0.631620 0.616933 -0.182270
C14   C     C_R   0.159946 0.369315 0.383749 -0.179621
C15   C     C_R   0.335988 0.873823 0.610289 -0.178333
C16   C     C_R   0.661485 0.870982 0.385230 -0.181764
H5    H     H_    0.792669 0.656483 0.588521 0.148581
H6    H     H_    0.208074 0.344743 0.412367 0.155125
H7    H     H_    0.287074 0.850877 0.580531 0.155357
H8    H     H_    0.709869 0.846927 0.414097 0.148791
C17   C     C_R   0.866334 0.657749 0.587768 -0.182702
C18   C     C_R   0.134309 0.343013 0.412949 -0.180813
C19   C     C_R   0.360730 0.846707 0.579812 -0.181254
C20   C     C_R   0.636131 0.844363 0.414687 -0.182883
H9    H     H_    0.840709 0.705311 0.542034 0.148604
H10   H     H_    0.160157 0.295584 0.458927 0.154781
H11   H     H_    0.333406 0.800123 0.531679 0.154769
H12   H     H_    0.662467 0.797175 0.461118 0.148405
C21   C     C_R   0.924264 0.623228 0.616574 0.174592
C22   C     C_R   0.076156 0.377200 0.383868 0.172304
C23   C     C_R   0.420124 0.878821 0.610781 0.172590
C24   C     C_R   0.577567 0.877872 0.385155 0.175065
C25   C     C_R   0.955831 0.559463 0.674346 0.058632
C26   C     C_R   0.044317 0.440815 0.325811 0.058818
C27   C     C_R   0.453978 0.941365 0.671675 0.060172
C28   C     C_R   0.545045 0.941179 0.326484 0.059055
C29   C     C_R   0.940493 0.543883 0.721209 0.057334
C30   C     C_R   0.059600 0.456469 0.278906 0.056984
C31   C     C_R   0.439378 0.957307 0.719538 0.055407
C32   C     C_R   0.560170 0.957045 0.279436 0.057078
C33   C     C_R   0.989860 0.498323 0.803579 -0.087609
C34   C     C_R   0.009996 0.501733 0.196274 -0.087763
C35   C     C_R   0.490734 0.000504 0.804548 -0.085882
C36   C     C_R   0.510049 0.001757 0.196302 -0.086817
C37   C     C_R   0.041062 0.456810 0.823113 -0.200665
C38   C     C_R   0.958563 0.542991 0.176486 -0.201946
C39   C     C_R   0.543727 0.039763 0.826536 -0.201753
C40   C     C_R   0.458124 0.042377 0.176010 -0.200989
H13   H     H_    0.081738 0.424497 0.776607 0.156607
H14   H     H_    0.917757 0.575164 0.222862 0.157031
H15   H     H_    0.585509 0.070837 0.781697 0.158846
H16   H     H_    0.416885 0.074008 0.221924 0.157316
C41   C     C_R   0.045072 0.460833 0.763785 -0.200773
C42   C     C_R   0.954601 0.538999 0.235872 -0.201751
C43   C     C_R   0.547376 0.035968 0.766782 -0.200990
C44   C     C_R   0.454161 0.038285 0.235385 -0.200177
C45   C     C_R   0.002392 0.510995 0.688638 -0.088956
C46   C     C_R   0.997562 0.489075 0.311317 -0.089177
C47   C     C_R   0.502366 0.988018 0.688469 -0.092032
C48   C     C_R   0.497679 0.988852 0.311400 -0.090005
C49   C     C_1   0.782597 0.499923 0.784785 -0.177521
C50   C     C_1   0.217402 0.500089 0.215193 -0.178286
C51   C     C_1   0.282602 0.000213 0.784992 -0.178513
C52   C     C_1   0.717401 0.000094 0.215123 -0.177947
C53   C     C_1   0.717277 0.499952 0.718890 -0.167490
C54   C     C_1   0.282723 0.500069 0.281101 -0.168062
C55   C     C_1   0.217280 0.000165 0.718976 -0.168078
C56   C     C_1   0.782722 0.000067 0.281071 -0.167618
O17   O     O_R   0.061240 0.605830 0.561270 -0.578114
O18   O     O_R   0.938760 0.394170 0.438730 -0.577437
O19   O     O_R   0.938760 0.605830 0.438730 -0.590496
O20   O     O_R   0.061240 0.394170 0.561270 -0.590576
O21   O     O_R   0.561240 0.105830 0.561270 -0.578986
O22   O     O_R   0.438760 0.894170 0.438730 -0.587562
O23   O     O_R   0.438760 0.105830 0.438730 -0.580947
O24   O     O_R   0.561240 0.894170 0.561270 -0.588403
C57   C     C_R   0.000005 0.639871 0.497993 0.836488
C58   C     C_R   0.999995 0.360127 0.501981 0.836864
C59   C     C_R   0.499985 0.139929 0.499828 0.851813
C60   C     C_R   0.500019 0.860071 0.499942 0.820483
O25   O     O_R   0.061260 0.500000 0.651450 -0.590158
O26   O     O_R   0.938740 0.500000 0.348550 -0.590125
O27   O     O_R   0.561260 0.000000 0.651450 -0.590115
O28   O     O_R   0.438740 0.000000 0.348550 -0.590271
O29   O     O_R   0.938780 0.500000 0.528960 -0.571290
O30   O     O_R   0.061220 0.500000 0.471040 -0.572007
O31   O     O_R   0.438780 0.000000 0.528960 -0.571840
O32   O     O_R   0.561220 0.000000 0.471040 -0.571328
C61   C     C_R   0.000673 0.504176 0.619732 0.804324
C62   C     C_R   0.999318 0.495891 0.380256 0.803759
C63   C     C_R   0.500660 0.995334 0.619647 0.804900
C64   C     C_R   0.499338 0.995708 0.380273 0.804581
Cu5   Cu    Cu3+1 0.072520 0.500000 0.572540 0.960733
Cu6   Cu    Cu3+1 0.927480 0.500000 0.427460 0.961788
Cu7   Cu    Cu3+1 0.572520 0.000000 0.572540 0.961893
Cu8   Cu    Cu3+1 0.427480 1.000000 0.427460 0.960630
O33   O     O_R   0.500010 0.605810 0.447830 -0.584458
O34   O     O_R   0.499990 0.394190 0.552170 -0.582577
O35   O     O_R   0.499990 0.605810 0.552170 -0.584450
O36   O     O_R   0.500010 0.394190 0.447830 -0.581697
O37   O     O_R   0.000010 0.105810 0.447830 -0.584577
O38   O     O_R   0.999990 0.894190 0.552170 -0.584849
O39   O     O_R   0.999990 0.105810 0.552170 -0.581370
O40   O     O_R   0.000010 0.894190 0.447830 -0.582576
C65   C     C_R   0.500028 0.639682 0.500220 0.835422
C66   C     C_R   0.499985 0.360311 0.499779 0.837938
C67   C     C_R   0.999986 0.139695 0.500249 0.837331
C68   C     C_R   0.000015 0.860305 0.499751 0.836237
O41   O     O_R   0.605800 0.500000 0.553630 -0.584699
O42   O     O_R   0.394200 0.500000 0.446370 -0.585319
O43   O     O_R   0.105800 0.000000 0.553630 -0.585493
O44   O     O_R   0.894200 0.000000 0.446370 -0.584754
O45   O     O_R   0.605820 0.500000 0.658030 -0.581643
O46   O     O_R   0.394180 0.500000 0.341970 -0.581492
O47   O     O_R   0.105820 0.000000 0.658030 -0.581489
O48   O     O_R   0.894180 0.000000 0.341970 -0.581777
C69   C     C_R   0.639704 0.499997 0.640204 0.836676
C70   C     C_R   0.360296 0.500022 0.359795 0.836385
C71   C     C_R   0.139705 0.000053 0.640216 0.836590
C72   C     C_R   0.860296 0.000013 0.359790 0.836801
Cu9   Cu    Cu3+1 0.500000 0.500000 0.438200 0.964690
Cu10  Cu    Cu3+1 0.500000 0.500000 0.561800 0.963406
Cu11  Cu    Cu3+1 0.000000 0.000000 0.438200 0.962732
Cu12  Cu    Cu3+1 0.000000 0.000000 0.561800 0.964334
C73   C     C_1   0.000085 0.717452 0.498295 -0.178572
C74   C     C_1   0.999918 0.282548 0.501684 -0.177568
C75   C     C_1   0.499960 0.217464 0.499502 -0.176634
C76   C     C_1   0.500076 0.782474 0.500303 -0.179539
C77   C     C_1   0.499965 0.282767 0.499410 -0.167809
C78   C     C_1   0.500068 0.717198 0.500521 -0.166580
C79   C     C_1   0.000064 0.782755 0.499020 -0.168407
C80   C     C_1   0.999939 0.217245 0.500973 -0.166915
C81   C     C_3   0.836898 0.542239 0.696201 -0.839058
H17   H     H_    0.779076 0.532117 0.625026 0.228128
H18   H     H_    0.859034 0.488840 0.732493 0.218199
H19   H     H_    0.837771 0.582099 0.735426 0.246253
C82   C     C_3   0.163241 0.458707 0.304024 -0.840318
H20   H     H_    0.220990 0.469178 0.375164 0.227872
H21   H     H_    0.162634 0.418820 0.265088 0.247337
H22   H     H_    0.140808 0.511968 0.267389 0.217452
C83   C     C_3   0.336136 0.962622 0.695169 -0.842179
H23   H     H_    0.278510 0.974517 0.624807 0.228313
H24   H     H_    0.336270 0.922581 0.732935 0.246329
H25   H     H_    0.359949 0.015315 0.733804 0.219739
C84   C     C_3   0.663734 0.960336 0.304436 -0.839813
H26   H     H_    0.721369 0.971463 0.375430 0.228529
H27   H     H_    0.663549 0.920347 0.266002 0.245555
H28   H     H_    0.640706 0.013312 0.267133 0.219171
C85   C     C_3   0.956112 0.663330 0.595623 -0.838237
H29   H     H_    0.009621 0.641630 0.635358 0.217084
H30   H     H_    0.916191 0.662722 0.517081 0.246955
H31   H     H_    0.965910 0.721035 0.618907 0.227986
C86   C     C_3   0.044392 0.336895 0.404840 -0.836752
H32   H     H_    0.084250 0.337608 0.483366 0.247438
H33   H     H_    0.990774 0.358368 0.364962 0.216602
H34   H     H_    0.034845 0.279166 0.381742 0.228261
C87   C     C_3   0.451315 0.836944 0.589394 -0.835664
H35   H     H_    0.411761 0.837973 0.510968 0.248437
H36   H     H_    0.505558 0.857041 0.630491 0.214137
H37   H     H_    0.459414 0.779228 0.610927 0.228533
C88   C     C_3   0.546045 0.837055 0.406140 -0.838557
H38   H     H_    0.585703 0.838179 0.484609 0.246998
H39   H     H_    0.492081 0.857897 0.365640 0.215429
H40   H     H_    0.537258 0.779249 0.383687 0.228104

loop_
_geom_bond_atom_site_label_1
_geom_bond_atom_site_label_2
_geom_bond_distance
_ccdc_geom_bond_type
C26   C30   1.420256 A    
O23   C59   1.287224 A    
O14   Cu4   1.977321 S    
C83   H23   1.111307 S    
C23   C27   1.424494 A    
C38   C42   1.385868 A    
C28   C48   1.424218 A    
C84   H26   1.111268 S    
O28   Cu8   1.978957 S    
C37   C41   1.385736 A    
Cu11  Cu12  2.692801 S    
O24   C60   1.287044 A    
C44   C48   1.397992 A    
C10   C82   1.499316 S    
O9    Cu1   1.977321 S    
O44   Cu12  1.950446 S    
C39   C43   1.385296 A    
C82   H20   1.111295 S    
C21   C85   1.498683 S    
H4    C40   1.083874 S    
C85   H29   1.105644 S    
C12   C84   1.498948 S    
O12   C5    1.291885 A    
O26   C62   1.289423 A    
O26   Cu6   1.978957 S    
O14   C8    1.287960 A    
C32   C36   1.422907 A    
O25   C61   1.289606 A    
C67   C80   1.424202 S    
C27   C47   1.424646 A    
O5    C3    1.288584 A    
C51   C55   1.199370 T    
C26   C46   1.423684 A    
O6    C4    1.286682 A    
C65   C78   1.423597 S    
O44   C72   1.295923 A    
C53   C69   1.424269 S    
C88   H39   1.105724 S    
O20   C58   1.288506 A    
O46   Cu9   1.958063 S    
C10   C30   1.425935 A    
C68   C79   1.424201 S    
O7    Cu3   1.953922 S    
O30   Cu5   1.972416 S    
C16   C20   1.382500 A    
C7    C35   1.464649 S    
O37   C67   1.296442 A    
C6    C34   1.466466 S    
H2    C38   1.083916 S    
O23   Cu8   1.954729 S    
O5    Cu3   1.953760 S    
O47   C71   1.296360 A    
C11   C31   1.426141 A    
O11   C6    1.291985 A    
O6    Cu4   1.953759 S    
C52   C56   1.199350 T    
C3    C51   1.424941 S    
C86   H33   1.105744 S    
O16   C7    1.285960 A    
C17   H9    1.084089 S    
O15   Cu3   1.973853 S    
O30   C62   1.291437 A    
C16   H8    1.084081 S    
C55   C71   1.424304 S    
O29   C61   1.291327 A    
O39   Cu12  1.956293 S    
C1    C49   1.424754 S    
H3    C39   1.083955 S    
C17   C21   1.397376 A    
C83   H24   1.105905 S    
C74   C80   1.199310 T    
O35   C65   1.296811 A    
C75   C77   1.199338 T    
O1    Cu1   1.953760 S    
C84   H27   1.106039 S    
O25   Cu5   1.978957 S    
O17   Cu5   1.954561 S    
O40   C68   1.295533 A    
O48   Cu11  1.958063 S    
O27   Cu7   1.978957 S    
C82   H21   1.106091 S    
C9    C81   1.499318 S    
O29   Cu6   1.972416 S    
Cu9   Cu10  2.692801 S    
H1    C37   1.083872 S    
C87   H36   1.105695 S    
O19   Cu6   1.954729 S    
O12   Cu2   1.973853 S    
O7    C4    1.288550 A    
O42   Cu10  1.950446 S    
C31   C35   1.422225 A    
O47   Cu12  1.958058 S    
C30   C34   1.422980 A    
O9    C5    1.288280 A    
O13   Cu3   1.977321 S    
C47   C63   1.469284 S    
O20   Cu5   1.954731 S    
C12   C16   1.397388 A    
O1    C1    1.286717 A    
C46   C62   1.467771 S    
C50   C54   1.199343 T    
O17   C57   1.286636 A    
O33   Cu9   1.952785 S    
C49   C53   1.199341 T    
C88   H40   1.111257 S    
C19   H11   1.083993 S    
O16   Cu4   1.973853 S    
Cu1   Cu2   2.663390 S    
C87   H35   1.106210 S    
C15   C19   1.382292 A    
C9    C13   1.397388 A    
C24   C28   1.425342 A    
C81   H17   1.111285 S    
O31   Cu8   1.972416 S    
O21   Cu7   1.954561 S    
C11   C15   1.397310 A    
O37   Cu11  1.952785 S    
O42   C70   1.295845 A    
C42   C46   1.398052 A    
O4    Cu2   1.953924 S    
O35   Cu10  1.956293 S    
O38   C68   1.296468 A    
C36   C40   1.398089 A    
C86   H34   1.111320 S    
C18   C22   1.397283 A    
C23   C87   1.496555 S    
O36   C66   1.296607 A    
O2    Cu2   1.953759 S    
O24   Cu7   1.954731 S    
O13   C7    1.293203 A    
O10   Cu2   1.977321 S    
C25   C29   1.420439 A    
C54   C70   1.424271 S    
O27   C63   1.290304 A    
O21   C59   1.287161 A    
C85   H30   1.106156 S    
C58   C74   1.424764 S    
C9    C29   1.426086 A    
C76   C78   1.198881 T    
C86   H32   1.106181 S    
C83   H25   1.105496 S    
O43   Cu11  1.950443 S    
O46   C70   1.296529 A    
O10   C6    1.288077 A    
O8    Cu4   1.953924 S    
C84   H28   1.105581 S    
C25   C45   1.423985 A    
C81   H18   1.105668 S    
O41   Cu9   1.950443 S    
C13   C17   1.382660 A    
O2    C2    1.286686 A    
O32   C64   1.291336 A    
C82   H22   1.105680 S    
C19   C23   1.396930 A    
C22   C26   1.425481 A    
C85   H31   1.111267 S    
C20   C24   1.397236 A    
O45   C69   1.296555 A    
C2    C50   1.424777 S    
O38   Cu12  1.952787 S    
C87   H37   1.111278 S    
C5    C33   1.466616 S    
C10   C14   1.397374 A    
C27   C31   1.419719 A    
H16   C44   1.083798 S    
O33   C65   1.294958 A    
C21   C25   1.425634 A    
O32   Cu7   1.972416 S    
C15   H7    1.084003 S    
Cu7   Cu8   2.663391 S    
O40   Cu11  1.956295 S    
O22   Cu8   1.954563 S    
C59   C75   1.424056 S    
C81   H19   1.106129 S    
O36   Cu9   1.956295 S    
C18   H10   1.084035 S    
O41   C69   1.295819 A    
C22   C86   1.498830 S    
C28   C32   1.420135 A    
O45   Cu10  1.958058 S    
C60   C76   1.425194 S    
O48   C72   1.296456 A    
O15   C8    1.291964 A    
C73   C79   1.199312 T    
C40   C44   1.385791 A    
O3    C2    1.288487 A    
Cu5   Cu6   2.663391 S    
C43   C47   1.397770 A    
O18   Cu6   1.954563 S    
O28   C64   1.289969 A    
C88   H38   1.106218 S    
C34   C38   1.398261 A    
O8    C3    1.286762 A    
C33   C37   1.398155 A    
C57   C73   1.424790 S    
O43   C71   1.296034 A    
C11   C83   1.498437 S    
O34   C66   1.295286 A    
C66   C77   1.424107 S    
C35   C39   1.398240 A    
O34   Cu10  1.952787 S    
C13   H5    1.084089 S    
C56   C72   1.424282 S    
O39   C67   1.295561 A    
C14   C18   1.382776 A    
O11   Cu1   1.973853 S    
C8    C36   1.466140 S    
C14   H6    1.084033 S    
C29   C33   1.423186 A    
C20   H12   1.084077 S    
O3    Cu1   1.953922 S    
C24   C88   1.497926 S    
O18   C58   1.286639 A    
C48   C64   1.468468 S    
C41   C45   1.397903 A    
H14   C42   1.083870 S    
C45   C61   1.467843 S    
Cu3   Cu4   2.663390 S    
H13   C41   1.083837 S    
O31   C63   1.291557 A    
O4    C1    1.288440 A    
C12   C32   1.426094 A    
H15   C43   1.083795 S    
O22   C60   1.287290 A    
C4    C52   1.424839 S    
O19   C57   1.288532 A    
