data_mof_unit_28598.cif
_audit_creation_date              2013-03-05T16:10:40-0500
_audit_creation_method            fapswitch 2.2
_symmetry_space_group_name_H-M    P1
_symmetry_Int_Tables_number       1
_space_group_crystal_system       triclinic
_cell_length_a                    9.889277
_cell_length_b                    10.664697
_cell_length_c                    15.505112
_cell_angle_alpha                 90.301338
_cell_angle_beta                  67.278694
_cell_angle_gamma                 89.763562
_cell_volume                      1508.3044087

loop_
_atom_site_label
_atom_site_type_symbol
_atom_site_description
_atom_site_fract_x
_atom_site_fract_y
_atom_site_fract_z
_atom_type_partial_charge
O1    O     O_R   0.385370 0.683250 0.500010 -0.544869
O2    O     O_R   0.614630 0.316750 0.499990 -0.545705
O3    O     O_R   0.614700 0.683220 0.500000 -0.637051
O4    O     O_R   0.385300 0.316780 0.500000 -0.639660
C1    C     C_R   0.501478 0.739657 0.497437 0.954828
C2    C     C_R   0.498517 0.260343 0.502581 0.950849
O5    O     O_R   0.319830 0.500020 0.632250 -0.582548
O6    O     O_R   0.680170 0.499980 0.367750 -0.582318
O7    O     O_R   0.549160 0.499990 0.632240 -0.610245
O8    O     O_R   0.450840 0.500010 0.367760 -0.609395
C3    C     C_R   0.408083 0.499504 0.676149 0.905563
C4    C     C_R   0.591988 0.497624 0.323888 0.913002
Zn1   Zn    Zn3+2 0.346870 0.500020 0.500000 1.044950
Zn2   Zn    Zn3+2 0.653130 0.499980 0.500000 1.045943
C5    C     C_R   0.352476 0.481714 0.777038 -0.024678
C6    C     C_R   0.650318 0.488532 0.222107 -0.032404
C7    C     C_R   0.184639 0.384569 0.917858 -0.207506
C8    C     C_R   0.841101 0.521076 0.069921 -0.207947
C9    C     C_R   0.217873 0.424169 0.826309 -0.152956
C10   C     C_R   0.795396 0.519195 0.166902 -0.134501
C11   C     C_R   0.450165 0.503011 0.820357 -0.207293
C12   C     C_R   0.554571 0.452274 0.180157 -0.224705
C13   C     C_R   0.426123 0.452822 0.907819 0.112100
C14   C     C_R   0.597581 0.452953 0.083216 0.100947
C15   C     C_R   0.288243 0.397887 0.958815 0.158307
C16   C     C_R   0.742198 0.491662 0.027888 0.161218
C17   C     C_R   0.535343 0.457455 0.945820 0.068900
C18   C     C_R   0.496639 0.426313 0.040889 0.062627
C19   C     C_R   0.358124 0.371006 0.090360 -0.188551
C20   C     C_R   0.682640 0.489567 0.891321 -0.176391
C21   C     C_R   0.256705 0.355673 0.049259 -0.196830
C22   C     C_R   0.784686 0.504409 0.931787 -0.209549
H1    H     H_    0.443292 0.430981 0.225003 0.157284
H2    H     H_    0.547187 0.556826 0.783030 0.146483
H3    H     H_    0.871222 0.546339 0.198619 0.178804
H4    H     H_    0.141460 0.405836 0.793192 0.169045
H5    H     H_    0.080305 0.339853 0.955458 0.156410
H6    H     H_    0.951766 0.550464 0.028100 0.156659
H7    H     H_    0.326823 0.334379 0.160040 0.163539
H8    H     H_    0.723222 0.500859 0.816489 0.164168
C23   C     C_R   0.562028 0.932901 0.552835 -0.254653
C24   C     C_R   0.438096 0.067107 0.447095 -0.255780
H9    H     H_    0.605442 0.879534 0.595890 0.193829
H10   H     H_    0.394722 0.120489 0.404024 0.192224
C25   C     C_R   0.557569 0.061761 0.559307 0.354759
C26   C     C_R   0.442580 0.938235 0.440611 0.353779
C27   C     C_R   0.496496 0.127867 0.504775 -0.192593
C28   C     C_R   0.503563 0.872136 0.495195 -0.194098
C29   C     C_R   0.955315 0.404378 0.457959 0.378071
C30   C     C_R   0.044669 0.595583 0.542077 0.374615
C31   C     C_R   0.098250 0.404806 0.458748 -0.195427
C32   C     C_R   0.901744 0.595173 0.541273 -0.197039
H11   H     H_    0.174292 0.329500 0.424952 0.184442
H12   H     H_    0.825707 0.670476 0.575071 0.187612
N1    N     N_R   0.142780 0.500030 0.500020 -0.150607
N2    N     N_R   0.857220 0.499970 0.499980 -0.150828
H13   H     H_    0.152424 0.312028 0.088935 0.178210
H14   H     H_    0.895768 0.530930 0.888141 0.167828
N3    N     N_R   0.608707 0.122977 0.623868 0.223540
O9    O     O_R   0.531834 0.212826 0.677998 -0.407410
O10   O     O_R   0.719804 0.076829 0.638717 -0.320954
N4    N     N_R   0.391563 0.876996 0.375991 0.224057
O11   O     O_R   0.468106 0.786690 0.322222 -0.403568
O12   O     O_R   0.280827 0.923361 0.360831 -0.321770
N5    N     N_R   0.916114 0.303294 0.411518 0.217828
O13   O     O_R   0.942729 0.188375 0.428337 -0.336321
O14   O     O_R   0.887232 0.325828 0.338113 -0.399048
N6    N     N_R   0.083843 0.696580 0.588596 0.219548
O15   O     O_R   0.057299 0.811542 0.571827 -0.332746
O16   O     O_R   0.112683 0.673907 0.661999 -0.394025

loop_
_geom_bond_atom_site_label_1
_geom_bond_atom_site_label_2
_geom_bond_distance
_ccdc_geom_bond_type
C15   C21   1.391573 A    
Zn2   N2    2.018182 S    
O7    Zn2   1.905967 S    
C24   H10   1.085062 S    
C16   C22   1.390776 A    
N4    O11   1.301387 A    
C13   C17   1.417039 A    
C29   N2    1.378935 A    
C23   H9    1.085038 S    
C30   C32   1.418306 A    
C30   N1    1.378823 A    
C8    C16   1.404491 A    
C22   H14   1.083979 S    
O6    C4    1.296837 A    
C7    C15   1.405723 A    
C21   H13   1.084202 S    
C3    C5    1.457704 S    
C11   C13   1.393433 A    
N4    O12   1.301765 A    
C8    H6    1.083131 S    
O3    C1    1.283201 A    
C20   H8    1.078874 S    
N3    O9    1.301217 A    
C19   C21   1.390247 A    
C7    H5    1.083604 S    
C17   C20   1.417565 A    
C20   C22   1.388006 A    
O7    C3    1.294730 A    
C19   H7    1.078307 S    
O2    C2    1.285431 A    
O3    Zn2   1.989271 S    
C29   N5    1.428938 S    
C26   N4    1.439193 S    
O1    C1    1.285480 A    
O8    C4    1.295301 A    
N6    O16   1.299308 A    
C6    C10   1.398627 A    
C7    C9    1.395839 A    
C23   C28   1.396114 A    
C14   C16   1.418639 A    
O5    C3    1.297665 A    
C8    C10   1.393254 A    
C24   C27   1.396157 A    
C13   C15   1.416427 A    
O2    Zn2   1.992391 S    
C1    C28   1.413492 S    
C12   C14   1.395162 A    
C5    C11   1.391931 A    
N3    O10   1.301693 A    
O1    Zn1   1.992391 S    
C2    C27   1.413438 S    
C26   C28   1.404981 A    
C4    C6    1.458534 S    
O5    Zn1   1.962825 S    
C14   C18   1.419296 A    
O4    C2    1.283265 A    
N5    O13   1.301165 A    
C24   C26   1.376800 A    
C25   C27   1.404975 A    
C17   C18   1.414204 A    
C12   H1    1.076434 S    
C23   C25   1.376670 A    
C18   C19   1.418597 A    
N5    O14   1.299286 A    
C6    C12   1.394737 A    
C11   H2    1.078894 S    
O6    Zn2   1.962827 S    
C31   N1    1.359891 A    
C31   H11   1.082249 S    
C9    H4    1.082971 S    
C5    C9    1.399376 A    
C10   H3    1.083091 S    
C30   N6    1.428851 S    
C25   N3    1.439084 S    
C32   N2    1.359883 A    
O4    Zn1   1.989271 S    
C32   H12   1.082211 S    
N6    O15   1.301194 A    
C29   C31   1.418323 A    
O8    Zn1   1.905970 S    
Zn1   N1    2.018183 S    
