data_mof_unit_14085.cif
_audit_creation_date              2012-12-11T14:28:24-0500
_audit_creation_method            fapswitch 2.2
_symmetry_space_group_name_H-M    P1
_symmetry_Int_Tables_number       1
_space_group_crystal_system       triclinic
_cell_length_a                    10.971893
_cell_length_b                    19.075451
_cell_length_c                    18.495866
_cell_angle_alpha                 89.998639
_cell_angle_beta                  90.338434
_cell_angle_gamma                 89.999255
_cell_volume                      3871.00268211

loop_
_atom_site_label
_atom_site_type_symbol
_atom_type_description
_atom_site_fract_x
_atom_site_fract_y
_atom_site_fract_z
_atom_type_partial_charge
C1    C     C_R   0.319084 0.969255 0.645905 0.519976
C2    C     C_3   0.149549 0.694397 0.023558 -0.117308
C3    C     C_3   0.993107 0.207424 0.986370 -0.114435
C4    C     C_3   0.493089 0.292577 0.486371 -0.114473
C5    C     C_3   0.616259 0.308824 0.030843 -0.107984
C6    C     C_3   0.616434 0.691225 0.530859 -0.107817
C7    C     C_3   0.493081 0.707434 0.986376 -0.114461
C8    C     C_3   0.128449 0.810209 0.503559 -0.154191
C9    C     C_3   0.197191 0.760362 0.984644 -0.137413
C10   C     C_3   0.197195 0.239653 0.484645 -0.137413
C11   C     C_3   0.128201 0.189726 0.003632 -0.154190
C12   C     C_3   0.628183 0.310277 0.503633 -0.154229
C13   C     C_3   0.149531 0.305616 0.523553 -0.117307
C14   C     C_3   0.697200 0.260346 0.984644 -0.137419
C15   C     C_3   0.697210 0.739775 0.484634 -0.137426
C16   C     C_3   0.628170 0.689727 0.003638 -0.154202
C17   C     C_3   0.125954 0.756795 0.564611 0.087625
C18   C     C_3   0.093407 0.752342 0.929230 0.082842
C19   C     C_3   0.093407 0.247660 0.429230 0.082825
C20   C     C_3   0.125946 0.243212 0.064619 0.087665
C21   C     C_3   0.625929 0.256788 0.564621 0.087663
C22   C     C_3   0.593410 0.252343 0.929232 0.082831
C23   C     C_3   0.593383 0.747656 0.429227 0.082579
C24   C     C_3   0.172546 0.248283 0.952431 -0.136504
C25   C     C_3   0.625929 0.743215 0.064621 0.087651
C26   C     C_3   0.994786 0.738978 0.548056 0.106764
C27   C     C_3   0.014527 0.800297 0.974575 0.118437
C28   C     C_3   0.014542 0.199700 0.474580 0.118448
C29   C     C_3   0.994834 0.261177 0.048063 0.106856
C30   C     C_3   0.494818 0.238821 0.548065 0.106852
C31   C     C_3   0.514554 0.300308 0.974582 0.118454
C32   C     C_3   0.514688 0.699625 0.474608 0.118564
C33   C     C_3   0.494822 0.761190 0.048065 0.106849
C34   C     C_3   0.035901 0.679847 0.498037 -0.106321
C35   C     C_3   0.672533 0.251719 0.452433 -0.136485
C36   C     C_3   0.963139 0.735746 0.013518 -0.123653
C37   C     C_3   0.963134 0.264248 0.513517 -0.123657
C38   C     C_3   0.036168 0.320193 0.997966 -0.106208
C39   C     C_3   0.536158 0.179805 0.497968 -0.106193
C40   C     C_3   0.463142 0.235763 0.013522 -0.123667
C41   C     C_3   0.463092 0.764128 0.513529 -0.123738
C42   C     C_3   0.536168 0.820199 0.997964 -0.106173
C43   C     C_3   0.170048 0.697932 0.514772 -0.123750
C44   C     C_3   0.045368 0.687319 0.967638 -0.140137
C45   C     C_3   0.045347 0.312681 0.467632 -0.140139
C46   C     C_3   0.649530 0.194386 0.023555 -0.117318
C47   C     C_3   0.170253 0.301956 0.014700 -0.123980
C48   C     C_3   0.670242 0.198043 0.514703 -0.123957
C49   C     C_3   0.545344 0.187327 0.967637 -0.140142
C50   C     C_3   0.545125 0.812637 0.467614 -0.140210
C51   C     C_3   0.670249 0.801953 0.014700 -0.123981
C52   C     C_3   0.649349 0.805698 0.523523 -0.117256
C53   C     C_3   0.672529 0.748276 0.952434 -0.136499
C54   C     C_3   0.039119 0.733422 0.436282 0.030390
C55   C     C_3   0.068359 0.743067 0.068746 0.032577
C56   C     C_3   0.068358 0.256939 0.568745 0.032575
C57   C     C_R   0.321558 0.971039 0.852232 0.525954
C58   C     C_3   0.039145 0.266549 0.936275 0.030427
C59   C     C_3   0.539135 0.233452 0.436276 0.030429
C60   C     C_3   0.568367 0.243067 0.068748 0.032571
C61   C     C_3   0.568355 0.756945 0.568744 0.032542
C62   C     C_3   0.539133 0.766552 0.936276 0.030425
C63   C     C_R   0.333048 0.991131 0.421312 -0.048276
C64   C     C_R   0.322642 0.999999 0.072674 -0.045826
C65   C     C_R   0.322644 0.000001 0.572674 -0.045852
C66   C     C_R   0.333048 0.008863 0.921311 -0.048224
C67   C     C_R   0.833051 0.491152 0.421323 -0.048242
C68   C     C_R   0.321559 0.028959 0.352231 0.525967
C69   C     C_R   0.822642 0.499997 0.072675 -0.045846
C70   C     C_R   0.822649 0.500020 0.572684 -0.045920
C71   C     C_R   0.833049 0.508861 0.921313 -0.048224
C72   C     C_R   0.558628 0.995796 0.428980 -0.088685
C73   C     C_R   0.543563 0.978941 0.076928 -0.070833
C74   C     C_R   0.543561 0.021055 0.576926 -0.070859
C75   C     C_R   0.558627 0.004183 0.928979 -0.088749
C76   C     C_R   0.058633 0.495841 0.428991 -0.088655
C77   C     C_R   0.043564 0.478937 0.076931 -0.070845
C78   C     C_R   0.043565 0.521061 0.576942 -0.070853
C79   C     C_R   0.319085 0.030745 0.145905 0.519973
C80   C     C_R   0.058629 0.504174 0.928981 -0.088749
C81   C     C_R   0.663714 0.009735 0.469103 -0.133717
C82   C     C_R   0.655633 0.976436 0.042738 -0.133615
C83   C     C_R   0.655631 0.023561 0.542736 -0.133666
C84   C     C_R   0.663714 0.990252 0.969103 -0.133721
C85   C     C_R   0.163719 0.509760 0.469119 -0.133668
C86   C     C_R   0.155635 0.476430 0.042742 -0.133606
C87   C     C_R   0.155636 0.523556 0.542758 -0.133593
C88   C     C_R   0.163716 0.490244 0.969106 -0.133717
C89   C     C_R   0.436296 0.004713 0.537853 -0.002247
C90   C     C_R   0.819086 0.469260 0.645908 0.519939
C91   C     C_R   0.442636 0.003500 0.961997 -0.015562
C92   C     C_R   0.442637 0.996489 0.461997 -0.015552
C93   C     C_R   0.436294 0.995281 0.037853 -0.002246
C94   C     C_R   0.936300 0.504731 0.537864 -0.002248
C95   C     C_R   0.942638 0.503494 0.961999 -0.015552
C96   C     C_R   0.942641 0.496520 0.462007 -0.015500
C97   C     C_R   0.936296 0.495277 0.037855 -0.002251
C98   C     C_R   0.213826 0.996963 0.530239 0.001883
C99   C     C_R   0.222540 0.020564 0.957011 0.009095
C100  C     C_R   0.222540 0.979435 0.457014 0.009084
C101  C     C_R   0.821558 0.471039 0.852232 0.525951
C102  C     C_R   0.213822 0.003036 0.030237 0.001819
C103  C     C_R   0.713832 0.496999 0.530248 0.001837
C104  C     C_R   0.722541 0.520563 0.957013 0.009103
C105  C     C_R   0.722544 0.479460 0.457027 0.009126
C106  C     C_R   0.713823 0.503034 0.030238 0.001827
C107  C     C_R   0.095491 0.005732 0.559288 -0.072645
C108  C     C_R   0.117502 0.044180 0.919264 -0.059039
C109  C     C_R   0.117498 0.955825 0.419271 -0.059007
C110  C     C_R   0.095483 0.994283 0.059285 -0.072756
C111  C     C_R   0.595502 0.505776 0.559297 -0.072528
C112  C     C_R   0.821559 0.528964 0.352235 0.526000
C113  C     C_R   0.617505 0.544181 0.919266 -0.059040
C114  C     C_R   0.617500 0.455844 0.419289 -0.059032
C115  C     C_R   0.595482 0.494282 0.059285 -0.072749
C116  C     C_R   0.992599 0.984350 0.520926 -0.124580
C117  C     C_R   0.003423 0.040869 0.950946 -0.104205
C118  C     C_R   0.003417 0.959153 0.450953 -0.104167
C119  C     C_R   0.992599 0.015665 0.020920 -0.124691
C120  C     C_R   0.492609 0.484393 0.520941 -0.124304
C121  C     C_R   0.503424 0.540873 0.950949 -0.104200
C122  C     C_R   0.503423 0.459164 0.450977 -0.104072
C123  C     C_R   0.819085 0.530744 0.145905 0.519983
C124  C     C_R   0.492598 0.515668 0.020922 -0.124697
C125  C     C_R   0.175703 0.769108 0.635650 0.565905
C126  C     C_R   0.130954 0.757376 0.855001 0.552900
C127  C     C_R   0.130955 0.242623 0.355001 0.552893
C128  C     C_R   0.175712 0.230891 0.135650 0.565857
C129  C     C_R   0.675696 0.269105 0.635651 0.565868
C130  C     C_R   0.630956 0.257377 0.855002 0.552896
C131  C     C_R   0.630955 0.742621 0.355002 0.552745
C132  C     C_R   0.675697 0.730896 0.135651 0.565875
C133  C     C_R   0.541923 0.769756 0.644310 0.548832
C134  C     C_3   0.172583 0.751530 0.452441 -0.136378
C135  C     C_R   0.501667 0.785473 0.863471 0.555834
C136  C     C_R   0.501671 0.214528 0.363473 0.555831
C137  C     C_R   0.541933 0.230249 0.144314 0.548810
C138  C     C_R   0.041927 0.269753 0.644312 0.548813
C139  C     C_R   0.001673 0.285471 0.863471 0.555836
C140  C     C_R   0.001659 0.714519 0.363472 0.555894
C141  C     C_R   0.041930 0.730249 0.144313 0.548805
C142  C     C_3   0.993296 0.792665 0.486298 -0.114300
C143  C     C_3   0.116224 0.808831 0.030838 -0.107994
C144  C     C_3   0.116244 0.191179 0.530844 -0.107972
Cr1   Cr    Cr6+3 0.488160 0.884660 0.750000 0.996387
Cr2   Cr    Cr6+3 0.333410 0.272740 0.250000 0.996356
Cr3   Cr    Cr6+3 0.833410 0.227260 0.750000 0.996371
Cr4   Cr    Cr6+3 0.833410 0.772740 0.250000 0.996371
Cr5   Cr    Cr6+3 0.488160 0.115340 0.250000 0.996382
Cr6   Cr    Cr6+3 0.988160 0.384660 0.750000 0.996366
Cr7   Cr    Cr6+3 0.988160 0.615340 0.250000 0.996332
Cr8   Cr    Cr6+3 0.173480 0.883120 0.750000 1.028377
Cr9   Cr    Cr6+3 0.173480 0.116880 0.250000 1.028288
Cr10  Cr    Cr6+3 0.673480 0.383120 0.750000 1.028279
Cr11  Cr    Cr6+3 0.673480 0.616880 0.250000 1.028138
Cr12  Cr    Cr6+3 0.333410 0.727260 0.750000 0.996333
H1    H     H_    0.175105 0.859992 0.514167 0.129526
H2    H     H_    0.923856 0.058079 0.921081 0.104209
H3    H     H_    0.923839 0.941967 0.421079 0.104121
H4    H     H_    0.904828 0.013715 0.046160 0.095136
H5    H     H_    0.404843 0.486349 0.546184 0.095082
H6    H     H_    0.423858 0.558085 0.921083 0.104213
H7    H     H_    0.423852 0.441947 0.421121 0.104135
H8    H     H_    0.404824 0.513719 0.046160 0.095123
H9    H     H_    0.917090 0.828801 0.473857 0.115412
H10   H     H_    0.146844 0.856929 0.058847 0.103929
H11   H     H_    0.146879 0.143085 0.558859 0.103905
H12   H     H_    0.289677 0.774648 0.967289 0.109805
H13   H     H_    0.916843 0.171312 0.973968 0.115411
H14   H     H_    0.416827 0.328691 0.473965 0.115391
H15   H     H_    0.646906 0.356917 0.058852 0.103924
H16   H     H_    0.647227 0.643161 0.558871 0.103923
H17   H     H_    0.416814 0.671324 0.973974 0.115417
H18   H     H_    0.988222 0.629803 0.491068 0.128906
H19   H     H_    0.870151 0.722807 0.030778 0.099421
H20   H     H_    0.870144 0.277181 0.530777 0.099428
H21   H     H_    0.988700 0.370290 0.990914 0.129092
H22   H     H_    0.488691 0.129707 0.490916 0.129086
H23   H     H_    0.289687 0.225376 0.467293 0.109820
H24   H     H_    0.370153 0.222838 0.030787 0.099422
H25   H     H_    0.370082 0.776943 0.530824 0.099451
H26   H     H_    0.488712 0.870298 0.990909 0.129104
H27   H     H_    0.241919 0.660669 0.531056 0.121140
H28   H     H_    0.013385 0.640272 0.938451 0.120605
H29   H     H_    0.013345 0.359728 0.438441 0.120584
H30   H     H_    0.242246 0.339170 0.030928 0.121178
H31   H     H_    0.742226 0.160825 0.530937 0.121181
H32   H     H_    0.513331 0.140285 0.938450 0.120601
H33   H     H_    0.512949 0.859644 0.438421 0.120547
H34   H     H_    0.174627 0.139894 0.014339 0.129734
H35   H     H_    0.742246 0.839161 0.030932 0.121184
H36   H     H_    0.243765 0.758242 0.410641 0.126056
H37   H     H_    0.206785 0.650806 0.044485 0.130707
H38   H     H_    0.206755 0.349215 0.544471 0.130713
H39   H     H_    0.243656 0.241399 0.910619 0.126016
H40   H     H_    0.743639 0.258607 0.410618 0.126019
H41   H     H_    0.706746 0.150784 0.044477 0.130723
H42   H     H_    0.706443 0.849368 0.544411 0.130787
H43   H     H_    0.743639 0.741385 0.910625 0.126020
H44   H     H_    0.750891 0.011825 0.442450 0.114341
H45   H     H_    0.674606 0.360113 0.514338 0.129697
H46   H     H_    0.735062 0.961385 0.073692 0.098461
H47   H     H_    0.735059 0.038614 0.573689 0.098458
H48   H     H_    0.750888 0.988159 0.942447 0.114364
H49   H     H_    0.250895 0.511851 0.442466 0.114312
H50   H     H_    0.235066 0.461383 0.073696 0.098450
H51   H     H_    0.235064 0.538587 0.573721 0.098369
H52   H     H_    0.250893 0.488154 0.942452 0.114358
H53   H     H_    0.569301 0.983142 0.372372 0.133971
H54   H     H_    0.540795 0.963961 0.133321 0.138203
H55   H     H_    0.540790 0.036040 0.633316 0.138203
H56   H     H_    0.789690 0.274620 0.967291 0.109823
H57   H     H_    0.569302 0.016836 0.872370 0.133979
H58   H     H_    0.069316 0.483193 0.372382 0.133945
H59   H     H_    0.040794 0.463959 0.133324 0.138188
H60   H     H_    0.040795 0.536037 0.633335 0.138120
H61   H     H_    0.069307 0.516827 0.872372 0.133968
H62   H     H_    0.123948 0.935183 0.364833 0.128247
H63   H     H_    0.081231 0.971204 0.112000 0.131637
H64   H     H_    0.081258 0.028821 0.611993 0.131597
H65   H     H_    0.123956 0.064822 0.864827 0.128254
H66   H     H_    0.623946 0.435192 0.364857 0.128229
H67   H     H_    0.789740 0.725606 0.467277 0.109888
H68   H     H_    0.581229 0.471203 0.112001 0.131633
H69   H     H_    0.581274 0.528862 0.612011 0.131583
H70   H     H_    0.623959 0.564823 0.864829 0.128249
H71   H     H_    0.857346 0.777743 0.610274 0.236386
H72   H     H_    0.847753 0.690605 0.593378 0.215540
H73   H     H_    0.875423 0.838227 0.912347 0.228072
H74   H     H_    0.908215 0.886520 0.986285 0.216222
H75   H     H_    0.908193 0.113491 0.486295 0.216203
H76   H     H_    0.875499 0.161754 0.412318 0.228084
H77   H     H_    0.847843 0.309719 0.093237 0.215527
H78   H     H_    0.674581 0.639891 0.014350 0.129753
H79   H     H_    0.857401 0.222643 0.110437 0.236421
H80   H     H_    0.357445 0.277371 0.610484 0.236435
H81   H     H_    0.347773 0.190302 0.593210 0.215521
H82   H     H_    0.375458 0.338249 0.912351 0.228041
H83   H     H_    0.408241 0.386530 0.986309 0.216208
H84   H     H_    0.407853 0.613614 0.486402 0.216038
H85   H     H_    0.376203 0.661539 0.411978 0.228052
H86   H     H_    0.347751 0.809697 0.093188 0.215524
H87   H     H_    0.357486 0.722637 0.110506 0.236428
H88   H     H_    0.904823 0.986317 0.546156 0.095096
N1    N     N_3   0.907267 0.731336 0.606495 -0.603244
N2    N     N_3   0.946395 0.858589 0.943677 -0.594734
N3    N     N_3   0.946427 0.141402 0.443689 -0.594749
N4    N     N_3   0.907346 0.269026 0.106491 -0.603355
N5    N     N_3   0.407333 0.230964 0.606494 -0.603353
N6    N     N_3   0.446435 0.358608 0.943693 -0.594681
N7    N     N_3   0.446705 0.641244 0.443779 -0.594523
N8    N     N_3   0.407342 0.769054 0.106493 -0.603383
O1    O     O_R   0.575450 0.828820 0.667950 -0.512381
O2    O     O_R   0.416860 0.942890 0.825320 -0.523743
O3    O     O_R   0.416860 0.057110 0.325320 -0.523728
O4    O     O_R   0.416860 0.057110 0.174680 -0.504080
O5    O     O_R   0.916860 0.442890 0.674680 -0.504069
O6    O     O_R   0.916860 0.442890 0.825320 -0.523744
O7    O     O_R   0.916860 0.557110 0.325320 -0.523730
O8    O     O_R   0.916860 0.557110 0.174680 -0.504074
O9    O     O_R   0.213790 0.953680 0.668330 -0.536785
O10   O     O_R   0.213790 0.953680 0.831670 -0.501681
O11   O     O_R   0.213790 0.046320 0.331670 -0.501673
O12   O     O_R   0.575450 0.828820 0.832050 -0.511183
O13   O     O_R   0.213790 0.046320 0.168330 -0.536813
O14   O     O_R   0.713790 0.453680 0.668330 -0.536815
O15   O     O_R   0.713790 0.453680 0.831670 -0.501671
O16   O     O_R   0.713790 0.546320 0.331670 -0.501638
O17   O     O_R   0.713790 0.546320 0.168330 -0.536811
O18   O     O_R   0.121360 0.817890 0.672660 -0.482869
O19   O     O_R   0.121360 0.817890 0.827340 -0.469916
O20   O     O_R   0.121360 0.182110 0.327340 -0.469938
O21   O     O_R   0.121360 0.182110 0.172660 -0.483053
O22   O     O_R   0.621360 0.317890 0.672660 -0.483096
O23   O     O_R   0.575450 0.171180 0.332050 -0.511200
O24   O     O_R   0.621360 0.317890 0.827340 -0.469932
O25   O     O_R   0.621360 0.682110 0.327340 -0.470139
O26   O     O_R   0.621360 0.682110 0.172660 -0.483128
O27   O     O_R   0.206850 0.711370 0.665820 -0.522493
O28   O     O_R   0.206850 0.711370 0.834180 -0.539480
O29   O     O_R   0.206850 0.288630 0.334180 -0.539468
O30   O     O_R   0.206850 0.288630 0.165820 -0.522352
O31   O     O_R   0.706850 0.211370 0.665820 -0.522353
O32   O     O_R   0.706850 0.211370 0.834180 -0.539464
O33   O     O_R   0.706850 0.788630 0.334180 -0.539388
O34   O     O_R   0.575450 0.171180 0.167950 -0.512382
O35   O     O_R   0.706850 0.788630 0.165820 -0.522341
O36   O     O_R   0.457710 0.733190 0.672630 -0.522615
O37   O     O_R   0.457710 0.733190 0.827370 -0.510133
O38   O     O_R   0.457710 0.266810 0.327370 -0.510139
O39   O     O_R   0.457710 0.266810 0.172630 -0.522613
O40   O     O_R   0.957710 0.233190 0.672630 -0.522607
O41   O     O_R   0.957710 0.233190 0.827370 -0.510143
O42   O     O_R   0.957710 0.766810 0.327370 -0.510165
O43   O     O_R   0.957710 0.766810 0.172630 -0.522600
O44   O     O_3   0.331690 0.831680 0.750000 -0.289663
O45   O     O_R   0.075450 0.328820 0.667950 -0.512383
O46   O     O_3   0.331690 0.168320 0.250000 -0.289641
O47   O     O_3   0.831690 0.331680 0.750000 -0.289629
O48   O     O_3   0.831690 0.668320 0.250000 -0.289597
O49   O     O_R   0.075450 0.328820 0.832050 -0.511201
O50   O     O_R   0.075450 0.671180 0.332050 -0.511256
O51   O     O_R   0.075450 0.671180 0.167950 -0.512410
O52   O     O_R   0.416860 0.942890 0.674680 -0.504088

loop_
_geom_bond_atom_site_label_1
_geom_bond_atom_site_label_2
_ccdc_geom_bond_type
Cr8   O9    S    
C6    C32   S    
C71   C104  A    
C73   C82   A    
C73   C93   A    
C74   C83   A    
C9    C143  S    
C61   C133  S    
Cr5   O4    S    
C65   C89   A    
Cr8   O44   S    
Cr11  O26   S    
C2    C55   S    
C117  C119  A    
C112  O7    A    
C86   C88   A    
C71   C95   A    
C69   C123  S    
Cr5   O46   S    
C54   C134  S    
C57   O2    A    
C129  O31   A    
C109  H62   S    
C40   H24   S    
C37   C56   S    
C50   C52   S    
C28   C144  S    
C41   C61   S    
C4    C12   S    
C112  O16   A    
C89   C92   A    
H74   N2    S    
Cr1   O52   S    
C21   C48   S    
C84   H48   S    
C100  C109  A    
C22   C130  S    
C7    C33   S    
C129  O22   A    
C88   H52   S    
C8    H1    S    
C109  C118  A    
C11   C20   S    
C111  H69   S    
C115  H68   S    
Cr12  O27   S    
C133  O1    A    
C82   H46   S    
C70   C103  A    
C3    H13   S    
C24   H39   S    
Cr11  O48   S    
C28   N3    S    
C2    C9    S    
C17   C43   S    
C7    C62   S    
C34   H18   S    
C18   C44   S    
C73   H54   S    
C46   C49   S    
Cr1   O12   S    
Cr7   O50   S    
C47   H30   S    
C94   C96   A    
C135  O37   A    
Cr2   O29   S    
C35   H40   S    
C22   C49   S    
Cr4   O48   S    
C34   C54   S    
C82   C84   A    
C13   H38   S    
C27   C36   S    
C64   C79   S    
Cr1   O2    S    
C36   C44   S    
C52   H42   S    
C37   C45   S    
C39   H22   S    
C140  O50   A    
C16   C25   S    
C141  O51   A    
C46   C60   S    
H75   N3    S    
C95   C97   A    
C132  O26   A    
C106  C115  A    
C8    C17   S    
C74   H55   S    
C52   C61   S    
C2    H37   S    
C11   H34   S    
C28   C37   S    
C80   C88   A    
C36   C55   S    
C76   C96   A    
C13   C45   S    
Cr3   O32   S    
C45   H29   S    
C49   H32   S    
C78   C94   A    
C43   H27   S    
C116  C118  A    
C128  O21   A    
C20   C47   S    
C3    C11   S    
C67   C112  S    
H84   N7    S    
Cr9   O21   S    
C76   C85   A    
C78   C87   A    
C116  H88   S    
C40   C60   S    
H85   N7    S    
C128  O30   A    
C57   C66   S    
C81   H44   S    
Cr7   O7    S    
C6    H16   S    
C64   C102  A    
C99   C108  A    
C4    H14   S    
C33   C42   S    
C6    C61   S    
C103  C111  A    
C75   C84   A    
C40   C49   S    
C59   C136  S    
Cr6   O49   S    
C3    C29   S    
C50   H33   S    
C2    C44   S    
C29   C38   S    
C1    C65   S    
C32   C41   S    
C77   C97   A    
C42   C62   S    
C75   C91   A    
C13   C56   S    
C135  O12   A    
C38   H21   S    
H82   N6    S    
C81   C83   A    
Cr2   O46   S    
C55   C143  S    
C144  H11   S    
C8    C134  S    
C53   H43   S    
Cr10  O15   S    
C80   H61   S    
C75   H57   S    
C51   C53   S    
C62   C135  S    
C33   N8    S    
C110  H63   S    
Cr2   O39   S    
C27   C143  S    
C72   H53   S    
C133  O36   A    
C23   C131  S    
C103  C105  A    
C10   C144  S    
C12   C35   S    
Cr10  O24   S    
C19   C28   S    
C21   C129  S    
C36   H19   S    
Cr3   O47   S    
C29   N4    S    
C136  O23   A    
Cr7   O51   S    
C130  O24   A    
H79   N4    S    
C51   H35   S    
Cr8   O10   S    
Cr4   O43   S    
C63   C68   S    
C5    C60   S    
C117  H2    S    
C108  C117  A    
C9    H12   S    
C34   C43   S    
Cr11  O16   S    
C110  C119  A    
C77   C86   A    
C19   C45   S    
C80   C95   A    
Cr5   O3    S    
Cr6   O47   S    
C30   N5    S    
C125  O18   A    
H86   N8    S    
C14   C22   S    
Cr11  O25   S    
C136  O38   A    
C18   C126  S    
C108  H65   S    
C68   O3    A    
C137  O34   A    
C30   C39   S    
Cr9   O11   S    
C107  C116  A    
C139  O49   A    
C104  C113  A    
C76   H58   S    
C9    C18   S    
C113  C121  A    
C25   C132  S    
C25   C33   S    
C69   C97   A    
Cr9   O46   S    
C55   C141  S    
Cr5   O34   S    
C41   H25   S    
C104  C106  A    
C14   C46   S    
C42   H26   S    
C32   N7    S    
C70   C94   A    
C65   C98   A    
Cr12  O28   S    
Cr6   O5    S    
C72   C92   A    
C132  O35   A    
Cr8   O19   S    
C31   C40   S    
C35   C59   S    
Cr10  O22   S    
C138  O40   A    
C38   C58   S    
C125  O27   A    
C79   O4    A    
C1    O52   A    
C72   C81   A    
Cr2   O30   S    
C123  O17   A    
C71   C101  S    
H83   N6    S    
Cr1   O1    S    
C118  H3    S    
C35   C48   S    
Cr3   O40   S    
C57   O10   A    
Cr6   O45   S    
C85   H49   S    
C126  O19   A    
C48   H31   S    
C83   H47   S    
C23   C50   S    
C98   C107  A    
C43   C134  S    
Cr9   O13   S    
C91   C93   A    
Cr3   O31   S    
C16   H78   S    
C10   C19   S    
C39   C59   S    
C101  O6    A    
C15   C52   S    
C114  H66   S    
C5    C14   S    
C7    C16   S    
C54   C142  S    
C98   C100  A    
Cr4   O33   S    
C102  C110  A    
Cr9   O20   S    
C10   H23   S    
C41   C50   S    
C77   H59   S    
C131  O33   A    
C115  C124  A    
C67   C105  A    
Cr7   O48   S    
C46   H41   S    
Cr1   O44   S    
C69   C106  A    
C123  O8    A    
Cr4   O42   S    
C21   C30   S    
C14   H56   S    
C23   C32   S    
C37   H20   S    
C113  H70   S    
C121  H6    S    
C15   H67   S    
C131  O25   A    
C107  H64   S    
C56   C144  S    
C3    C58   S    
C99   C102  A    
C24   C58   S    
C8    C142  S    
C90   O5    A    
C39   C48   S    
C124  H8    S    
C58   C139  S    
H80   N5    S    
C86   H50   S    
C143  H10   S    
C17   C26   S    
Cr5   O23   S    
C74   C89   A    
C90   O14   A    
C64   C93   A    
C20   C128  S    
C140  O42   A    
C141  O43   A    
H71   N1    S    
C11   C24   S    
C134  H36   S    
C137  O39   A    
C16   C53   S    
C121  C124  A    
C130  O32   A    
C6    C15   S    
C26   C34   S    
C54   C140  S    
Cr8   O18   S    
C119  H4    S    
Cr4   O35   S    
C63   C92   A    
C44   H28   S    
C26   N1    S    
C60   C137  S    
C15   C23   S    
C101  O15   A    
H81   N5    S    
C70   C90   S    
Cr11  O17   S    
C120  C122  A    
Cr7   O8    S    
C20   C29   S    
C85   C87   A    
C22   C31   S    
Cr12  O44   S    
C105  C114  A    
C27   N2    S    
C78   H60   S    
C139  O41   A    
H72   N1    S    
Cr3   O41   S    
C126  O28   A    
C12   C21   S    
C122  H7    S    
C31   N6    S    
C111  C120  A    
C66   C99   A    
C25   C51   S    
C63   C100  A    
C56   C138  S    
C53   C62   S    
C5    H15   S    
C12   H45   S    
C138  O45   A    
C87   H51   S    
C38   C47   S    
C120  H5    S    
C1    O9    A    
H73   N2    S    
Cr10  O47   S    
C127  O20   A    
C67   C96   A    
Cr12  O36   S    
H87   N8    S    
C24   C47   S    
C18   C27   S    
Cr10  O14   S    
C10   C13   S    
H77   N4    S    
C66   C91   A    
C42   C51   S    
H76   N3    S    
C127  O29   A    
Cr6   O6    S    
C142  H9    S    
Cr2   O38   S    
C17   C125  S    
C7    H17   S    
C4    C59   S    
C19   C127  S    
C79   O13   A    
Cr12  O37   S    
C114  C122  A    
C26   C142  S    
C68   O11   A    
C4    C30   S    
C5    C31   S    
