data_mof_unit_67553.cif
_audit_creation_date              2012-10-26T18:48:17-0400
_audit_creation_method            fapswitch 2.2
_symmetry_space_group_name_H-M    P1
_symmetry_Int_Tables_number       1
_space_group_crystal_system       triclinic
_cell_length_a                    10.727215
_cell_length_b                    8.68086
_cell_length_c                    7.54819
_cell_angle_alpha                 101.877349
_cell_angle_beta                  95.271066
_cell_angle_gamma                 92.329203
_cell_volume                      683.660749156

loop_
_atom_site_label
_atom_site_type_symbol
_atom_type_description
_atom_site_fract_x
_atom_site_fract_y
_atom_site_fract_z
_atom_type_partial_charge
C1    C     C_R   0.493565 0.200580 0.454852 0.538234
C2    C     C_3   0.123057 0.495803 0.498819 -0.023540
C3    C     C_3   0.970039 0.615216 0.632193 -0.005548
C4    C     C_3   0.027652 0.381998 0.361042 -0.043873
C5    C     C_2   0.484059 0.032979 0.431467 -0.163994
C6    C     C_2   0.523618 0.966365 0.567493 -0.138710
C7    C     C_3   0.887505 0.090626 0.425455 -0.012873
C8    C     C_3   0.790811 0.095101 0.264921 -0.365446
C9    C     C_3   0.191118 0.847542 0.550567 -0.009600
C10   C     C_3   0.198356 0.025309 0.576066 -0.363470
C11   C     C_2   0.101853 0.441593 0.835551 0.292517
C12   C     C_R   0.510940 0.799157 0.545012 0.531148
C13   C     C_2   0.897920 0.559111 0.159551 0.319630
C14   C     C_2   0.944417 0.750944 0.780401 0.262737
C15   C     C_2   0.058458 0.261131 0.200124 0.224848
C16   C     C_2   0.451550 0.295590 0.955841 0.491058
C17   C     C_2   0.559083 0.701629 0.053819 0.515572
C18   C     C_R   0.259878 0.495909 0.500033 0.552106
C19   C     C_R   0.739622 0.501744 0.498952 0.609260
C20   C     C_3   0.047221 0.473459 0.658033 -0.043520
C21   C     C_3   0.949879 0.524067 0.337140 -0.031631
C22   C     C_3   0.951628 0.360126 0.520582 0.190979
C23   C     C_3   0.044788 0.636190 0.473645 0.192943
C24   C     C_3   0.875324 0.502321 0.496268 0.010030
Cu1   Cu    Cu3+1 0.514140 0.517380 0.684380 1.066035
Cu2   Cu    Cu3+1 0.485860 0.482620 0.315620 1.094821
H1    H     H_    0.442910 0.964153 0.301150 0.134841
H2    H     H_    0.120923 0.075313 0.652919 0.171232
H3    H     H_    0.288686 0.073653 0.652236 0.158645
H4    H     H_    0.194175 0.058937 0.442151 0.191907
H5    H     H_    0.097501 0.322480 0.857954 0.160245
H6    H     H_    0.913740 0.676018 0.133059 0.176235
H7    H     H_    0.020669 0.809444 0.878528 0.130353
H8    H     H_    0.986570 0.214868 0.089307 0.132524
H9    H     H_    0.533547 0.234036 0.916692 0.081949
H10   H     H_    0.486601 0.784412 0.048513 0.072652
H11   H     H_    0.565514 0.034613 0.697211 0.139122
H12   H     H_    0.860884 0.987370 0.482798 0.211050
H13   H     H_    0.980617 0.067249 0.378652 0.161023
H14   H     H_    0.792827 0.211399 0.226488 0.169546
H15   H     H_    0.810019 0.004545 0.145247 0.175195
H16   H     H_    0.696033 0.068410 0.299480 0.170717
H17   H     H_    0.271353 0.802743 0.478537 0.171033
H18   H     H_    0.197630 0.817974 0.687957 0.142742
N1    N     N_2   0.464560 0.456420 0.038510 -0.156992
N2    N     N_2   0.535440 0.543580 0.961490 -0.171526
O1    O     O_R   0.509190 0.286130 0.619780 -0.543787
O2    O     O_3   0.080679 0.784803 0.440287 -0.583147
O3    O     O_2   0.155438 0.547943 0.952350 -0.500186
O4    O     O_2   0.835865 0.457891 0.045886 -0.497275
O5    O     O_2   0.839144 0.797859 0.790509 -0.499274
O6    O     O_2   0.163277 0.212741 0.192780 -0.474801
O7    O     O_2   0.351901 0.221966 0.951557 -0.507485
O8    O     O_2   0.662580 0.746945 0.132069 -0.528905
O9    O     O_R   0.490810 0.713870 0.380220 -0.529155
O10   O     O_R   0.485310 0.256770 0.308360 -0.493788
O11   O     O_R   0.514690 0.743230 0.691640 -0.525033
O12   O     O_R   0.328790 0.514640 0.655680 -0.519838
O13   O     O_R   0.671210 0.485360 0.344320 -0.499680
O14   O     O_R   0.304910 0.485280 0.344260 -0.427335
O15   O     O_R   0.695090 0.514720 0.655740 -0.425294
O16   O     O_3   0.891289 0.226860 0.565901 -0.557219

loop_
_geom_bond_atom_site_label_1
_geom_bond_atom_site_label_2
_ccdc_geom_bond_type
C16   N1    S    
C2    C4    S    
C7    O16   S    
C11   O3    D    
C17   H10   S    
C22   O16   S    
C4    C22   S    
Cu2   O13   S    
Cu1   O1    S    
C13   H6    S    
C3    C23   S    
C14   O5    D    
Cu2   O9    S    
C14   H7    S    
C19   C24   S    
C6    H11   S    
C13   C21   S    
C7    C8    S    
Cu1   O15   S    
C15   O6    D    
C17   N2    S    
C4    C21   S    
C10   H3    S    
C3    C24   S    
C3    C14   S    
Cu1   O11   S    
C19   O15   A    
C1    C5    S    
C12   O11   A    
Cu1   N2    S    
C18   O14   A    
C7    H12   S    
C8    H16   S    
C21   C23   S    
C16   H9    S    
C6    C12   S    
C5    C6    D    
C22   C24   S    
C11   C20   S    
C9    H17   S    
C12   O9    A    
C2    C18   S    
Cu1   O12   S    
C11   H5    S    
C13   O4    D    
C15   H8    S    
N1    N2    D    
C3    C20   S    
C8    H15   S    
C9    O2    S    
Cu2   O14   S    
C9    C10   S    
C21   C24   S    
C10   H2    S    
C2    C23   S    
C10   H4    S    
C16   O7    D    
C4    C15   S    
C9    H18   S    
C7    H13   S    
C23   O2    S    
C8    H14   S    
Cu2   N1    S    
C19   O13   A    
Cu1   Cu2   S    
C5    H1    S    
C2    C20   S    
C17   O8    D    
C1    O10   A    
C1    O1    A    
C20   C22   S    
C18   O12   A    
Cu2   O10   S    
