data_mof_unit_42092.cif
_audit_creation_date              2012-10-26T19:50:36-0400
_audit_creation_method            fapswitch 2.2
_symmetry_space_group_name_H-M    P1
_symmetry_Int_Tables_number       1
_space_group_crystal_system       triclinic
_cell_length_a                    13.936851
_cell_length_b                    15.119803
_cell_length_c                    15.726833
_cell_angle_alpha                 91.102203
_cell_angle_beta                  70.421674
_cell_angle_gamma                 89.120078
_cell_volume                      3120.98154759

loop_
_atom_site_label
_atom_site_type_symbol
_atom_type_description
_atom_site_fract_x
_atom_site_fract_y
_atom_site_fract_z
_atom_type_partial_charge
C1    C     C_R   0.500642 0.670651 0.497642 0.559059
C2    C     C_R   0.496355 0.189182 0.577925 0.196155
C3    C     C_R   0.504701 0.768404 0.489471 -0.051739
C4    C     C_R   0.503524 0.235133 0.499350 -0.019195
C5    C     C_R   0.589148 0.814152 0.498121 0.233043
C6    C     C_R   0.516979 0.190749 0.417281 0.196487
C7    C     C_R   0.590931 0.906289 0.495974 0.266658
C8    C     C_R   0.529130 0.098241 0.412104 0.242228
C9    C     C_R   0.507949 0.954211 0.486017 -0.001414
C10   C     C_R   0.507700 0.051204 0.492641 -0.009864
C11   C     C_R   0.918795 0.454758 0.434557 -0.156473
C12   C     C_R   0.500148 0.330718 0.501664 0.633570
C13   C     C_R   0.094720 0.572848 0.529713 -0.148920
C14   C     C_R   0.816845 0.447375 0.439615 0.112433
C15   C     C_R   0.189572 0.567250 0.542399 0.131803
C16   C     C_R   0.438380 0.497682 0.672732 0.568282
C17   C     C_R   0.561539 0.497181 0.327350 0.564309
C18   C     C_R   0.765632 0.552173 0.560878 0.080719
C19   C     C_R   0.226041 0.430853 0.460840 0.062875
C20   C     C_R   0.865219 0.551371 0.565524 0.232481
C21   C     C_R   0.123332 0.425848 0.464928 0.228953
C22   C     C_R   0.945613 0.502970 0.499339 0.007479
C23   C     C_R   0.368331 0.451376 0.099661 -0.093050
C24   C     C_R   0.055761 0.500321 0.496933 0.006956
C25   C     C_R   0.402224 0.485837 0.771711 0.020239
C26   C     C_R   0.595695 0.477678 0.229257 0.019773
C27   C     C_R   0.262749 0.468106 0.912310 -0.130229
C28   C     C_R   0.715650 0.403710 0.097185 -0.130813
C29   C     C_R   0.297842 0.478372 0.819116 -0.201948
C30   C     C_R   0.690079 0.435263 0.186015 -0.192509
C31   C     C_R   0.472065 0.478788 0.819125 0.257782
C32   C     C_R   0.527766 0.490566 0.181154 0.259221
C33   C     C_R   0.437710 0.455300 0.910998 -0.007539
C34   C     C_R   0.604673 0.398176 0.912886 -0.081370
C35   C     C_R   0.547443 0.448336 0.095612 -0.012539
C36   C     C_R   0.331672 0.458885 0.959647 0.028974
C37   C     C_R   0.645404 0.410374 0.050945 0.023530
C38   C     C_R   0.506679 0.435484 0.957181 -0.030605
C39   C     C_R   0.473758 0.446851 0.051609 -0.038927
C40   C     C_3   0.161370 0.506726 0.179657 -0.131175
C41   C     C_3   0.827915 0.373580 0.848953 -0.147044
C42   C     C_3   0.797012 0.374557 0.380321 -0.202603
C43   C     C_3   0.805356 0.281866 0.417579 -0.293055
C44   C     C_3   0.895629 0.227200 0.355626 -0.458087
C45   C     C_R   0.296366 0.455505 0.054608 0.267229
C46   C     C_3   0.205989 0.634194 0.609334 -0.205425
C47   C     C_3   0.124793 0.629368 0.704472 -0.333787
C48   C     C_3   0.054827 0.711546 0.729351 -0.443126
C49   C     C_3   0.870390 0.542158 0.706900 -0.162751
C50   C     C_3   0.054482 0.293509 0.512089 -0.150246
C51   C     C_3   0.467731 0.628729 0.169613 -0.152941
C52   C     C_3   0.577555 0.594524 0.800639 -0.132292
C53   C     C_3   0.341776 0.960009 0.447498 -0.217641
C54   C     C_3   0.265763 0.008190 0.529808 -0.314300
C55   C     C_3   0.179746 0.052893 0.505528 -0.465060
C56   C     C_R   0.672064 0.381129 0.960447 0.265422
C57   C     C_3   0.473668 0.046501 0.664677 -0.219472
C58   C     C_3   0.368700 0.004494 0.699372 -0.315279
C59   C     C_3   0.350318 0.962811 0.790953 -0.457726
C60   C     C_3   0.375570 0.745516 0.364459 -0.104668
C61   C     C_3   0.578855 0.246988 0.668228 -0.119524
C62   C     C_3   0.748382 0.753447 0.434655 -0.071962
C63   C     C_3   0.434335 0.228974 0.320345 -0.101958
C64   C     C_3   0.733737 0.990480 0.437592 -0.120809
C65   C     C_3   0.647157 0.081091 0.268128 -0.097672
C66   C     C_R   0.426937 0.909729 0.469027 -0.008843
C67   C     C_R   0.491872 0.096066 0.576857 -0.020942
C68   C     C_R   0.426918 0.816396 0.469578 0.196684
Cu1   Cu    Cu3+1 0.403570 0.500010 0.500000 0.958751
Cu2   Cu    Cu3+1 0.596430 0.499990 0.500000 0.941888
H1    H     H_    0.976750 0.420215 0.380022 0.169700
H2    H     H_    0.625930 0.375428 0.843297 0.151803
H3    H     H_    0.202008 0.570627 0.170284 0.113118
H4    H     H_    0.171310 0.470403 0.236986 0.139526
H5    H     H_    0.078900 0.522839 0.197804 0.131679
H6    H     H_    0.837345 0.443819 0.866749 0.098936
H7    H     H_    0.803492 0.368456 0.788744 0.108180
H8    H     H_    0.903818 0.340250 0.830854 0.140148
H9    H     H_    0.887100 0.216589 0.288455 0.147830
H10   H     H_    0.968104 0.261230 0.347167 0.195397
H11   H     H_    0.898680 0.161708 0.385508 0.125311
H12   H     H_    0.049520 0.632867 0.550940 0.173834
H13   H     H_    0.812047 0.286617 0.486056 0.159747
H14   H     H_    0.734879 0.244897 0.424495 0.150453
H15   H     H_    0.722749 0.380090 0.372077 0.204621
H16   H     H_    0.851773 0.380502 0.310580 0.102450
H17   H     H_    0.100102 0.771502 0.728814 0.146456
H18   H     H_    0.012627 0.719799 0.681401 0.191226
H19   H     H_    0.998760 0.704956 0.798217 0.141013
H20   H     H_    0.078287 0.569279 0.710812 0.165502
H21   H     H_    0.163351 0.624152 0.755775 0.142367
H22   H     H_    0.278402 0.623841 0.620237 0.203192
H23   H     H_    0.706688 0.592806 0.608429 0.174078
H24   H     H_    0.207045 0.701478 0.582054 0.182496
H25   H     H_    0.931073 0.489546 0.688360 0.108006
H26   H     H_    0.794013 0.511873 0.729617 0.138209
H27   H     H_    0.877538 0.581212 0.764786 0.134193
H28   H     H_    0.987714 0.325100 0.565103 0.117387
H29   H     H_    0.115296 0.276225 0.540599 0.113826
H30   H     H_    0.028695 0.230861 0.489871 0.137668
H31   H     H_    0.486809 0.619189 0.095435 0.119236
H32   H     H_    0.531022 0.662668 0.184131 0.100369
H33   H     H_    0.399145 0.672752 0.192662 0.115943
H34   H     H_    0.278028 0.376455 0.430496 0.134994
H35   H     H_    0.556506 0.606196 0.874819 0.107562
H36   H     H_    0.528877 0.636557 0.773399 0.122133
H37   H     H_    0.657010 0.616015 0.769602 0.146871
H38   H     H_    0.210983 0.102215 0.452353 0.148604
H39   H     H_    0.136777 0.002950 0.481071 0.155224
H40   H     H_    0.126414 0.087666 0.566219 0.140494
H41   H     H_    0.304374 0.060335 0.555657 0.164093
H42   H     H_    0.232372 0.960131 0.583811 0.170364
H43   H     H_    0.374449 0.007687 0.393432 0.173056
H44   H     H_    0.297520 0.914808 0.419357 0.179178
H45   H     H_    0.744087 0.425673 0.220972 0.119716
H46   H     H_    0.409266 0.910733 0.785781 0.155785
H47   H     H_    0.352227 0.013925 0.842017 0.159791
H48   H     H_    0.274342 0.932047 0.813666 0.142665
H49   H     H_    0.308367 0.055796 0.706448 0.173698
H50   H     H_    0.363140 0.951613 0.651743 0.164118
H51   H     H_    0.533781 0.995115 0.656094 0.186922
H52   H     H_    0.479290 0.091391 0.719260 0.185979
H53   H     H_    0.310988 0.710306 0.354052 0.151269
H54   H     H_    0.442172 0.698852 0.345420 0.154804
H55   H     H_    0.392998 0.802912 0.318963 0.084947
H56   H     H_    0.242645 0.483076 0.784567 0.131633
H57   H     H_    0.620133 0.182734 0.665026 0.100466
H58   H     H_    0.566735 0.278047 0.735588 0.147101
H59   H     H_    0.627480 0.291516 0.617058 0.151603
H60   H     H_    0.722519 0.721047 0.382132 0.100698
H61   H     H_    0.804701 0.707940 0.447782 0.136474
H62   H     H_    0.788379 0.815176 0.408496 0.117558
H63   H     H_    0.433654 0.163032 0.288201 0.148853
H64   H     H_    0.432017 0.279875 0.271126 0.140446
H65   H     H_    0.364447 0.238559 0.380667 0.105279
H66   H     H_    0.730906 0.962331 0.372423 0.103089
H67   H     H_    0.181262 0.467824 0.947102 0.168778
H68   H     H_    0.813557 0.983041 0.436185 0.125584
H69   H     H_    0.715288 0.062415 0.442991 0.119434
H70   H     H_    0.688488 0.023519 0.226351 0.111827
H71   H     H_    0.699307 0.111205 0.300455 0.098928
H72   H     H_    0.630761 0.128816 0.221782 0.176715
H73   H     H_    0.790417 0.373498 0.065106 0.166966
H74   H     H_    0.341766 0.445440 0.172122 0.164564
N1    N     N_R   0.741310 0.499980 0.500000 -0.260584
N2    N     N_R   0.258690 0.500020 0.500000 -0.250022
O1    O     O_R   0.418570 0.628550 0.499990 -0.487381
O2    O     O_3   0.759844 0.329709 0.922101 -0.572496
O3    O     O_3   0.881475 0.599231 0.634763 -0.600136
O4    O     O_3   0.091612 0.347956 0.436803 -0.608265
O5    O     O_3   0.445309 0.548559 0.216271 -0.577438
O6    O     O_3   0.571821 0.504121 0.778664 -0.585658
O7    O     O_3   0.346706 0.772637 0.455991 -0.579586
O8    O     O_3   0.482888 0.236211 0.657726 -0.568704
O9    O     O_3   0.667372 0.769739 0.516469 -0.518636
O10   O     O_3   0.524281 0.239211 0.341595 -0.579918
O11   O     O_3   0.669822 0.948243 0.514719 -0.552348
O12   O     O_R   0.581430 0.371450 0.500010 -0.526560
O13   O     O_3   0.555030 0.051271 0.330285 -0.591284
O14   O     O_R   0.581440 0.628540 0.499990 -0.472028
O15   O     O_R   0.418560 0.371460 0.500010 -0.501346
O16   O     O_R   0.372890 0.500010 0.629830 -0.535373
O17   O     O_R   0.627110 0.499990 0.370170 -0.543975
O18   O     O_R   0.535760 0.500000 0.629840 -0.451902
O19   O     O_R   0.464240 0.500000 0.370160 -0.447039
O20   O     O_3   0.191796 0.452719 0.100381 -0.578945

loop_
_geom_bond_atom_site_label_1
_geom_bond_atom_site_label_2
_ccdc_geom_bond_type
C25   C31   A    
C66   C68   A    
C64   H66   S    
C34   C56   A    
C23   C45   A    
C27   C29   A    
C43   H13   S    
C62   H60   S    
C2    C4    A    
C3    C68   A    
C65   O13   S    
C18   N1    A    
C61   O8    S    
C64   H68   S    
C53   C54   S    
C16   O18   A    
C51   H32   S    
C26   C32   A    
C32   O5    S    
C14   N1    A    
C50   H29   S    
C27   H67   S    
C17   C26   S    
C63   H63   S    
C60   H55   S    
C19   C21   A    
Cu1   O15   S    
C63   O10   S    
C41   H7    S    
C38   C39   A    
C11   C14   A    
C11   H1    S    
C46   H22   S    
C51   H33   S    
C33   C36   A    
C62   O9    S    
C46   C47   S    
C60   H54   S    
C9    C66   A    
C17   O17   A    
C57   H52   S    
C60   O7    S    
C37   C56   A    
C52   H37   S    
C59   H46   S    
C64   O11   S    
C48   H18   S    
C42   H16   S    
C4    C12   S    
C45   O20   S    
C40   O20   S    
C61   H59   S    
C14   C42   S    
C12   O15   A    
C52   H36   S    
C59   H47   S    
C29   H56   S    
C55   H39   S    
C43   H14   S    
C65   H70   S    
C57   C67   S    
C58   H50   S    
C53   H43   S    
C30   H45   S    
C1    O14   A    
C25   C29   A    
C50   H28   S    
C19   N2    A    
Cu2   O12   S    
C32   C35   A    
C62   H62   S    
C44   H10   S    
Cu1   O16   S    
C4    C6    A    
C2    C67   A    
C41   H8    S    
C5    C7    A    
C6    C8    A    
C16   O16   A    
C58   C59   S    
C5    O9    S    
C57   H51   S    
C13   H12   S    
C13   C24   A    
C1    C3    S    
C63   H65   S    
C56   O2    S    
C60   H53   S    
C35   C39   A    
C43   C44   S    
C63   H64   S    
C51   O5    S    
C44   H11   S    
C65   H71   S    
C19   H34   S    
C50   O4    S    
C47   C48   S    
C46   H24   S    
C52   O6    S    
C31   C33   A    
C48   H17   S    
C54   H42   S    
C36   C45   A    
C61   H57   S    
C42   H15   S    
C21   O4    S    
C49   H25   S    
C53   C66   S    
Cu2   N1    S    
C20   C22   A    
C52   H35   S    
C68   O7    S    
C59   H48   S    
C48   H19   S    
C13   C15   A    
C55   H40   S    
Cu1   O1    S    
C47   H20   S    
C22   C24   S    
C23   H74   S    
C1    O1    A    
C20   O3    S    
C34   H2    S    
C53   H44   S    
C9    C10   S    
C16   C25   S    
C7    C9    A    
C54   C55   S    
C65   H72   S    
Cu2   O17   S    
C35   C37   A    
C34   C38   A    
C47   H21   S    
C62   H61   S    
C44   H9    S    
C3    C5    A    
Cu2   O18   S    
C15   N2    A    
C26   C30   A    
Cu1   N2    S    
C7    O11   S    
C27   C36   A    
C51   H31   S    
C11   C22   A    
C50   H30   S    
C33   C38   A    
C40   H5    S    
C49   O3    S    
C55   H38   S    
C28   C30   A    
C10   C67   A    
C41   H6    S    
C31   O6    S    
C57   C58   S    
C2    O8    S    
C41   O2    S    
C28   C37   A    
C28   H73   S    
C23   C39   A    
C58   H49   S    
Cu2   O14   S    
C40   H4    S    
C54   H41   S    
C61   H58   S    
C18   C20   A    
C49   H26   S    
Cu1   Cu2   S    
Cu1   O19   S    
C49   H27   S    
C8    C10   A    
C42   C43   S    
C21   C24   A    
C18   H23   S    
C17   O19   A    
C15   C46   S    
C12   O12   A    
C40   H3    S    
C8    O13   S    
C6    O10   S    
C64   H69   S    
