data_mof_unit_67742.cif
_audit_creation_date              2012-12-10T19:48:36-0500
_audit_creation_method            fapswitch 2.2
_symmetry_space_group_name_H-M    P1
_symmetry_Int_Tables_number       1
_space_group_crystal_system       triclinic
_cell_length_a                    11.185387
_cell_length_b                    10.636349
_cell_length_c                    9.632124
_cell_angle_alpha                 92.331766
_cell_angle_beta                  92.302932
_cell_angle_gamma                 87.713682
_cell_volume                      1143.23600021

loop_
_atom_site_label
_atom_site_type_symbol
_atom_type_description
_atom_site_fract_x
_atom_site_fract_y
_atom_site_fract_z
_atom_type_partial_charge
C1    C     C_R   0.504973 0.259998 0.498023 0.806939
C2    C     C_R   0.494039 0.739857 0.502370 0.798670
C3    C     C_R   0.873411 0.501261 0.501341 -0.149846
C4    C     C_R   0.129334 0.493531 0.494564 -0.185741
C5    C     C_R   0.944848 0.419415 0.584330 -0.062942
C6    C     C_R   0.058222 0.557856 0.395417 -0.115633
C7    C     C_3   0.539593 0.046865 0.625556 -0.203458
C8    C     C_3   0.457371 0.952806 0.378182 -0.194941
C9    C     C_3   0.607346 0.948239 0.532262 -0.174249
C10   C     C_3   0.389300 0.051296 0.471686 -0.149264
C11   C     C_3   0.491475 0.877199 0.507269 -0.041239
C12   C     C_3   0.505871 0.122566 0.495478 -0.035519
C13   C     C_3   0.423936 0.973622 0.600131 0.048343
C14   C     C_3   0.573392 0.025593 0.403410 0.058091
C15   C     C_3   0.463171 0.607793 0.052491 -0.172085
C16   C     C_3   0.535851 0.392008 0.947472 -0.177372
C17   C     C_3   0.393992 0.524010 0.943605 -0.157390
C18   C     C_3   0.604719 0.474332 0.056854 -0.076321
C19   C     C_3   0.568909 0.582288 0.958284 0.572246
C20   C     C_3   0.430737 0.416634 0.042904 0.515467
C21   C     C_R   0.263155 0.497248 0.497627 0.849471
C22   C     C_R   0.737687 0.502765 0.501688 0.854730
C23   C     C_R   0.132997 0.612456 0.028709 -0.171549
C24   C     C_R   0.829073 0.218389 0.851778 -0.161337
C25   C     C_R   0.117493 0.634617 0.170033 -0.085553
C26   C     C_R   0.864839 0.255129 0.723945 -0.100464
C27   C     C_R   0.093526 0.533922 0.251887 0.074162
C28   C     C_R   0.894839 0.379470 0.709442 0.003766
C29   C     C_R   0.093395 0.408940 0.192720 0.384545
C30   C     C_R   0.883291 0.469631 0.818127 0.408265
C31   C     C_R   0.112167 0.388314 0.051368 0.464609
C32   C     C_R   0.853432 0.431230 0.947258 0.329121
C33   C     C_R   0.128704 0.490404 0.969763 -0.219861
C34   C     C_R   0.828154 0.304491 0.965655 -0.235309
C35   C     C_R   0.933894 0.578227 0.414233 0.449382
C36   C     C_R   0.071312 0.414380 0.580392 0.397739
Cu1   Cu    Cu3+1 0.500030 0.499990 0.643150 1.023286
Cu2   Cu    Cu3+1 0.499970 0.500010 0.356850 1.028215
H1    H     H_    0.138079 0.475945 0.859407 0.212273
H2    H     H_    0.809245 0.272245 0.067243 0.186999
H3    H     H_    0.316028 0.562909 0.885332 0.161925
H4    H     H_    0.676966 0.428082 0.117882 0.192305
H5    H     H_    0.432263 0.700259 0.098568 0.144235
H6    H     H_    0.566300 0.299510 0.901088 0.159702
H7    H     H_    0.147185 0.689404 0.963153 0.172258
H8    H     H_    0.807551 0.121962 0.861751 0.143962
H9    H     H_    0.118167 0.730006 0.213919 0.149435
H10   H     H_    0.872494 0.186783 0.638231 0.152687
H11   H     H_    0.696194 0.903389 0.559187 0.188534
H12   H     H_    0.299788 0.095193 0.446043 0.208916
H13   H     H_    0.576728 0.087771 0.725248 0.136741
H14   H     H_    0.420373 0.911412 0.278718 0.134009
N1    N     N_3   0.500090 0.499970 0.858290 -0.213993
N2    N     N_3   0.499910 0.500030 0.141710 -0.215269
O1    O     O_R   0.500060 0.316850 0.620870 -0.570456
O2    O     O_R   0.499940 0.683150 0.379130 -0.571277
O3    O     O_R   0.500000 0.316860 0.379090 -0.543161
O4    O     O_R   0.500000 0.683140 0.620910 -0.549691
O5    O     O_R   0.319670 0.500010 0.620890 -0.565487
O6    O     O_R   0.680330 0.499990 0.379110 -0.541867
O7    O     O_R   0.319620 0.500010 0.379110 -0.572614
O8    O     O_R   0.680380 0.499990 0.620890 -0.559476
Cl1   Cl    Cl    0.649723 0.709185 0.900881 -0.539413
Cl2   Cl    Cl    0.367950 0.279745 0.104240 -0.590102
Cl3   Cl    Cl    0.057211 0.278056 0.287884 -0.636801
Cl4   Cl    Cl    0.914882 0.630130 0.794130 -0.602297
Cl5   Cl    Cl    0.107710 0.235540 0.973886 -0.514876
Cl6   Cl    Cl    0.857366 0.543321 0.084808 -0.556173
Cl7   Cl    Cl    0.861182 0.716075 0.351653 -0.570459
Cl8   Cl    Cl    0.155101 0.289732 0.658357 -0.558122
C37   C     C_R   0.336998 0.948340 0.709410 0.131554
C38   C     C_R   0.367475 0.970857 0.850865 -0.054412
C39   C     C_R   0.282735 0.958055 0.951284 -0.067308
C40   C     C_R   0.166855 0.924132 0.911124 -0.067062
C41   C     C_R   0.136346 0.898886 0.770877 -0.076723
C42   C     C_R   0.221455 0.909985 0.670144 -0.142633
H15   H     H_    0.456025 0.999638 0.883762 0.118267
H16   H     H_    0.306208 0.976421 0.060074 0.148984
H17   H     H_    0.101463 0.915535 0.989358 0.138614
H18   H     H_    0.046624 0.871632 0.740195 0.184671
H19   H     H_    0.196464 0.891982 0.561546 0.125856
C43   C     C_R   0.662867 0.038656 0.293625 0.112996
C44   C     C_R   0.784856 0.047521 0.331921 -0.126301
C45   C     C_R   0.871717 0.025004 0.232757 -0.007350
C46   C     C_R   0.837152 0.995449 0.094936 -0.034481
C47   C     C_R   0.715814 0.993159 0.054983 -0.110696
C48   C     C_R   0.628967 0.015606 0.153491 -0.098564
H20   H     H_    0.813033 0.063562 0.439626 0.121856
H21   H     H_    0.965753 0.025986 0.263587 0.183730
H22   H     H_    0.904055 0.975473 0.018560 0.151624
H23   H     H_    0.688796 0.971895 0.947820 0.161854
H24   H     H_    0.535740 0.009172 0.121144 0.136105

loop_
_geom_bond_atom_site_label_1
_geom_bond_atom_site_label_2
_ccdc_geom_bond_type
C4    C36   A    
C23   H7    S    
C27   C29   A    
C39   C40   A    
C9    C14   S    
Cu1   O8    S    
C46   C47   A    
C31   Cl5   S    
C33   H1    S    
C34   H2    S    
C24   C26   A    
C21   O5    A    
C47   H23   S    
C18   H4    S    
C22   O6    A    
C37   C42   A    
C43   C48   A    
Cu2   O3    S    
C5    C36   A    
C17   C20   S    
C6    C35   A    
C7    C9    S    
C18   C19   S    
C16   N1    S    
C38   H15   S    
C6    C27   S    
C19   Cl1   S    
C23   C33   A    
C39   H16   S    
C31   C33   A    
C41   H18   S    
C16   H6    S    
C21   O7    A    
Cu1   O4    S    
C26   H10   S    
C32   Cl6   S    
Cu2   O7    S    
Cu1   N1    S    
C19   N1    S    
C44   H20   S    
C48   H24   S    
C1    C12   S    
C2    C11   S    
C36   Cl8   S    
C7    C12   S    
C40   C41   A    
C15   N2    S    
C9    H11   S    
C45   C46   A    
C20   N2    S    
C47   C48   A    
C13   C37   S    
C24   C34   A    
C32   C34   A    
C20   Cl2   S    
C15   C19   S    
C41   C42   A    
Cu1   Cu2   S    
C1    O3    A    
C22   O8    A    
C5    C28   S    
C44   C45   A    
Cu2   N2    S    
C3    C35   A    
C16   C20   S    
C16   C18   S    
Cu1   O5    S    
C9    C11   S    
C30   Cl4   S    
C10   C12   S    
Cu2   O6    S    
C4    C6    A    
C12   C14   S    
C40   H17   S    
C29   Cl3   S    
C45   H21   S    
C14   C43   S    
C10   H12   S    
C17   N1    S    
C15   C17   S    
C8    H14   S    
C25   H9    S    
C8    C14   S    
C38   C39   A    
C3    C5    A    
C10   C13   S    
C42   H19   S    
C46   H22   S    
C2    O4    A    
C25   C27   A    
C26   C28   A    
C24   H8    S    
C28   C30   A    
C1    O1    A    
C7    H13   S    
C37   C38   A    
C29   C31   A    
C2    O2    A    
C30   C32   A    
C4    C21   S    
C11   C13   S    
C8    C11   S    
C23   C25   A    
C17   H3    S    
C18   N2    S    
C15   H5    S    
Cu1   O1    S    
C7    C13   S    
Cu2   O2    S    
C35   Cl7   S    
C8    C10   S    
C43   C44   A    
C3    C22   S    
