data_mof_unit_51927.cif
_audit_creation_date              2013-03-05T15:44:39-0500
_audit_creation_method            fapswitch 2.2
_symmetry_space_group_name_H-M    P1
_symmetry_Int_Tables_number       1
_space_group_crystal_system       triclinic
_cell_length_a                    19.183891
_cell_length_b                    11.040124
_cell_length_c                    18.670176
_cell_angle_alpha                 89.657296
_cell_angle_beta                  90.6637
_cell_angle_gamma                 89.494216
_cell_volume                      3953.71138427

loop_
_atom_site_label
_atom_site_type_symbol
_atom_site_description
_atom_site_fract_x
_atom_site_fract_y
_atom_site_fract_z
_atom_type_partial_charge
O1    O     O_R   0.787540 0.042690 0.170470 -0.450654
O2    O     O_R   0.212460 0.042690 0.829530 -0.423333
O3    O     O_R   0.287540 0.542690 0.170470 -0.455218
O4    O     O_R   0.712460 0.542690 0.829530 -0.412340
O5    O     O_R   0.765660 0.292160 0.175050 -0.466962
O6    O     O_R   0.234340 0.292160 0.824950 -0.484490
O7    O     O_R   0.265660 0.792160 0.175050 -0.462265
O8    O     O_R   0.734340 0.792160 0.824950 -0.488532
C1    C     C_R   0.731516 0.380587 0.147517 0.572454
C2    C     C_R   0.269455 0.381586 0.852092 0.575402
C3    C     C_R   0.231508 0.880597 0.147516 0.586539
C4    C     C_R   0.769455 0.881606 0.852082 0.566477
O9    O     O_R   0.670190 0.408980 0.168550 -0.459642
O10   O     O_R   0.329810 0.408980 0.831450 -0.464726
O11   O     O_R   0.170190 0.908980 0.168550 -0.455588
O12   O     O_R   0.829810 0.908980 0.831450 -0.468004
O13   O     O_R   0.556580 0.251450 0.175160 -0.460994
O14   O     O_R   0.443420 0.251450 0.824840 -0.470602
O15   O     O_R   0.056580 0.751450 0.175160 -0.461606
O16   O     O_R   0.943420 0.751450 0.824840 -0.469927
C5    C     C_R   0.530221 0.156993 0.147668 0.575875
C6    C     C_R   0.466559 0.153337 0.854432 0.598596
C7    C     C_R   0.030325 0.657039 0.147582 0.572314
C8    C     C_R   0.966609 0.653297 0.854372 0.596003
O17   O     O_R   0.545920 0.049510 0.170320 -0.501561
O18   O     O_R   0.454080 0.049510 0.829680 -0.489972
O19   O     O_R   0.045920 0.549510 0.170320 -0.501480
O20   O     O_R   0.954080 0.549510 0.829680 -0.490032
O21   O     O_R   0.681390 0.957840 0.176710 -0.477775
O22   O     O_R   0.318610 0.957840 0.823290 -0.501638
O23   O     O_R   0.181390 0.457840 0.176710 -0.479770
O24   O     O_R   0.818610 0.457840 0.823290 -0.484661
C9    C     C_R   0.739512 0.975333 0.145318 0.603130
C10   C     C_R   0.272867 0.020410 0.859838 0.538506
C11   C     C_R   0.239536 0.475262 0.145344 0.595143
C12   C     C_R   0.772869 0.520382 0.859854 0.544483
O25   O     O_R   0.787500 0.044280 0.330990 -0.397627
O26   O     O_R   0.212500 0.044280 0.669010 -0.432627
O27   O     O_R   0.287500 0.544280 0.330990 -0.434030
O28   O     O_R   0.712500 0.544280 0.669010 -0.391880
O29   O     O_R   0.765610 0.293630 0.323860 -0.473266
O30   O     O_R   0.234390 0.293630 0.676140 -0.421599
O31   O     O_R   0.265610 0.793630 0.323860 -0.415905
O32   O     O_R   0.734390 0.793630 0.676140 -0.455365
C13   C     C_R   0.731724 0.379217 0.351590 0.544908
C14   C     C_R   0.288366 0.329467 0.640479 0.545071
C15   C     C_R   0.212174 0.830421 0.360769 0.540815
C16   C     C_R   0.766971 0.886991 0.651096 0.584037
O33   O     O_R   0.670140 0.410570 0.329080 -0.468398
O34   O     O_R   0.329860 0.410570 0.670920 -0.474263
O35   O     O_R   0.170140 0.910570 0.329080 -0.454976
O36   O     O_R   0.829860 0.910570 0.670920 -0.481120
O37   O     O_R   0.556540 0.252920 0.323970 -0.441582
O38   O     O_R   0.443460 0.252920 0.676030 -0.486781
O39   O     O_R   0.056540 0.752920 0.323970 -0.490739
O40   O     O_R   0.943460 0.752920 0.676030 -0.440084
C17   C     C_R   0.535892 0.158707 0.354916 0.576205
C18   C     C_R   0.465667 0.156412 0.646040 0.614587
C19   C     C_R   0.030660 0.657260 0.351975 0.576550
C20   C     C_R   0.966113 0.657912 0.645218 0.604139
O41   O     O_R   0.545870 0.051100 0.330840 -0.472129
O42   O     O_R   0.454130 0.051100 0.669160 -0.414904
O43   O     O_R   0.045870 0.551100 0.330840 -0.449490
O44   O     O_R   0.954130 0.551100 0.669160 -0.454571
O45   O     O_R   0.681340 0.959300 0.325510 -0.467152
O46   O     O_R   0.318660 0.959300 0.674490 -0.473409
O47   O     O_R   0.181340 0.459300 0.325510 -0.511939
O48   O     O_R   0.818660 0.459300 0.674490 -0.498670
C21   C     C_R   0.726163 0.024681 0.360998 0.550263
C22   C     C_R   0.255134 0.961107 0.650755 0.605603
C23   C     C_R   0.243094 0.467104 0.352354 0.553574
C24   C     C_R   0.772069 0.522268 0.638327 0.561035
Cr1   Cr    Cr6+3 0.772000 0.169640 0.250110 1.199818
Cr2   Cr    Cr6+3 0.228000 0.169640 0.749890 1.208651
Cr3   Cr    Cr6+3 0.272000 0.669640 0.250110 1.208081
Cr4   Cr    Cr6+3 0.728000 0.669640 0.749890 1.203274
Cr5   Cr    Cr6+3 0.614960 0.323350 0.249260 1.189430
Cr6   Cr    Cr6+3 0.385040 0.323350 0.750740 1.156222
Cr7   Cr    Cr6+3 0.114960 0.823350 0.249260 1.179528
Cr8   Cr    Cr6+3 0.885040 0.823350 0.750740 1.170053
Cr9   Cr    Cr6+3 0.616670 0.010620 0.250840 1.147593
Cr10  Cr    Cr6+3 0.383330 0.010620 0.749160 1.152515
Cr11  Cr    Cr6+3 0.116670 0.510620 0.250840 1.139512
Cr12  Cr    Cr6+3 0.883330 0.510620 0.749160 1.138619
O49   O     O_3   0.667880 0.167870 0.250070 -0.367237
O50   O     O_3   0.332120 0.167870 0.749930 -0.382548
O51   O     O_3   0.167880 0.667870 0.250070 -0.362115
O52   O     O_3   0.832120 0.667870 0.749930 -0.379204
H1    H     H_    0.463496 0.984218 0.076437 0.204994
H2    H     H_    0.450945 0.974713 0.949275 0.188313
H3    H     H_    0.963365 0.484663 0.076431 0.203890
H4    H     H_    0.950772 0.474873 0.949296 0.188289
C25   C     C_R   0.490394 0.155951 0.928995 0.056526
C26   C     C_R   0.495274 0.171698 0.077854 0.043555
C27   C     C_R   0.990642 0.655763 0.928832 0.057518
C28   C     C_R   0.995622 0.671896 0.077648 0.042718
C29   C     C_R   0.514388 0.263235 0.960948 -0.066268
C30   C     C_R   0.504772 0.278446 0.035306 -0.070888
C31   C     C_R   0.014979 0.762885 0.960598 -0.065553
C32   C     C_R   0.005463 0.778477 0.034944 -0.070780
C33   C     C_R   0.473786 0.065049 0.045294 -0.131062
C34   C     C_R   0.469918 0.058200 0.972095 -0.122791
C35   C     C_R   0.973894 0.565304 0.045203 -0.132081
C36   C     C_R   0.969989 0.558263 0.972027 -0.122020
C37   C     C_R   0.544716 0.356610 0.920126 0.189983
C38   C     C_R   0.506282 0.398078 0.063658 0.185551
C39   C     C_R   0.045289 0.855905 0.919477 0.193232
C40   C     C_R   0.007124 0.898340 0.062996 0.185562
C41   C     C_R   0.049134 0.972609 0.947714 0.168931
C42   C     C_R   0.029870 0.994418 0.018795 0.185864
C43   C     C_R   0.548754 0.473047 0.948777 0.168962
C44   C     C_R   0.529319 0.494387 0.019851 0.187332
C45   C     C_R   0.684174 0.919933 0.028749 -0.098691
C46   C     C_R   0.310802 0.900934 0.966480 -0.107246
C47   C     C_R   0.184233 0.419652 0.028824 -0.097788
C48   C     C_R   0.810755 0.400718 0.966467 -0.106890
H5    H     H_    0.633940 0.909952 0.053908 0.205483
H6    H     H_    0.345265 0.847400 0.933582 0.210763
H7    H     H_    0.134023 0.409515 0.054009 0.206254
H8    H     H_    0.845147 0.347091 0.933543 0.211124
C49   C     C_R   0.688236 0.913369 0.954279 0.124165
C50   C     C_R   0.306395 0.873556 0.038805 0.110093
C51   C     C_R   0.188265 0.413043 0.954365 0.122717
C52   C     C_R   0.806397 0.373393 0.038809 0.111486
C53   C     C_R   0.752156 0.934376 0.921329 0.045181
C54   C     C_R   0.258525 0.936487 0.081746 0.037758
C55   C     C_R   0.252143 0.434290 0.921358 0.042939
C56   C     C_R   0.758583 0.436438 0.081763 0.037712
C57   C     C_R   0.807254 0.984030 0.962239 0.124822
C58   C     C_R   0.229696 0.045313 0.055649 0.138101
C59   C     C_R   0.307223 0.484072 0.962244 0.123847
C60   C     C_R   0.729897 0.545386 0.055708 0.138674
C61   C     C_R   0.805827 0.975244 0.035329 -0.087808
C62   C     C_R   0.234349 0.073430 0.982756 -0.118849
C63   C     C_R   0.305835 0.475269 0.035339 -0.086948
C64   C     C_R   0.734576 0.573547 0.982825 -0.118069
H9    H     H_    0.851206 0.004596 0.064944 0.238182
H10   H     H_    0.210268 0.155658 0.962171 0.179133
H11   H     H_    0.351204 0.504713 0.064936 0.237897
H12   H     H_    0.710683 0.655967 0.962287 0.179090
C65   C     C_R   0.744470 0.944452 0.069867 -0.016443
C66   C     C_R   0.271078 0.995858 0.936949 -0.046739
C67   C     C_R   0.244515 0.444339 0.069907 -0.014393
C68   C     C_R   0.771112 0.495788 0.936968 -0.050162
C69   C     C_R   0.464356 0.088753 0.451931 0.174607
C70   C     C_R   0.449003 0.087742 0.523285 0.185300
C71   C     C_R   0.996821 0.556372 0.462431 0.123072
C72   C     C_R   0.007110 0.561193 0.535823 0.111411
C73   C     C_R   0.484300 0.163169 0.571847 -0.053270
C74   C     C_R   0.509281 0.175328 0.426278 -0.057815
C75   C     C_R   0.990987 0.669396 0.571264 -0.049063
C76   C     C_R   0.999595 0.664854 0.422432 -0.034527
C77   C     C_R   0.528481 0.252487 0.547059 0.115780
C78   C     C_R   0.536463 0.265133 0.473416 0.118705
C79   C     C_R   0.979768 0.776817 0.530004 0.152725
C80   C     C_R   0.990726 0.776766 0.456268 0.135513
C81   C     C_R   0.789653 0.986424 0.472108 0.244441
C82   C     C_R   0.172167 0.910787 0.552413 0.178638
C83   C     C_R   0.326148 0.393337 0.447474 0.203925
C84   C     C_R   0.724753 0.559687 0.514333 0.168329
C85   C     C_R   0.791161 0.007507 0.544852 -0.102260
C86   C     C_R   0.166652 0.891555 0.478888 -0.121355
C87   C     C_R   0.334623 0.368376 0.520345 -0.103014
C88   C     C_R   0.725806 0.534339 0.442071 -0.064246
H13   H     H_    0.833873 0.052955 0.570084 0.229278
H14   H     H_    0.119899 0.921617 0.451537 0.209465
H15   H     H_    0.386140 0.374646 0.544321 0.176766
H16   H     H_    0.690275 0.584412 0.407076 0.212378
C89   C     C_R   0.740728 0.953500 0.586029 -0.006433
C90   C     C_R   0.221361 0.836987 0.440807 -0.039918
C91   C     C_R   0.276981 0.337548 0.562301 -0.034972
C92   C     C_R   0.760853 0.431619 0.417176 -0.001771
C93   C     C_R   0.672805 0.952281 0.555081 0.212426
C94   C     C_R   0.276872 0.781534 0.482949 0.207938
C95   C     C_R   0.212328 0.311926 0.526251 0.200975
C96   C     C_R   0.810989 0.370971 0.462947 0.181165
C97   C     C_R   0.665347 0.984384 0.480859 -0.138504
C98   C     C_R   0.279453 0.803104 0.557493 -0.057138
C99   C     C_R   0.203621 0.352683 0.456252 -0.120191
C100  C     C_R   0.816353 0.411095 0.533580 -0.132498
H17   H     H_    0.614291 0.989237 0.455919 0.165830
H18   H     H_    0.320930 0.764822 0.590418 0.211427
H19   H     H_    0.152594 0.346476 0.431336 0.216038
H20   H     H_    0.854344 0.368027 0.568740 0.217756
C101  C     C_R   0.726023 0.003521 0.439121 -0.031845
C102  C     C_R   0.234141 0.885447 0.588578 0.014322
C103  C     C_R   0.258790 0.400102 0.418156 -0.012035
C104  C     C_R   0.769988 0.497237 0.561302 -0.024822
Br1   Br    Br    0.823355 0.829873 0.443478 -0.417362
Br2   Br    Br    0.094771 0.963810 0.606159 -0.227104
Br3   Br    Br    0.406284 0.420159 0.389646 -0.258864
Br4   Br    Br    0.651726 0.664793 0.544491 -0.267035
N1    N     N_R   0.612682 0.927119 0.597551 0.102198
O53   O     O_R   0.554761 0.894355 0.566892 -0.234373
O54   O     O_R   0.614184 0.942925 0.666560 -0.267699
N2    N     N_R   0.331880 0.706441 0.454748 0.104018
O55   O     O_R   0.363355 0.630181 0.497801 -0.294947
O56   O     O_R   0.364833 0.737462 0.397378 -0.161030
N3    N     N_R   0.158502 0.233038 0.552268 0.120415
O57   O     O_R   0.126412 0.165401 0.505711 -0.254198
O58   O     O_R   0.127942 0.250884 0.612992 -0.161670
N4    N     N_R   0.853947 0.266560 0.443678 0.100520
O59   O     O_R   0.886415 0.205822 0.493970 -0.274138
O60   O     O_R   0.874639 0.246922 0.378762 -0.180151
N5    N     N_R   0.577514 0.329799 0.852946 0.103743
O61   O     O_R   0.620071 0.237764 0.848503 -0.290655
O62   O     O_R   0.562036 0.391553 0.795271 -0.213616
N6    N     N_R   0.475178 0.424297 0.131919 0.106243
O63   O     O_R   0.420264 0.365649 0.152471 -0.327821
O64   O     O_R   0.505474 0.496927 0.176974 -0.212993
N7    N     N_R   0.078141 0.828450 0.852386 0.099345
O65   O     O_R   0.120731 0.736402 0.848347 -0.301791
O66   O     O_R   0.062574 0.889321 0.794394 -0.226245
N8    N     N_R   0.976237 0.925152 0.131267 0.106984
O67   O     O_R   0.921255 0.866976 0.152086 -0.327771
O68   O     O_R   0.006752 0.997997 0.176042 -0.212314
Br5   Br    Br    0.071218 0.105001 0.885474 -0.247889
Br6   Br    Br    0.032636 0.158162 0.052897 -0.274675
Br7   Br    Br    0.571683 0.605829 0.887200 -0.253395
Br8   Br    Br    0.532546 0.657712 0.054580 -0.274600
Br9   Br    Br    0.604705 0.902358 0.898318 -0.342994
Br10  Br    Br    0.371802 0.758586 0.076601 -0.390989
Br11  Br    Br    0.104679 0.401324 0.898558 -0.346098
Br12  Br    Br    0.871866 0.258513 0.076651 -0.391971
Br13  Br    Br    0.882158 0.078649 0.923229 -0.388334
Br14  Br    Br    0.194847 0.162747 0.121498 -0.393156
Br15  Br    Br    0.382079 0.578795 0.923208 -0.392004
Br16  Br    Br    0.695320 0.662933 0.121620 -0.401975
N9    N     N_R   0.435619 0.997622 0.406381 0.144022
O69   O     O_R   0.465553 0.891548 0.405218 -0.186736
O70   O     O_R   0.389807 0.026919 0.357194 -0.261624
N10   N     N_R   0.394751 0.011213 0.545157 0.086713
O71   O     O_R   0.332135 0.038148 0.522587 -0.381364
O72   O     O_R   0.411239 0.899980 0.561321 -0.228200
N11   N     N_R   0.979804 0.444588 0.427845 0.125190
O73   O     O_R   0.017669 0.347629 0.438133 -0.197804
O74   O     O_R   0.935510 0.447972 0.374533 -0.271763
N12   N     N_R   0.033247 0.457892 0.574743 0.122347
O75   O     O_R   0.996757 0.359222 0.577829 -0.190756
O76   O     O_R   0.083383 0.473961 0.621201 -0.273581
Br17  Br    Br    0.577843 0.355546 0.613548 -0.260396
Br18  Br    Br    0.572964 0.416232 0.442206 -0.304166
Br19  Br    Br    0.942957 0.922976 0.568050 -0.274757
Br20  Br    Br    0.983886 0.928406 0.401745 -0.208060

loop_
_geom_bond_atom_site_label_1
_geom_bond_atom_site_label_2
_geom_bond_distance
_ccdc_geom_bond_type
C18   O42   1.260096 A    
C21   C101  1.475830 S    
Cr11  O51   2.002343 S    
O4    C12   1.304712 A    
C61   H9    1.079138 S    
C33   C34   1.370363 A    
O39   C19   1.282142 A    
O20   Cr12  2.063302 S    
C39   C41   1.397254 A    
O29   C13   1.259464 A    
C87   H15   1.083157 S    
C71   C72   1.383538 A    
C72   C75   1.402929 A    
C64   H12   1.081425 S    
O29   Cr1   1.951473 S    
O26   C22   1.274827 A    
C29   C30   1.413403 A    
C97   C101  1.424838 A    
C38   C44   1.414589 A    
N5    O61   1.301439 A    
C7    C28   1.466378 S    
O7    C3    1.273448 A    
C96   C100  1.396607 A    
O5    C1    1.273279 A    
N4    O60   1.298573 A    
O36   Cr8   2.048639 S    
C85   H13   1.070620 S    
C72   N12   1.432330 S    
C84   C88   1.379847 A    
C46   H6    1.081903 S    
C81   C101  1.371898 A    
C77   Br17  1.934139 S    
C82   Br2   1.892171 S    
O26   Cr2   2.075075 S    
C27   C31   1.407150 A    
C39   N7    1.441355 S    
C5    C26   1.466308 S    
C26   C30   1.431467 A    
C97   H17   1.080385 S    
C56   C60   1.400476 A    
C94   N2    1.442484 S    
O8    Cr4   1.957020 S    
O10   Cr6   2.079257 S    
O23   Cr11  1.957872 S    
C14   C91   1.475403 S    
O30   C14   1.300789 A    
C81   C85   1.379330 A    
C83   C103  1.398703 A    
O32   Cr4   1.941410 S    
C73   C77   1.386819 A    
O44   Cr12  2.079685 S    
C1    O9    1.281488 A    
C80   Br20  1.956720 S    
C86   H14   1.075847 S    
C3    O11   1.281334 A    
O11   Cr7   2.079569 S    
C76   C80   1.400956 A    
C26   C33   1.391796 A    
O28   Cr4   2.075075 S    
N6    O63   1.301811 A    
N1    O54   1.301235 A    
N11   O73   1.300379 A    
O6    Cr2   1.957020 S    
O27   Cr3   2.059467 S    
C81   Br1   1.920995 S    
C87   C91   1.405620 A    
Cr4   O52   1.997341 S    
O47   C23   1.284777 A    
C69   C74   1.379976 A    
O2    Cr2   2.063191 S    
C18   C73   1.436246 S    
C60   C64   1.398065 A    
C52   C56   1.407623 A    
C85   C89   1.380048 A    
Cr9   O49   2.002343 S    
O2    C10   1.304500 A    
C63   C67   1.392461 A    
O42   Cr10  2.079685 S    
C50   Br10  1.903705 S    
Cr5   O49   1.986427 S    
N3    O57   1.302167 A    
O21   C9    1.281256 A    
C48   C68   1.397366 A    
C94   C98   1.413764 A    
Cr8   O52   2.002011 S    
O17   Cr9   2.054554 S    
N11   O74   1.301366 A    
C100  C104  1.401808 A    
C58   C62   1.398092 A    
C43   Br7   1.914961 S    
C4    O12   1.263095 A    
C82   C102  1.385971 A    
Cr7   O51   1.986427 S    
C35   C36   1.370113 A    
C14   O34   1.329118 A    
C69   C70   1.367691 A    
C99   H19   1.081823 S    
N5    O62   1.301050 A    
O31   Cr3   1.951473 S    
O24   Cr12  1.959467 S    
N12   O76   1.301695 A    
C32   C40   1.426578 A    
C1    C56   1.472518 S    
C47   C51   1.395524 A    
N4    O59   1.300297 A    
O22   C10   1.312125 A    
C92   C96   1.437492 A    
O48   Cr12  1.945627 S    
C83   Br3   1.912956 S    
C88   H16   1.084342 S    
C3    C54   1.472583 S    
O1    C9    1.276188 A    
C84   Br4   1.903564 S    
N2    O56   1.295886 A    
C5    O17   1.289334 A    
C2    O10   1.263217 A    
C8    C27   1.460035 S    
C23   C103  1.457314 S    
O16   Cr8   1.932258 S    
N8    O67   1.301786 A    
C15   O35   1.324131 A    
C4    C53   1.461703 S    
C9    C65   1.455324 S    
O27   C23   1.275682 A    
C19   C76   1.452973 S    
C91   C95   1.435438 A    
O13   C5    1.271350 A    
C48   H8    1.081901 S    
C47   H7    1.083147 S    
O43   Cr11  2.078373 S    
O48   C24   1.306684 A    
O12   Cr8   2.079257 S    
C20   C75   1.471196 S    
Cr12  O52   1.987398 S    
C50   C54   1.407572 A    
O15   C7    1.270785 A    
N7    O65   1.301401 A    
C49   C53   1.398815 A    
N9    O69   1.300136 A    
C70   N10   1.408909 S    
C98   C102  1.386677 A    
C96   N4    1.460256 S    
C62   C66   1.404769 A    
C70   C73   1.406686 A    
O39   Cr7   1.960827 S    
O25   C21   1.327995 A    
C25   C29   1.407961 A    
O45   Cr9   1.934361 S    
C31   C32   1.413438 A    
C86   C90   1.407552 A    
C13   O33   1.292953 A    
O40   Cr8   1.959599 S    
O8    C4    1.302063 A    
Cr1   O49   1.997686 S    
C17   C74   1.444445 S    
N10   O72   1.298338 A    
C44   Br8   1.921075 S    
C45   C49   1.395720 A    
C59   Br15  1.930963 S    
C98   H18   1.081317 S    
O47   Cr11  1.934361 S    
Cr2   O50   1.997341 S    
O15   Cr7   1.947123 S    
O32   C16   1.297709 A    
C95   N3    1.443303 S    
O18   Cr10  2.063302 S    
O30   Cr2   1.941410 S    
C45   H5    1.083149 S    
Cr3   O51   1.997686 S    
O14   Cr6   1.932258 S    
N7    O66   1.301291 A    
O21   Cr9   1.957872 S    
C93   N1    1.435422 S    
C7    O19   1.289868 A    
C53   C57   1.413386 A    
C24   C104  1.466166 S    
O37   Cr5   1.960827 S    
C6    C25   1.460764 S    
C57   C61   1.368080 A    
C78   Br18  1.905524 S    
C88   C92   1.397930 A    
C84   C104  1.400697 A    
O3    C11   1.276147 A    
C2    C55   1.461786 S    
C90   C94   1.446108 A    
C13   C92   1.464477 S    
C46   C66   1.397227 A    
C51   C55   1.399029 A    
O34   Cr6   2.048639 S    
C15   C90   1.504900 S    
O3    Cr3   2.071683 S    
C27   C36   1.403775 A    
O38   C18   1.278611 A    
O25   Cr1   2.059467 S    
C19   O43   1.271471 A    
C69   N9    1.431277 S    
N12   O75   1.301394 A    
C10   C66   1.464214 S    
C49   Br9   1.907984 S    
O22   Cr10  1.959467 S    
O28   C24   1.305775 A    
C43   C44   1.403197 A    
H1    C33   1.083031 S    
O14   C6    1.286170 A    
H4    C36   1.081944 S    
C61   C65   1.392437 A    
O5    Cr1   1.943904 S    
C8    O20   1.261671 A    
N8    O68   1.301269 A    
H3    C35   1.083056 S    
N2    O55   1.300456 A    
O37   C17   1.256168 A    
C25   C34   1.403888 A    
C62   H10   1.081457 S    
O7    Cr3   1.943904 S    
O24   C12   1.312101 A    
C17   O41   1.286233 A    
C37   N5    1.440870 S    
C38   N6    1.443266 S    
C31   C39   1.411948 A    
C95   C99   1.387413 A    
C59   C63   1.368147 A    
C75   C79   1.423693 A    
C30   C38   1.426214 A    
C20   O44   1.282211 A    
C63   H11   1.079148 S    
O1    Cr1   2.071683 S    
C55   C59   1.413455 A    
C60   Br16  1.913451 S    
C71   C76   1.409338 A    
C12   C68   1.464333 S    
C22   C102  1.488020 S    
C29   C37   1.411929 A    
C64   C68   1.404739 A    
N6    O64   1.301266 A    
H2    C34   1.081936 S    
C41   C42   1.403335 A    
O46   Cr10  1.945627 S    
Cr10  O50   1.987398 S    
O13   Cr5   1.947123 S    
C89   C93   1.419463 A    
Cr6   O50   2.002011 S    
O46   C22   1.291861 A    
C40   C42   1.415129 A    
C51   Br11  1.907903 S    
C79   Br19  1.900585 S    
O45   C21   1.304951 A    
C28   C32   1.432498 A    
O23   C11   1.281308 A    
O19   Cr11  2.054554 S    
N10   O71   1.299757 A    
O33   Cr5   2.065730 S    
C83   C87   1.393899 A    
C45   C65   1.409989 A    
C47   C67   1.409785 A    
C37   C43   1.397717 A    
C42   Br6   1.921150 S    
O35   Cr7   2.065730 S    
O4    Cr4   2.063191 S    
C41   Br5   1.915252 S    
O6    C2    1.301961 A    
C82   C86   1.393245 A    
C6    O18   1.262300 A    
C16   C89   1.495656 S    
C46   C50   1.385663 A    
O40   C20   1.274735 A    
C16   O36   1.287109 A    
C99   C103  1.386664 A    
C58   Br14  1.913660 S    
N9    O70   1.301177 A    
N1    O53   1.299209 A    
C74   C78   1.427732 A    
C28   C35   1.391714 A    
C57   Br13  1.930834 S    
C79   C80   1.395041 A    
N3    O58   1.297652 A    
C52   Br12  1.904134 S    
C54   C58   1.400630 A    
O41   Cr9   2.078373 S    
O38   Cr6   1.959599 S    
C93   C97   1.433520 A    
C48   C52   1.385785 A    
O31   C15   1.305014 A    
O9    Cr5   2.079569 S    
O16   C8    1.286395 A    
C40   N8    1.443014 S    
C100  H20   1.080401 S    
C11   C67   1.455211 S    
C77   C78   1.391515 A    
C71   N11   1.434685 S    
