data_mof_unit_21067.cif
_audit_creation_date              2012-12-11T15:52:36-0500
_audit_creation_method            fapswitch 2.2
_symmetry_space_group_name_H-M    P1
_symmetry_Int_Tables_number       1
_space_group_crystal_system       triclinic
_cell_length_a                    6.978974
_cell_length_b                    14.580199
_cell_length_c                    16.054169
_cell_angle_alpha                 89.994424
_cell_angle_beta                  90.38946
_cell_angle_gamma                 90.325484
_cell_volume                      1633.52513302

loop_
_atom_site_label
_atom_site_type_symbol
_atom_type_description
_atom_site_fract_x
_atom_site_fract_y
_atom_site_fract_z
_atom_type_partial_charge
O1    O     O_R   0.494400 0.415640 0.412830 -0.543989
O2    O     O_R   0.823920 0.405510 0.586560 -0.540039
O3    O     O_R   0.994250 0.584360 0.587170 -0.518209
C1    C     C_R   0.654966 0.383486 0.615293 0.768183
O4    O     O_R   0.824110 0.404610 0.413450 -0.545957
O5    O     O_R   0.994440 0.583460 0.412820 -0.546959
C2    C     C_R   0.654576 0.382314 0.384576 0.747430
O6    O     O_R   0.494210 0.416540 0.587180 -0.538134
O7    O     O_3   0.660810 0.558680 0.500000 -0.385533
V1    V     V_3+5 0.935650 0.489110 0.500000 1.445995
O8    O     O_R   0.324150 0.594490 0.413440 -0.550947
C3    C     C_R   0.154973 0.616793 0.384777 0.697774
O9    O     O_R   0.323970 0.595390 0.586550 -0.524239
C4    C     C_R   0.154199 0.624954 0.608880 0.797638
V2    V     V_3+5 0.435660 0.510890 0.500000 1.439371
O10   O     O_3   0.160630 0.441320 0.500000 -0.377600
C5    C     C_3   0.929925 0.706903 0.708325 0.556983
C6    C     C_3   0.922515 0.778357 0.781183 -0.412148
H1    H     H_    0.872886 0.742431 0.838394 0.284984
H2    H     H_    0.808087 0.828590 0.771631 0.146094
H3    H     H_    0.067391 0.829275 0.611254 0.208748
C7    C     C_3   0.191954 0.806147 0.644030 -0.108042
C8    C     C_3   0.267184 0.673734 0.750668 0.405178
C9    C     C_3   0.140393 0.702887 0.674340 -0.306941
H4    H     H_    0.215601 0.606186 0.774042 0.167093
C10   C     C_3   0.123701 0.824414 0.800637 -0.354320
C11   C     C_3   0.198209 0.879821 0.719176 0.169972
C12   C     C_3   0.259557 0.743014 0.822903 1.050092
C13   C     C_R   0.957711 0.767936 0.211111 -0.187353
H5    H     H_    0.820087 0.780231 0.181882 0.213279
C14   C     C_R   0.967734 0.704786 0.276746 -0.136958
H6    H     H_    0.837210 0.670641 0.296105 0.145239
C15   C     C_R   0.143735 0.685266 0.316088 -0.127515
C16   C     C_R   0.308839 0.731485 0.288719 -0.227100
H7    H     H_    0.446406 0.718851 0.318055 0.143013
C17   C     C_R   0.299181 0.795239 0.223607 0.634919
C18   C     C_R   0.122951 0.813965 0.183197 -0.164939
C19   C     C_R   0.810350 0.272026 0.713633 -0.211474
H8    H     H_    0.948894 0.287902 0.687094 0.143248
C20   C     C_R   0.800862 0.207828 0.778170 0.612252
C21   C     C_R   0.623445 0.184437 0.814645 -0.151977
C22   C     C_R   0.457512 0.228343 0.785167 -0.225044
H9    H     H_    0.319357 0.212983 0.811967 0.223071
C23   C     C_R   0.467382 0.292427 0.720431 -0.123762
H10   H     H_    0.336074 0.324466 0.699398 0.151400
C24   C     C_R   0.644089 0.315014 0.683739 -0.124808
C25   C     C_R   0.802889 0.260380 0.294284 -0.221275
H11   H     H_    0.936225 0.267605 0.328644 0.168641
C26   C     C_R   0.792717 0.196030 0.229350 0.615307
C27   C     C_R   0.622121 0.183939 0.182476 -0.324264
C28   C     C_R   0.462203 0.238051 0.203726 0.609654
C29   C     C_R   0.472786 0.301269 0.269545 -0.224169
H12   H     H_    0.347265 0.341608 0.283668 0.168246
C30   C     C_R   0.643175 0.313658 0.315537 -0.227724
O11   O     O_R   0.771300 0.080930 0.910090 -0.515225
O12   O     O_R   0.441270 0.092800 0.083770 -0.503070
O13   O     O_R   0.271080 0.913920 0.084380 -0.501586
C31   C     C_R   0.610775 0.115158 0.112923 0.803586
O14   O     O_R   0.441580 0.091910 0.910670 -0.558464
O15   O     O_R   0.271390 0.913020 0.910040 -0.531544
C32   C     C_R   0.610951 0.114700 0.882385 0.687634
O16   O     O_R   0.770990 0.081830 0.084440 -0.509580
O17   O     O_3   0.604750 0.938760 0.997250 -0.362557
V3    V     V_3+5 0.329850 0.008280 0.997210 1.677068
O18   O     O_R   0.941680 0.901940 0.910610 -0.548251
C33   C     C_R   0.109741 0.885900 0.877694 0.770713
O19   O     O_R   0.941370 0.902830 0.083720 -0.542942
C34   C     C_R   0.110712 0.881280 0.113169 0.786939
V4    V     V_3+5 0.829860 0.986420 0.997150 1.644948
O20   O     O_3   0.104830 0.056030 0.997180 -0.351720
C35   C     C_3   0.765036 0.719909 0.641035 -0.176824
C36   C     C_3   0.798840 0.755747 0.551482 -0.909291
H13   H     H_    0.792993 0.831583 0.549329 0.213250
H14   H     H_    0.932063 0.731021 0.523281 0.231697
H15   H     H_    0.684768 0.731362 0.508677 0.238825
H16   H     H_    0.695158 0.652253 0.631804 0.293186
H17   H     H_    0.654643 0.762073 0.668273 0.186980
F1    F     F_    0.443168 0.772820 0.842788 -0.657567
C37   C     C_3   0.347303 0.812302 0.574351 -0.334108
C38   C     C_3   0.282446 0.854934 0.491571 -0.804696
H18   H     H_    0.157696 0.817916 0.464817 0.223409
H19   H     H_    0.247276 0.928158 0.499035 0.246866
H20   H     H_    0.401152 0.850560 0.446011 0.231981
H21   H     H_    0.475940 0.849223 0.593619 0.213315
H22   H     H_    0.397949 0.744088 0.558474 0.211597
C39   C     C_3   0.407192 0.921566 0.733292 -0.245656
C40   C     C_3   0.473192 0.003801 0.680196 -0.829858
H23   H     H_    0.465553 0.992136 0.612376 0.243140
H24   H     H_    0.390842 0.066101 0.695831 0.245348
H25   H     H_    0.624614 0.019932 0.695470 0.205946
H26   H     H_    0.427229 0.948200 0.796218 0.196673
H27   H     H_    0.514088 0.867770 0.728649 0.193483
F2    F     F_    0.463084 0.838946 0.201195 -0.703380
F3    F     F_    0.966588 0.169204 0.804627 -0.730223
F4    F     F_    0.888863 0.622389 0.745035 -0.645294
F5    F     F_    0.949856 0.144519 0.213859 -0.629659
F6    F     F_    0.295447 0.231513 0.160127 -0.618537
C41   C     C_3   0.057257 0.964858 0.706874 -0.267838
C42   C     C_3   0.032722 0.009973 0.620897 -0.736653
H28   H     H_    0.166925 0.035803 0.593989 0.235170
H29   H     H_    0.959595 0.964098 0.575932 0.211452
H30   H     H_    0.938839 0.070742 0.627843 0.214301
H31   H     H_    0.910348 0.948694 0.725493 0.149211
H32   H     H_    0.099994 0.019464 0.751571 0.215135
F7    F     F_    0.453370 0.657420 0.729415 -0.669342
F8    F     F_    0.191130 0.698171 0.893148 -0.670374

loop_
_geom_bond_atom_site_label_1
_geom_bond_atom_site_label_2
_ccdc_geom_bond_type
C31   O16   A    
C40   H23   S    
C11   C41   S    
C28   F6    S    
C21   C22   A    
C6    C10   S    
C21   C32   S    
C1    O6    A    
C25   C26   A    
C1    C24   S    
C29   H12   S    
O18   C33   A    
O14   V3    S    
C17   C18   A    
C7    C37   S    
C6    H1    S    
C39   H26   S    
C36   H15   S    
O5    C3    A    
C37   H21   S    
C41   H32   S    
C41   H31   S    
C8    F7    S    
C18   C34   S    
C16   H7    S    
C4    C9    S    
O8    V2    S    
C17   F2    S    
O17   V4    S    
C23   C24   A    
C8    C9    S    
O12   V3    S    
C5    F4    S    
V3    O20   S    
C12   F1    S    
O7    V1    S    
C16   C17   A    
O15   C33   A    
O9    C4    A    
C22   C23   A    
C38   H20   S    
C29   C30   A    
C15   C16   A    
C19   H8    S    
O14   C32   A    
C5    C9    S    
O19   C34   A    
C27   C31   S    
C25   H11   S    
C38   H19   S    
C12   F8    S    
O4    C2    A    
C39   C40   S    
C36   H13   S    
C27   C28   A    
O17   V3    S    
C28   C29   A    
O16   V4    S    
O19   V4    S    
C10   C33   S    
C11   C39   S    
O2    C1    A    
C13   H5    S    
C42   H28   S    
C14   C15   A    
C5    C6    S    
C10   C11   S    
C8    C12   S    
O11   V4    S    
O3    C4    A    
C25   C30   A    
O1    V2    S    
C36   H14   S    
C20   C21   A    
C42   H29   S    
C26   C27   A    
O6    V2    S    
C7    C11   S    
C40   H24   S    
C7    C9    S    
C22   H9    S    
O13   C34   A    
O2    V1    S    
C35   H17   S    
C23   H10   S    
O13   V3    S    
O1    C2    A    
C14   H6    S    
C20   F3    S    
C38   H18   S    
O5    V1    S    
O8    C3    A    
C5    C35   S    
C10   C12   S    
O15   V3    S    
O9    V2    S    
O7    V2    S    
C35   C36   S    
C13   C14   A    
O3    V1    S    
V1    O10   S    
C19   C20   A    
C35   H16   S    
O18   V4    S    
O11   C32   A    
C37   H22   S    
O12   C31   A    
C6    H2    S    
C8    H4    S    
C26   F5    S    
V4    O20   S    
C19   C24   A    
C37   C38   S    
O4    V1    S    
C42   H30   S    
C41   C42   S    
C40   H25   S    
C13   C18   A    
C39   H27   S    
C2    C30   S    
C3    C15   S    
H3    C7    S    
V2    O10   S    
