data_mof_unit_18828.cif
_audit_creation_date              2013-03-05T16:11:31-0500
_audit_creation_method            fapswitch 2.2
_symmetry_space_group_name_H-M    P1
_symmetry_Int_Tables_number       1
_space_group_crystal_system       triclinic
_cell_length_a                    10.579696
_cell_length_b                    9.918876
_cell_length_c                    15.776677
_cell_angle_alpha                 91.352841
_cell_angle_beta                  92.537351
_cell_angle_gamma                 90.259986
_cell_volume                      1653.47382585

loop_
_atom_site_label
_atom_site_type_symbol
_atom_site_description
_atom_site_fract_x
_atom_site_fract_y
_atom_site_fract_z
_atom_type_partial_charge
O1    O     O_R   0.316750 0.614620 0.499990 -0.586395
O2    O     O_R   0.316750 0.385380 0.499990 -0.589454
C1    C     C_R   0.264706 0.500214 0.517576 0.942514
O3    O     O_R   0.499990 0.614720 0.377140 -0.558431
O4    O     O_R   0.499990 0.385280 0.377140 -0.554852
C2    C     C_R   0.500845 0.498573 0.338525 0.936546
Zn1   Zn    Zn3+2 0.499980 0.653120 0.500000 1.035676
Zn2   Zn    Zn3+2 0.499980 0.346880 0.500000 1.039346
O5    O     O_R   0.683220 0.614710 0.500000 -0.588140
O6    O     O_R   0.683220 0.385290 0.500000 -0.599780
O7    O     O_R   0.499980 0.614620 0.622860 -0.661215
O8    O     O_R   0.499980 0.385380 0.622860 -0.644274
C3    C     C_R   0.741861 0.500509 0.496479 0.927384
C4    C     C_R   0.501686 0.501548 0.661424 0.835134
C5    C     C_3   0.489020 0.650751 0.053405 0.310186
C6    C     C_3   0.426969 0.385013 0.043928 0.305100
C7    C     C_3   0.416272 0.411778 0.945320 -0.159981
C8    C     C_3   0.499656 0.651414 0.952616 -0.216314
H1    H     H_    0.404040 0.674538 0.924465 0.175039
H2    H     H_    0.330462 0.474581 0.935327 0.176387
C9    C     C_1   0.510975 0.505341 0.749875 -0.123616
C10   C     C_3   0.525957 0.498128 0.083854 -0.217366
C11   C     C_3   0.529065 0.505035 0.916978 -0.055439
C12   C     C_3   0.663511 0.448899 0.951129 0.354223
C13   C     C_3   0.669628 0.464671 0.054967 0.223825
C14   C     C_1   0.520264 0.506835 0.824979 0.125250
C15   C     C_1   0.519255 0.495594 0.175558 0.176977
C16   C     C_1   0.510248 0.495664 0.250339 0.018658
C17   C     C_R   0.067656 0.377174 0.540695 0.064682
C18   C     C_R   0.070328 0.622773 0.549795 0.066962
C19   C     C_R   0.943718 0.377661 0.507377 0.263850
C20   C     C_R   0.944286 0.625890 0.520629 0.281689
C21   C     C_R   0.879588 0.502236 0.501945 -0.320099
C22   C     C_R   0.134770 0.499773 0.544011 -0.180220
C23   C     C_R   0.569480 0.074249 0.561171 0.174824
C24   C     C_R   0.564071 0.930300 0.563575 0.182827
N1    N     N_R   0.499970 0.857200 0.499980 -0.166652
N2    N     N_R   0.499970 0.142800 0.499980 -0.167477
C25   C     C_R   0.434736 0.925731 0.437666 0.253153
C26   C     C_R   0.433393 0.069331 0.438384 0.235158
N3    N     N_R   0.363661 0.852641 0.372461 0.248950
O9    O     O_R   0.403111 0.849051 0.295536 -0.271936
O10   O     O_R   0.248403 0.815107 0.385479 -0.336971
N4    N     N_R   0.364056 0.137393 0.372737 0.248452
O11   O     O_R   0.248132 0.174064 0.383903 -0.339830
O12   O     O_R   0.406311 0.136643 0.296687 -0.238771
C27   C     C_3   0.351723 0.691901 0.075453 -0.733258
H3    H     H_    0.278448 0.657778 0.027739 0.201379
H4    H     H_    0.327585 0.658495 0.139365 0.256894
H5    H     H_    0.341499 0.803353 0.076229 0.297768
C28   C     C_3   0.290738 0.390236 0.079828 -0.726903
H6    H     H_    0.292664 0.408604 0.149414 0.245138
H7    H     H_    0.224163 0.461138 0.049521 0.227616
H8    H     H_    0.242568 0.291235 0.068286 0.284138
N5    N     N_R   0.470346 0.246758 0.065742 0.283063
O13   O     O_R   0.490454 0.220336 0.145452 -0.239404
O14   O     O_R   0.437152 0.143020 0.017795 -0.321447
N6    N     N_R   0.569316 0.757879 0.097776 0.284134
O15   O     O_R   0.601280 0.747923 0.177959 -0.261613
O16   O     O_R   0.567478 0.880383 0.069980 -0.254109
C29   C     C_3   0.375669 0.291385 0.884996 -0.685067
H9    H     H_    0.339703 0.327735 0.822432 0.196188
H10   H     H_    0.453626 0.220814 0.872733 0.297904
H11   H     H_    0.294616 0.236349 0.910591 0.265838
C30   C     C_3   0.573696 0.768409 0.913249 -0.577537
H12   H     H_    0.522752 0.865107 0.921848 0.259324
H13   H     H_    0.671133 0.780587 0.939609 0.320839
H14   H     H_    0.577565 0.755919 0.843437 0.212085
N7    N     N_R   0.755881 0.575094 0.088589 0.243565
O17   O     O_R   0.797980 0.572908 0.167448 -0.241865
O18   O     O_R   0.794554 0.673851 0.043505 -0.312429
N8    N     N_R   0.725968 0.341612 0.093124 0.273822
O19   O     O_R   0.710101 0.316303 0.172504 -0.245728
O20   O     O_R   0.832022 0.298636 0.063629 -0.234037
N9    N     N_R   0.773255 0.519346 0.916190 0.255512
O21   O     O_R   0.886733 0.480383 0.939408 -0.280029
O22   O     O_R   0.762264 0.592255 0.848854 -0.394287
N10   N     N_R   0.673042 0.307696 0.917171 0.213357
O23   O     O_R   0.658489 0.200933 0.961838 -0.286044
O24   O     O_R   0.698976 0.288423 0.837849 -0.378289
C31   C     C_3   0.125394 0.249204 0.575340 -0.681639
H15   H     H_    0.216202 0.268820 0.611587 0.207534
H16   H     H_    0.061371 0.205204 0.621379 0.241814
H17   H     H_    0.140400 0.174362 0.523602 0.294808
C32   C     C_3   0.134096 0.748910 0.587676 -0.690622
H18   H     H_    0.227991 0.727795 0.618502 0.207129
H19   H     H_    0.144315 0.825713 0.538384 0.285214
H20   H     H_    0.077168 0.790939 0.639342 0.248570
N11   N     N_R   0.889340 0.256348 0.468584 0.249180
O25   O     O_R   0.894377 0.141935 0.507070 -0.343542
O26   O     O_R   0.841666 0.258850 0.391149 -0.255598
N12   N     N_R   0.887965 0.753487 0.499901 0.243967
O27   O     O_R   0.882802 0.850507 0.556504 -0.388825
O28   O     O_R   0.850351 0.776064 0.421889 -0.249485
C33   C     C_3   0.652985 0.148562 0.627175 -0.641212
H21   H     H_    0.672299 0.253096 0.613465 0.273018
H22   H     H_    0.610598 0.143898 0.690184 0.225967
H23   H     H_    0.748884 0.104010 0.630326 0.252288
C34   C     C_3   0.620718 0.857847 0.639487 -0.663733
H24   H     H_    0.673687 0.768223 0.619317 0.286227
H25   H     H_    0.689407 0.916314 0.680267 0.220619
H26   H     H_    0.543655 0.831534 0.681594 0.206223

loop_
_geom_bond_atom_site_label_1
_geom_bond_atom_site_label_2
_geom_bond_distance
_ccdc_geom_bond_type
C5    C8    1.599221 S    
N2    C26   1.368519 A    
N5    O13   1.299144 A    
N3    O9    1.300492 A    
C23   C24   1.430164 A    
C6    C28   1.572375 S    
C5    C27   1.562346 S    
C9    C14   1.184346 T    
C31   H15   1.110075 S    
C33   H23   1.108046 S    
C27   H4    1.108848 S    
C32   H18   1.109555 S    
C8    C30   1.553979 S    
Zn1   O7    1.984407 S    
C7    C11   1.592576 S    
C4    C9    1.394179 S    
C24   N1    1.375947 A    
O4    C2    1.291019 A    
O7    C4    1.288336 A    
N10   O24   1.302877 A    
N6    O16   1.301454 A    
C7    H2    1.110946 S    
N7    O18   1.299177 A    
C8    H1    1.113699 S    
C11   C14   1.450847 S    
C29   H10   1.104809 S    
O5    C3    1.295205 A    
C7    C29   1.556207 S    
C5    C10   1.642652 S    
C2    C16   1.398850 S    
C33   H21   1.084526 S    
C6    C7    1.583568 S    
C19   N11   1.442652 S    
C10   C13   1.639205 S    
C11   C12   1.605315 S    
C19   C21   1.414907 A    
N11   O26   1.301727 A    
N3    O10   1.299760 A    
N7    O17   1.303463 A    
Zn2   N2    2.024236 S    
O3    Zn1   1.966552 S    
C31   H16   1.110272 S    
N4    O12   1.298668 A    
C27   H5    1.111073 S    
C32   H19   1.109705 S    
N1    C25   1.371348 A    
C18   C22   1.403352 A    
C8    C11   1.581786 S    
C23   N2    1.381229 A    
C12   C13   1.640380 S    
N8    O20   1.303221 A    
C25   C26   1.424271 A    
N10   O23   1.298102 A    
C1    C22   1.454133 S    
C30   H13   1.099431 S    
N6    O15   1.301051 A    
C17   C22   1.404116 A    
C28   H6    1.107863 S    
O1    C1    1.300232 A    
C29   H11   1.110493 S    
N9    O21   1.302635 A    
C3    C21   1.455835 S    
C27   H3    1.102779 S    
Zn2   O8    1.966715 S    
C30   H14   1.108018 S    
N12   O28   1.301440 A    
Zn1   N1    2.024252 S    
C13   N8    1.488993 S    
C18   C32   1.516244 S    
N9    O22   1.300451 A    
C12   N10   1.493135 S    
C34   H25   1.102499 S    
O8    C4    1.289931 A    
C17   C31   1.514370 S    
C10   C15   1.452456 S    
N5    O14   1.300287 A    
C5    N6    1.498268 S    
O3    C2    1.290695 A    
C13   N7    1.494776 S    
C31   H17   1.107459 S    
N4    O11   1.299098 A    
C32   H20   1.109344 S    
Zn1   O5    1.977402 S    
C6    C10   1.627852 S    
O1    Zn1   1.974064 S    
O2    Zn2   1.977466 S    
N8    O19   1.301021 A    
O6    C3    1.301423 A    
O4    Zn2   1.984199 S    
C33   H22   1.110344 S    
C12   N9    1.485807 S    
C23   C33   1.511484 S    
C34   H24   1.101145 S    
C28   H8    1.111732 S    
C20   C21   1.420273 A    
O2    C1    1.296847 A    
C6    N5    1.491183 S    
C17   C19   1.390959 A    
C18   C20   1.391968 A    
C20   N12   1.439764 S    
N12   O27   1.300290 A    
C24   C34   1.513598 S    
C29   H9    1.110794 S    
C26   N4    1.427150 S    
C34   H26   1.108303 S    
C25   N3    1.428510 S    
Zn2   O6    1.974009 S    
C30   H12   1.110783 S    
C15   C16   1.187821 T    
C28   H7    1.099944 S    
N11   O25   1.299840 A    
