data_mof_unit_30931.cif
_audit_creation_date              2012-12-11T16:27:29-0500
_audit_creation_method            fapswitch 2.2
_symmetry_space_group_name_H-M    P1
_symmetry_Int_Tables_number       1
_space_group_crystal_system       triclinic
_cell_length_a                    21.688908
_cell_length_b                    6.998062
_cell_length_c                    14.82185
_cell_angle_alpha                 90.000111
_cell_angle_beta                  105.954204
_cell_angle_gamma                 90.000016
_cell_volume                      2163.0119081

loop_
_atom_site_label
_atom_site_type_symbol
_atom_type_description
_atom_site_fract_x
_atom_site_fract_y
_atom_site_fract_z
_atom_type_partial_charge
O1    O     O_R   0.835850 0.638310 0.002120 -0.541883
O2    O     O_R   0.164150 0.361690 0.997880 -0.520270
O3    O     O_R   0.664150 0.138310 0.997880 -0.541882
O4    O     O_R   0.335850 0.861690 0.002120 -0.520268
O5    O     O_R   0.717530 0.306070 0.861970 -0.541139
O6    O     O_R   0.282470 0.693930 0.138030 -0.515973
O7    O     O_R   0.782470 0.806070 0.138030 -0.541141
O8    O     O_R   0.217530 0.193930 0.861970 -0.515972
C1    C     C_R   0.704578 0.477222 0.824995 0.716762
C2    C     C_R   0.295136 0.523239 0.175125 0.727146
C3    C     C_R   0.795422 0.977222 0.175005 0.716768
C4    C     C_R   0.204864 0.023239 0.824875 0.727143
O9    O     O_R   0.838690 0.308440 0.993250 -0.528393
O10   O     O_R   0.161310 0.691560 0.006750 -0.546859
O11   O     O_R   0.661310 0.808440 0.006750 -0.528396
O12   O     O_R   0.338690 0.191560 0.993250 -0.546859
O13   O     O_R   0.786170 0.140510 0.130090 -0.513117
O14   O     O_R   0.213830 0.859490 0.869910 -0.539314
O15   O     O_R   0.713830 0.640510 0.869910 -0.513117
O16   O     O_R   0.286170 0.359490 0.130090 -0.539314
C5    C     C_R   0.866170 0.477311 0.003957 0.759150
C6    C     C_R   0.133513 0.523785 0.994485 0.751004
C7    C     C_R   0.633830 0.977310 0.996042 0.759156
C8    C     C_R   0.366487 0.023785 0.005514 0.751000
O17   O     O_3   0.732630 0.472520 0.044740 -0.366378
O18   O     O_3   0.267370 0.527480 0.955260 -0.368965
O19   O     O_3   0.767370 0.972520 0.955260 -0.366374
O20   O     O_3   0.232630 0.027480 0.044740 -0.368968
V1    V     V_3+5 0.753220 0.196740 0.991700 1.533850
V2    V     V_3+5 0.246780 0.803260 0.008300 1.533365
V3    V     V_3+5 0.746780 0.696740 0.008300 1.533843
V4    V     V_3+5 0.253220 0.303260 0.991700 1.533365
H1    H     H_    0.635039 0.062406 0.314805 0.111147
H2    H     H_    0.366594 0.009418 0.684261 0.109438
H3    H     H_    0.864961 0.562390 0.685193 0.111147
H4    H     H_    0.133405 0.509447 0.315738 0.109438
C9    C     C_R   0.522153 0.987853 0.815132 0.022104
C10   C     C_R   0.479181 0.031292 0.185727 0.032441
C11   C     C_R   0.977846 0.487865 0.184866 0.022114
C12   C     C_R   0.020818 0.531285 0.814271 0.032437
C13   C     C_R   0.468197 0.992114 0.736751 -0.061777
C14   C     C_R   0.533235 0.047231 0.263547 -0.067742
C15   C     C_R   0.031802 0.492135 0.263247 -0.061770
C16   C     C_R   0.966765 0.547220 0.736451 -0.067747
C17   C     C_R   0.407068 0.004082 0.746213 -0.104667
C18   C     C_R   0.594328 0.048754 0.253522 -0.112082
C19   C     C_R   0.092931 0.504105 0.253786 -0.104670
C20   C     C_R   0.905672 0.548741 0.746476 -0.112078
C21   C     C_R   0.397427 0.008922 0.834235 -0.118881
C22   C     C_R   0.603704 0.027824 0.165879 -0.117304
C23   C     C_R   0.102573 0.508937 0.165764 -0.118884
C24   C     C_R   0.896296 0.527814 0.834119 -0.117300
C25   C     C_R   0.449167 0.003374 0.917223 0.060208
C26   C     C_R   0.551674 0.010261 0.083609 0.052596
C27   C     C_R   0.050833 0.503382 0.082776 0.060206
C28   C     C_R   0.948326 0.510256 0.916390 0.052598
C29   C     C_R   0.513754 0.991180 0.909452 0.001562
C30   C     C_R   0.487141 0.016367 0.091575 -0.003047
C31   C     C_R   0.986246 0.491186 0.090546 0.001559
C32   C     C_R   0.012859 0.516363 0.908424 -0.003046
C33   C     C_R   0.435548 0.013170 0.006167 -0.173927
C34   C     C_R   0.565044 0.990131 0.995034 -0.181116
C35   C     C_R   0.064452 0.513170 0.993832 -0.173927
C36   C     C_R   0.934956 0.490131 0.004965 -0.181115
H5    H     H_    0.473235 0.987365 0.665970 0.134740
H6    H     H_    0.528372 0.057329 0.334288 0.139528
H7    H     H_    0.026763 0.487391 0.334028 0.134736
H8    H     H_    0.971627 0.557315 0.665710 0.139528
H9    H     H_    0.347965 0.018485 0.835438 0.078052
H10   H     H_    0.653214 0.027239 0.164375 0.080078
H11   H     H_    0.152034 0.518501 0.164561 0.078054
H12   H     H_    0.846786 0.527228 0.835624 0.080077
C37   C     C_R   0.177975 0.013838 0.722925 -0.028829
C38   C     C_R   0.823012 0.985292 0.276758 -0.029009
C39   C     C_R   0.322024 0.513839 0.277075 -0.028830
C40   C     C_R   0.676987 0.485291 0.723242 -0.029008
C41   C     C_R   0.187135 0.922186 0.570951 -0.160585
C42   C     C_R   0.814378 0.926755 0.432375 -0.158822
C43   C     C_R   0.312863 0.422189 0.429049 -0.160583
C44   C     C_R   0.685620 0.426752 0.567626 -0.158824
C45   C     C_R   0.213854 0.935299 0.667324 -0.219648
C46   C     C_R   0.787153 0.923643 0.336002 -0.217957
C47   C     C_R   0.286145 0.435301 0.332676 -0.219650
C48   C     C_R   0.712845 0.423641 0.663998 -0.217953
C49   C     C_R   0.114468 0.070282 0.681559 -0.097960
C50   C     C_R   0.886966 0.041643 0.314695 -0.095106
C51   C     C_R   0.385531 0.570283 0.318442 -0.097959
C52   C     C_R   0.613033 0.541643 0.685306 -0.095111
C53   C     C_R   0.082532 0.021361 0.588276 0.086006
C54   C     C_R   0.919149 0.010100 0.409968 0.083856
C55   C     C_R   0.417467 0.521362 0.411724 0.086004
C56   C     C_R   0.580850 0.510099 0.590033 0.083861
C57   C     C_R   0.122048 0.966553 0.531296 0.115450
C58   C     C_R   0.879694 0.971379 0.469434 0.116905
C59   C     C_R   0.377950 0.466555 0.468705 0.115449
C60   C     C_R   0.620305 0.471377 0.530566 0.116905
C61   C     C_R   0.013827 0.020315 0.549943 -0.018927
C62   C     C_R   0.987940 0.011476 0.448342 -0.023693
C63   C     C_R   0.486172 0.520316 0.450058 -0.018928
C64   C     C_R   0.512059 0.511475 0.551659 -0.023689
C65   C     C_R   0.032521 0.990155 0.391739 -0.007848
C66   C     C_R   0.969461 0.012956 0.607443 -0.008183
C67   C     C_R   0.467478 0.490151 0.608261 -0.007848
C68   C     C_R   0.530538 0.512959 0.392557 -0.008183
C69   C     C_R   0.097229 0.957572 0.435258 -0.242151
C70   C     C_R   0.904688 0.978640 0.565472 -0.246516
C71   C     C_R   0.402770 0.457571 0.564743 -0.242152
C72   C     C_R   0.595310 0.478639 0.434528 -0.246515
H13   H     H_    0.129550 0.923876 0.392946 0.145740
H14   H     H_    0.872406 0.956130 0.609093 0.146593
H15   H     H_    0.370449 0.423875 0.607054 0.145743
H16   H     H_    0.627593 0.456130 0.390907 0.146592
H17   H     H_    0.910492 0.109990 0.268936 0.145590
H18   H     H_    0.090612 0.150723 0.722949 0.150542
H19   H     H_    0.589507 0.609991 0.731065 0.145578
H20   H     H_    0.409387 0.650725 0.277052 0.150547
H21   H     H_    0.737755 0.879210 0.307888 0.120106
H22   H     H_    0.262768 0.889412 0.698021 0.117303
H23   H     H_    0.762243 0.379206 0.692112 0.120105
H24   H     H_    0.237231 0.389415 0.301978 0.117305
H25   H     H_    0.216822 0.872205 0.527669 0.121501
H26   H     H_    0.784763 0.889684 0.477987 0.120745
H27   H     H_    0.283177 0.372208 0.472330 0.121501
H28   H     H_    0.715235 0.389681 0.522013 0.120744
C73   C     C_2   0.583352 0.990469 0.787745 0.712696
O21   O     O_2   0.627283 0.885994 0.825261 -0.570734
O22   O     O_R   0.587715 0.095623 0.709392 -0.642703
H29   H     H_    0.630163 0.077087 0.694251 0.300246
C74   C     C_2   0.418203 0.028415 0.213000 0.708122
O23   O     O_2   0.376614 0.914893 0.177853 -0.571710
O24   O     O_R   0.411756 0.137205 0.289036 -0.644537
H30   H     H_    0.369911 0.111994 0.304952 0.300420
C75   C     C_2   0.916647 0.490473 0.212250 0.712688
O25   O     O_2   0.872721 0.385979 0.174739 -0.570739
O26   O     O_R   0.912279 0.595644 0.290597 -0.642699
H31   H     H_    0.869831 0.577098 0.305738 0.300245
C76   C     C_2   0.081797 0.528413 0.786997 0.708123
O27   O     O_2   0.123388 0.414899 0.822146 -0.571709
O28   O     O_R   0.088242 0.637200 0.710959 -0.644538
H32   H     H_    0.130087 0.611993 0.695043 0.300421
C77   C     C_2   0.018239 0.982378 0.287533 0.716213
O29   O     O_2   0.976838 0.877622 0.240982 -0.559381
O30   O     O_R   0.057960 0.080523 0.243305 -0.670783
H33   H     H_    0.045360 0.060056 0.172856 0.298946
C78   C     C_2   0.983983 0.021951 0.711825 0.718773
O31   O     O_2   0.026101 0.924863 0.762425 -0.559548
O32   O     O_R   0.943717 0.127553 0.752144 -0.670630
H34   H     H_    0.956024 0.116529 0.823085 0.299177
C79   C     C_2   0.481761 0.482365 0.712467 0.716213
O33   O     O_2   0.523163 0.377609 0.759016 -0.559384
O34   O     O_R   0.442040 0.580501 0.756699 -0.670783
H35   H     H_    0.454641 0.560029 0.827147 0.298946
C80   C     C_2   0.516016 0.521958 0.288176 0.718773
O35   O     O_2   0.473899 0.424870 0.237575 -0.559547
O36   O     O_R   0.556282 0.627563 0.247858 -0.670630
H36   H     H_    0.543976 0.616542 0.176917 0.299177

loop_
_geom_bond_atom_site_label_1
_geom_bond_atom_site_label_2
_ccdc_geom_bond_type
O17   V3    S    
C16   C20   A    
O1    C5    A    
C8    C33   S    
C12   C32   A    
C27   C31   A    
O19   V1    S    
O13   V1    S    
O3    C7    A    
O32   H34   S    
C56   C60   A    
C44   C48   A    
O15   V3    S    
C40   C48   A    
C61   C62   A    
O26   H31   S    
O7    C3    A    
C76   O28   S    
C31   C36   A    
C22   C26   A    
C32   C35   A    
O9    V1    S    
C49   H18   S    
O10   V2    S    
C10   C14   A    
C51   C55   A    
C79   O34   S    
C66   C78   S    
O16   V4    S    
O4    C8    A    
O30   H33   S    
O1    V3    S    
H4    C19   S    
O2    V4    S    
C14   C18   A    
C41   C57   A    
O3    V1    S    
C5    C36   S    
C57   C69   A    
C6    C35   S    
C10   C30   A    
C25   C33   A    
C1    O15   A    
C7    C34   S    
C58   C70   A    
C52   C56   A    
C2    O16   A    
C27   C35   A    
O2    C6    A    
O34   H35   S    
C28   C36   A    
C54   C58   A    
O14   V2    S    
C1    C40   S    
C17   C21   A    
C68   C80   S    
C44   C60   A    
C40   C52   A    
C12   C16   A    
O5    V1    S    
C61   C66   A    
C71   H15   S    
C30   C33   A    
O11   C7    A    
C63   C68   A    
C60   C72   A    
O12   C8    A    
C21   H9    S    
C4    C37   S    
O17   V1    S    
H1    C18   S    
C23   H11   S    
C38   C46   A    
H3    C20   S    
C37   C45   A    
C78   O32   S    
C78   O31   D    
C9    C73   S    
C65   C69   A    
O7    V3    S    
O19   V3    S    
O8    V4    S    
C10   C74   S    
O20   V4    S    
C50   C54   A    
C25   C29   A    
O18   V4    S    
C13   H5    S    
C26   C34   A    
C29   C34   A    
C43   H27   S    
C45   H22   S    
C64   C67   A    
C72   H16   S    
C53   C61   A    
C47   H24   S    
C15   H7    S    
C43   C59   A    
C24   H12   S    
C2    C39   S    
C42   C46   A    
C63   C64   A    
C41   C45   A    
O8    C4    A    
C11   C31   A    
C12   C76   S    
C26   C30   A    
O9    C5    A    
H2    C17   S    
C38   C50   A    
C73   O22   S    
C37   C49   A    
C51   H20   S    
C59   C71   A    
C39   C51   A    
O6    V2    S    
O18   V2    S    
C50   H17   S    
C75   O25   D    
C16   H8    S    
C80   O36   S    
O24   H30   S    
C9    C13   A    
C68   C72   A    
C56   C64   A    
C75   O26   S    
C74   O23   D    
C44   H28   S    
C69   H13   S    
C3    O13   A    
C49   C53   A    
C65   C77   S    
O5    C1    A    
C3    C38   S    
O6    C2    A    
C19   C23   A    
O28   H32   S    
O11   V3    S    
O12   V4    S    
C62   C65   A    
C11   C75   S    
C76   O27   D    
C18   C22   A    
O10   C6    A    
C52   H19   S    
C77   O30   S    
C22   H10   S    
C77   O29   D    
C43   C47   A    
C39   C47   A    
C73   O21   D    
C42   C58   A    
C48   H23   S    
C21   C25   A    
O20   V2    S    
C66   C70   A    
C23   C27   A    
C53   C57   A    
C42   H26   S    
O4    V2    S    
C41   H25   S    
C67   C79   S    
C55   C59   A    
C24   C28   A    
C20   C24   A    
C28   C32   A    
C11   C15   A    
C70   H14   S    
C4    O14   A    
O36   H36   S    
C14   H6    S    
C13   C17   A    
C67   C71   A    
C46   H21   S    
C55   C63   A    
C80   O35   D    
C79   O33   D    
C15   C19   A    
C54   C62   A    
C9    C29   A    
O22   H29   S    
C74   O24   S    
