data_mof_unit_41580.cif
_audit_creation_date              2012-12-10T17:02:17-0500
_audit_creation_method            fapswitch 2.2
_symmetry_space_group_name_H-M    P1
_symmetry_Int_Tables_number       1
_space_group_crystal_system       triclinic
_cell_length_a                    10.625873
_cell_length_b                    10.719419
_cell_length_c                    10.059824
_cell_angle_alpha                 88.905731
_cell_angle_beta                  89.646065
_cell_angle_gamma                 90.014181
_cell_volume                      1145.61508754

loop_
_atom_site_label
_atom_site_type_symbol
_atom_type_description
_atom_site_fract_x
_atom_site_fract_y
_atom_site_fract_z
_atom_type_partial_charge
C1    C     C_R   0.507127 0.263072 0.501284 0.886886
C2    C     C_2   0.533917 0.133265 0.506021 -0.250752
C3    C     C_2   0.573460 0.570051 0.922813 -0.153386
C4    C     C_R   0.260767 0.499816 0.500268 0.863544
C5    C     C_2   0.581852 0.560910 0.072276 -0.015196
C6    C     C_R   0.498391 0.737302 0.498566 0.867711
C7    C     C_R   0.739197 0.498315 0.499708 0.875683
C8    C     C_R   0.131915 0.271047 0.563803 -0.204167
C9    C     C_R   0.067071 0.160630 0.592932 -0.235208
C10   C     C_R   0.935045 0.158908 0.592670 0.505226
C11   C     C_R   0.869714 0.268961 0.563187 -0.177615
C12   C     C_R   0.066105 0.382597 0.533264 0.072621
C13   C     C_R   0.934464 0.381266 0.532770 -0.000888
C14   C     C_1   0.126020 0.720086 0.427789 0.163498
C15   C     C_1   0.685848 0.624808 0.131678 0.318478
C16   C     C_R   0.128095 0.495632 0.500456 -0.114293
C17   C     C_R   0.062812 0.604735 0.464498 -0.028791
C18   C     C_R   0.933820 0.602418 0.464672 -0.219346
C19   C     C_R   0.871314 0.492734 0.499246 -0.083373
C20   C     C_2   0.558351 0.934732 0.404538 0.419801
C21   C     C_2   0.486400 0.870130 0.492691 0.242138
C22   C     C_2   0.545290 0.069173 0.394917 -0.225075
H1    H     H_    0.546480 0.089240 0.603361 0.206167
H2    H     H_    0.927005 0.982113 0.637462 0.332474
H3    H     H_    0.688462 0.937954 0.268094 0.341721
H4    H     H_    0.348056 0.863722 0.621240 0.339798
H5    H     H_    0.635287 0.635585 0.870928 0.171698
H6    H     H_    0.449433 0.433031 0.899914 0.167883
H7    H     H_    0.423895 0.463224 0.103580 0.161833
H8    H     H_    0.233626 0.267736 0.564174 0.167070
H9    H     H_    0.119939 0.076486 0.615147 0.169515
H10   H     H_    0.768123 0.265297 0.563115 0.144977
H11   H     H_    0.881425 0.686430 0.439086 0.177478
H12   H     H_    0.544424 0.113841 0.297032 0.166771
N1    N     N_2   0.501340 0.501330 0.852150 -0.190701
N2    N     N_2   0.501380 0.501360 0.147810 -0.212983
N3    N     N_1   0.176139 0.812398 0.398016 -0.177814
N4    N     N_1   0.770485 0.676083 0.177593 -0.175439
O1    O     O_R   0.499980 0.319060 0.613040 -0.620079
O2    O     O_3   0.643828 0.874428 0.323760 -0.781164
O3    O     O_3   0.394094 0.927887 0.567784 -0.808428
O4    O     O_R   0.500020 0.319100 0.386900 -0.612982
O5    O     O_R   0.316750 0.499980 0.613090 -0.613243
O6    O     O_R   0.316790 0.500020 0.386950 -0.609637
O7    O     O_R   0.499980 0.680900 0.613100 -0.627292
O8    O     O_R   0.500020 0.680940 0.386960 -0.569923
O9    O     O_R   0.683210 0.499980 0.613050 -0.612712
O10   O     O_R   0.683250 0.500020 0.386910 -0.606700
O11   O     O_3   0.867315 0.051539 0.619918 -0.773887
Zn1   Zn    Zn3+2 0.499970 0.499970 0.650990 0.957211
Zn2   Zn    Zn3+2 0.500030 0.500030 0.349010 0.980892

loop_
_geom_bond_atom_site_label_1
_geom_bond_atom_site_label_2
_ccdc_geom_bond_type
C2    C22   D    
O5    Zn1   S    
C4    C16   S    
C6    O7    A    
C4    O6    A    
C9    C10   A    
H7    N2    S    
C20   O2    S    
C3    N1    D    
O4    Zn2   S    
C8    C12   A    
C8    H8    S    
C7    O10   A    
N1    Zn1   S    
C3    H5    S    
C17   C18   A    
C8    C9    A    
C15   N4    T    
C12   C13   A    
C14   N3    T    
C11   C13   A    
C14   C17   S    
C10   O11   S    
N2    Zn2   S    
O7    Zn1   S    
C21   O3    S    
O6    Zn2   S    
C4    O5    A    
C20   C22   S    
C11   H10   S    
C1    C2    S    
O9    Zn1   S    
C7    C19   S    
H3    O2    S    
C22   H12   S    
C18   H11   S    
C5    C15   S    
C10   C11   A    
C1    O1    A    
C5    N2    D    
C1    O4    A    
H2    O11   S    
O1    Zn1   S    
C20   C21   D    
H4    O3    S    
C18   C19   A    
C2    H1    S    
C13   C19   A    
C16   C17   A    
C6    O8    A    
C6    C21   S    
O8    Zn2   S    
O10   Zn2   S    
C12   C16   A    
H6    N1    S    
C9    H9    S    
C3    C5    S    
C7    O9    A    
