data_mof_unit_30749.cif
_audit_creation_date              2012-12-10T17:04:32-0500
_audit_creation_method            fapswitch 2.2
_symmetry_space_group_name_H-M    P1
_symmetry_Int_Tables_number       1
_space_group_crystal_system       triclinic
_cell_length_a                    15.003255
_cell_length_b                    10.756521
_cell_length_c                    9.979977
_cell_angle_alpha                 90.377148
_cell_angle_beta                  90.0371
_cell_angle_gamma                 89.588163
_cell_volume                      1610.52011813

loop_
_atom_site_label
_atom_site_type_symbol
_atom_type_description
_atom_site_fract_x
_atom_site_fract_y
_atom_site_fract_z
_atom_type_partial_charge
C1    C     C_R   0.500139 0.262614 0.498911 0.900916
C2    C     C_R   0.905474 0.545270 0.394109 0.136330
C3    C     C_R   0.956257 0.422159 0.733780 -0.194628
C4    C     C_R   0.048532 0.433069 0.738438 0.441258
C5    C     C_R   0.094130 0.472381 0.622465 -0.021966
C6    C     C_R   0.046050 0.511899 0.508243 -0.029851
C7    C     C_R   0.090747 0.557941 0.393911 0.020634
C8    C     C_R   0.041924 0.598688 0.282363 -0.118073
C9    C     C_R   0.949743 0.593603 0.283182 -0.158956
C10   C     C_R   0.186459 0.470808 0.616097 -0.231924
C11   C     C_R   0.230663 0.511368 0.501700 -0.208540
C12   C     C_R   0.326600 0.503078 0.500048 0.873504
C13   C     C_R   0.183605 0.561368 0.392733 0.468052
C14   C     C_2   0.511926 0.933539 0.391425 0.301915
C15   C     C_2   0.537443 0.862385 0.495676 0.177512
C16   C     C_2   0.533098 0.064235 0.398492 0.197108
C17   C     C_2   0.489599 0.130990 0.493059 0.280106
C18   C     C_2   0.551856 0.572013 0.924531 0.598021
C19   C     C_2   0.537338 0.585841 0.075174 -0.277033
C20   C     C_R   0.506077 0.737019 0.499879 0.893030
C21   C     C_R   0.673212 0.493560 0.500262 1.003245
C22   C     C_R   0.813734 0.540342 0.394480 -0.258557
C23   C     C_R   0.769071 0.485547 0.501157 -0.170474
C24   C     C_R   0.816245 0.429962 0.608234 0.400302
C25   C     C_R   0.908291 0.450840 0.617120 -0.091192
C26   C     C_R   0.953202 0.503458 0.507010 0.039782
H1    H     H_    0.776851 0.580008 0.311259 0.172063
H2    H     H_    0.448402 0.458677 0.898771 0.122751
H3    H     H_    0.562267 0.667889 0.125979 0.180213
H4    H     H_    0.484670 0.419085 0.101198 0.197953
H5    H     H_    0.921953 0.393618 0.823375 0.246862
H6    H     H_    0.225117 0.434109 0.698371 0.243843
H7    H     H_    0.074653 0.634098 0.193904 0.208978
H8    H     H_    0.913090 0.625891 0.196296 0.154495
N1    N     N_2   0.500970 0.501330 0.852150 -0.196413
N2    N     N_2   0.500990 0.501360 0.147810 -0.176102
O1    O     O_R   0.499990 0.319060 0.613040 -0.564728
O2    O     O_R   0.500010 0.319100 0.386900 -0.613411
O3    O     O_R   0.367830 0.499950 0.613080 -0.645371
O4    O     O_R   0.367860 0.499990 0.386940 -0.563097
O5    O     O_R   0.499990 0.680900 0.613100 -0.554195
O6    O     O_R   0.500010 0.680940 0.386960 -0.608855
O7    O     O_R   0.632140 0.500010 0.613060 -0.522830
O8    O     O_R   0.632170 0.500050 0.386920 -0.614637
Zn1   Zn    Zn3+2 0.499980 0.499970 0.650990 1.098724
Zn2   Zn    Zn3+2 0.500020 0.500030 0.349010 1.037280
S1    S     S_3+6 0.620983 0.902828 0.615535 0.048886
O9    O     O_2   0.673792 0.014405 0.574845 -0.271933
O10   O     O_2   0.577536 0.928008 0.748679 -0.205276
O11   O     O_3   0.691078 0.781021 0.630595 -0.572957
H9    H     H_    0.748161 0.816797 0.661720 0.375521
S2    S     S_3+6 0.618279 0.120943 0.290427 0.062595
O12   O     O_2   0.576603 0.188875 0.174888 -0.272987
O13   O     O_2   0.678879 0.208288 0.364527 -0.239522
O14   O     O_3   0.678744 0.001148 0.229177 -0.540152
H10   H     H_    0.708185 0.963723 0.308220 0.370544
O15   O     O_3   0.433352 0.073052 0.584012 -0.593305
C27   C     C_3   0.345063 0.115658 0.565083 -0.257862
H11   H     H_    0.324150 0.107805 0.458220 0.147653
H12   H     H_    0.336672 0.212870 0.601712 0.167139
H13   H     H_    0.299844 0.056508 0.624655 0.216899
O16   O     O_3   0.615162 0.642072 0.857034 -0.517658
C28   C     C_3   0.688569 0.673077 0.939106 -0.148181
H14   H     H_    0.710260 0.594772 0.004252 0.152564
H15   H     H_    0.673222 0.757498 0.999749 0.165119
H16   H     H_    0.746014 0.695257 0.873949 0.195938
S3    S     S_3+6 0.764422 0.321922 0.719002 0.075336
O17   O     O_2   0.738309 0.388097 0.846205 -0.308475
O18   O     O_2   0.683217 0.265446 0.656232 -0.226026
O19   O     O_3   0.835910 0.205709 0.755580 -0.522291
H17   H     H_    0.803534 0.152758 0.819879 0.411943
S4    S     S_3+6 0.103826 0.397841 0.891261 0.011485
O20   O     O_2   0.037787 0.379937 0.002643 -0.281379
O21   O     O_2   0.157651 0.280534 0.873105 -0.303865
O22   O     O_3   0.172323 0.515232 0.932369 -0.570023
H18   H     H_    0.202508 0.487981 0.015560 0.402021
O23   O     O_3   0.228136 0.607569 0.282418 -0.610458
C29   C     C_3   0.245326 0.734695 0.305376 -0.210672
H19   H     H_    0.290930 0.748201 0.392171 0.176705
H20   H     H_    0.182577 0.788749 0.320888 0.140995
H21   H     H_    0.278603 0.772578 0.215503 0.215648
O24   O     O_3   0.443900 0.891712 0.306734 -0.655770
C30   C     C_3   0.447804 0.946828 0.179141 -0.186137
H22   H     H_    0.514983 0.935513 0.133438 0.225128
H23   H     H_    0.427096 0.046161 0.184107 0.182477
H24   H     H_    0.400059 0.898599 0.112157 0.176289

loop_
_geom_bond_atom_site_label_1
_geom_bond_atom_site_label_2
_ccdc_geom_bond_type
O14   H10   S    
C28   H15   S    
C15   S1    S    
C20   O5    A    
C7    C8    A    
S1    O10   D    
O23   C29   S    
O4    Zn2   S    
C19   N2    D    
C5    C6    A    
C29   H20   S    
C16   C17   D    
C27   H12   S    
C18   C19   S    
O6    Zn2   S    
C24   S3    S    
C21   O7    A    
C30   H22   S    
H2    N1    S    
S2    O13   D    
C8    C9    A    
C2    C22   A    
C23   C24   A    
N2    Zn2   S    
O19   H17   S    
C18   N1    D    
S2    O14   S    
C1    O1    A    
O3    Zn1   S    
C27   H13   S    
C28   H16   S    
S4    O22   S    
O8    Zn2   S    
S1    O11   S    
C15   C20   S    
C13   O23   S    
S3    O17   D    
C3    C25   A    
C24   C25   A    
S4    O21   D    
C29   H19   S    
S4    O20   D    
C25   C26   A    
S3    O18   D    
C12   O4    A    
O22   H18   S    
O16   C28   S    
C21   O8    A    
S1    O9    D    
O11   H9    S    
C2    C26   A    
C3    H5    S    
O7    Zn1   S    
C1    O2    A    
C30   H23   S    
C22   H1    S    
C21   C23   S    
C9    H8    S    
C14   C16   S    
C14   O24   S    
O1    Zn1   S    
C3    C4    A    
N1    Zn1   S    
C4    S4    S    
S2    O12   D    
C14   C15   D    
C18   O16   S    
C16   S2    S    
C4    C5    A    
C20   O6    A    
C11   C12   S    
C6    C7    A    
C1    C17   S    
H4    N2    S    
S3    O19   S    
C12   O3    A    
C27   H11   S    
C5    C10   A    
C11   C13   A    
C29   H21   S    
O15   C27   S    
C6    C26   A    
C8    H7    S    
O2    Zn2   S    
C10   C11   A    
C28   H14   S    
C10   H6    S    
C7    C13   A    
C30   H24   S    
O24   C30   S    
O5    Zn1   S    
C22   C23   A    
C2    C9    A    
C17   O15   S    
C19   H3    S    
