data_mof_unit_40581.cif
_audit_creation_date              2012-12-11T15:59:38-0500
_audit_creation_method            fapswitch 2.2
_symmetry_space_group_name_H-M    P1
_symmetry_Int_Tables_number       1
_space_group_crystal_system       triclinic
_cell_length_a                    10.752776
_cell_length_b                    10.766571
_cell_length_c                    17.061591
_cell_angle_alpha                 99.22809
_cell_angle_beta                  100.05627
_cell_angle_gamma                 60.669432
_cell_volume                      1689.11037566

loop_
_atom_site_label
_atom_site_type_symbol
_atom_type_description
_atom_site_fract_x
_atom_site_fract_y
_atom_site_fract_z
_atom_type_partial_charge
C1    C     C_R   0.355815 0.770350 0.398093 0.546403
C2    C     C_R   0.854150 0.204582 0.197023 0.029809
C3    C     C_R   0.863288 0.215664 0.281100 0.019554
C4    C     C_R   0.764681 0.473256 0.280877 -0.152923
C5    C     C_R   0.775233 0.459850 0.200820 -0.158858
C6    C     C_R   0.874617 0.072549 0.154927 -0.060204
C7    C     C_R   0.924972 0.951354 0.195221 -0.135295
C8    C     C_R   0.949542 0.960022 0.278150 -0.104674
C9    C     C_R   0.918789 0.090814 0.321099 -0.067836
C10   C     C_R   0.813319 0.352229 0.322467 0.005487
C11   C     C_R   0.354702 0.814031 0.156692 0.009541
C12   C     C_R   0.369098 0.346898 0.357496 0.558359
C13   C     C_R   0.452344 0.841100 0.214233 0.009043
C14   C     C_R   0.439031 0.849882 0.296103 -0.036749
C15   C     C_R   0.276175 0.747841 0.257763 -0.135857
C16   C     C_R   0.278048 0.754616 0.178522 -0.145394
C17   C     C_R   0.566222 0.853027 0.192385 -0.143854
C18   C     C_R   0.662723 0.875286 0.250240 -0.109092
C19   C     C_R   0.645531 0.892576 0.331002 0.291717
C20   C     C_R   0.526972 0.891696 0.353298 -0.080043
C21   C     C_R   0.347017 0.804410 0.317571 0.011090
C22   C     C_R   0.302329 0.296942 0.803288 0.000097
C23   C     C_R   0.772570 0.379415 0.402463 0.532154
C24   C     C_R   0.400949 0.184170 0.756173 -0.019681
C25   C     C_R   0.474947 0.210917 0.707184 0.064384
C26   C     C_R   0.290031 0.464119 0.720708 -0.170212
C27   C     C_R   0.247368 0.437946 0.785747 -0.140652
C28   C     C_R   0.429276 0.044365 0.760117 -0.104392
C29   C     C_R   0.552663 0.929317 0.735557 -0.124138
C30   C     C_R   0.646145 0.952654 0.702325 -0.111904
C31   C     C_R   0.610944 0.092703 0.685399 0.308946
C32   C     C_R   0.400219 0.351923 0.679315 0.005224
C33   C     C_1   0.843605 0.331375 0.706353 -0.021562
C34   C     C_R   0.381460 0.714481 0.631646 0.542760
C35   C     C_1   0.891139 0.295849 0.772874 -0.028637
C36   C     C_1   0.358754 0.761147 0.714397 -0.074108
C37   C     C_1   0.326339 0.806848 0.781529 -0.069265
C38   C     C_R   0.891055 0.308365 0.086710 0.554777
C39   C     C_R   0.319614 0.299464 0.119986 0.563267
C40   C     C_R   0.298724 0.885979 0.083459 0.550674
C41   C     C_R   0.942497 0.274217 0.854901 0.541128
C42   C     C_R   0.282205 0.262510 0.877908 0.526070
C43   C     C_R   0.281768 0.878793 0.858480 0.526428
C44   C     C_R   0.413303 0.375187 0.599695 0.562210
C45   C     C_R   0.776014 0.379612 0.629488 0.535053
C46   C     C_1   0.342648 0.337362 0.274055 -0.037451
C47   C     C_1   0.332495 0.326272 0.203232 -0.035265
C48   C     C_R   0.826977 0.325821 0.158911 -0.001238
Cr1   Cr    Cr6+3 0.608100 0.610860 0.522250 0.990563
Cr2   Cr    Cr6+3 0.288890 0.599990 0.488420 0.950186
Cr3   Cr    Cr6+3 0.603040 0.289190 0.489390 1.055900
Cr4   Cr    Cr6+3 0.053960 0.052250 0.967380 1.014671
Cr5   Cr    Cr6+3 0.059890 0.373160 0.992710 1.009999
Cr6   Cr    Cr6+3 0.373370 0.061690 0.991710 1.009475
H1    H     H_    0.715184 0.580344 0.309756 0.139957
H2    H     H_    0.756840 0.868007 0.232338 0.122476
H3    H     H_    0.513713 0.911612 0.416167 0.148550
H4    H     H_    0.235660 0.571538 0.701979 0.134895
H5    H     H_    0.354911 0.027460 0.784565 0.134512
H6    H     H_    0.169906 0.526544 0.820741 0.145283
H7    H     H_    0.579745 0.821828 0.745511 0.145614
H8    H     H_    0.744888 0.857688 0.689683 0.086355
H9    H     H_    0.847441 0.061543 0.091137 0.142963
H10   H     H_    0.748105 0.554067 0.172169 0.134510
H11   H     H_    0.943416 0.850448 0.161964 0.094804
H12   H     H_    0.988234 0.865861 0.309403 0.135249
H13   H     H_    0.939307 0.092985 0.385548 0.121083
H14   H     H_    0.218228 0.697020 0.271777 0.137137
H15   H     H_    0.591584 0.829882 0.131415 0.139191
H16   H     H_    0.211251 0.722287 0.134435 0.132457
O1    O     O_R   0.749810 0.499790 0.438040 -0.545972
O2    O     O_R   0.298970 0.468800 0.557390 -0.528586
O3    O     O_R   0.489400 0.255930 0.561910 -0.465024
O4    O     O_R   0.723890 0.306050 0.584610 -0.478393
O5    O     O_3   0.500010 0.500010 0.500020 -0.280818
O6    O     O_R   0.171100 0.914680 0.053100 -0.516795
O7    O     O_R   0.941680 0.184840 0.050710 -0.506413
O8    O     O_R   0.922080 0.403420 0.072610 -0.515312
O9    O     O_R   0.196880 0.369150 0.083850 -0.498005
O10   O     O_R   0.411730 0.181020 0.091530 -0.501981
O11   O     O_R   0.365010 0.944360 0.063320 -0.506407
O12   O     O_R   0.477660 0.726260 0.439290 -0.504642
O13   O     O_R   0.159380 0.906670 0.876210 -0.513304
O14   O     O_R   0.930820 0.177420 0.886730 -0.478993
O15   O     O_R   0.910360 0.395420 0.895720 -0.512079
O16   O     O_R   0.186010 0.361730 0.919870 -0.514501
O17   O     O_R   0.400000 0.173010 0.914630 -0.496954
O18   O     O_R   0.354140 0.936940 0.899340 -0.524200
O19   O     O_3   0.162410 0.162370 0.983930 -0.279064
O20   O     O_R   0.260150 0.743000 0.412270 -0.545095
O21   O     O_R   0.297740 0.466550 0.394720 -0.522388
O22   O     O_R   0.488080 0.253500 0.386430 -0.479288
O23   O     O_R   0.722670 0.303800 0.421940 -0.501827
O24   O     O_R   0.751130 0.502220 0.613520 -0.525310
O25   O     O_R   0.478890 0.728510 0.601960 -0.485947
O26   O     O_R   0.261470 0.745430 0.587750 -0.541248
O27   O     O_3   0.756839 0.884843 0.388165 -0.574693
C49   C     C_3   0.850818 0.737647 0.396434 -0.071067
H17   H     H_    0.891410 0.679446 0.338462 0.120991
H18   H     H_    0.795387 0.689474 0.419249 0.174186
C50   C     C_3   0.980066 0.715224 0.456020 -0.334911
H19   H     H_    0.950951 0.739167 0.517651 0.101876
H20   H     H_    0.061398 0.601011 0.450257 0.161989
H21   H     H_    0.025118 0.782603 0.444483 0.181037
O28   O     O_3   0.709288 0.118527 0.655429 -0.524170
C51   C     C_3   0.827284 0.991025 0.626818 0.001875
H22   H     H_    0.787118 0.925953 0.583803 0.130145
H23   H     H_    0.898830 0.930056 0.677991 0.125748
C52   C     C_3   0.920404 0.019485 0.582324 -0.327347
H24   H     H_    0.963587 0.085878 0.620477 0.143505
H25   H     H_    0.014113 0.917677 0.566776 0.124510
H26   H     H_    0.861236 0.066537 0.525405 0.184152

loop_
_geom_bond_atom_site_label_1
_geom_bond_atom_site_label_2
_ccdc_geom_bond_type
C25   C31   A    
C1    C21   S    
C1    O20   A    
C43   O13   A    
C12   O21   A    
C19   C20   A    
Cr3   O4    S    
O27   C49   S    
C19   O27   S    
C7    C8    A    
C22   C42   S    
C26   C32   A    
C26   C27   A    
C50   H19   S    
C43   O18   A    
C14   C21   A    
C36   C37   T    
Cr5   O9    S    
Cr3   O5    S    
C27   H6    S    
C52   H25   S    
C30   C31   A    
Cr1   O12   S    
C51   H22   S    
C15   C16   A    
C33   C45   S    
C18   C19   A    
Cr4   O14   S    
Cr2   O2    S    
C17   H15   S    
Cr3   O3    S    
Cr2   O20   S    
C8    C9    A    
Cr1   O5    S    
Cr5   O16   S    
C42   O16   A    
Cr1   O24   S    
C38   C48   S    
C18   H2    S    
C25   C32   A    
C50   H20   S    
C13   C14   A    
C31   O28   S    
Cr4   O19   S    
C2    C6    A    
C45   O24   A    
Cr6   O10   S    
C5    C48   A    
C29   H7    S    
C14   C20   A    
C16   H16   S    
C34   O25   A    
Cr6   O19   S    
C12   C46   S    
C52   H26   S    
C38   O8    A    
C2    C48   A    
C1    O12   A    
C41   O14   A    
C8    H12   S    
Cr1   O25   S    
C23   O23   A    
C5    H10   S    
C45   O4    A    
C39   O9    A    
C6    H9    S    
C37   C43   S    
Cr4   O13   S    
C9    H13   S    
C29   C30   A    
C3    C9    A    
C23   O1    A    
Cr3   O22   S    
C7    H11   S    
C11   C16   A    
C17   C18   A    
C32   C44   S    
C24   C25   A    
C26   H4    S    
Cr3   O23   S    
C50   H21   S    
C49   H18   S    
C22   C27   A    
C30   H8    S    
C4    H1    S    
Cr5   O19   S    
C22   C24   A    
C4    C10   A    
Cr4   O7    S    
C39   C47   S    
C28   H5    S    
C44   O3    A    
C46   C47   T    
C28   C29   A    
C40   O11   A    
C12   O22   A    
C24   C28   A    
C34   O26   A    
C4    C5    A    
Cr4   O6    S    
C6    C7    A    
C38   O7    A    
C10   C23   S    
C49   C50   S    
C41   O15   A    
O28   C51   S    
C13   C17   A    
C39   O10   A    
C2    C3    A    
C3    C10   A    
C52   H24   S    
Cr6   O18   S    
C11   C13   A    
Cr2   O26   S    
Cr6   O17   S    
C51   H23   S    
C15   H14   S    
C33   C35   T    
C44   O2    A    
C34   C36   S    
C11   C40   S    
C35   C41   S    
Cr5   O8    S    
C40   O6    A    
Cr2   O21   S    
C15   C21   A    
C49   H17   S    
Cr1   O1    S    
Cr5   O15   S    
C42   O17   A    
C20   H3    S    
Cr2   O5    S    
Cr6   O11   S    
C51   C52   S    
