data_mof_unit_59925.cif
_audit_creation_date              2012-12-11T14:43:36-0500
_audit_creation_method            fapswitch 2.2
_symmetry_space_group_name_H-M    P1
_symmetry_Int_Tables_number       1
_space_group_crystal_system       triclinic
_cell_length_a                    20.78921
_cell_length_b                    7.101122
_cell_length_c                    16.430777
_cell_angle_alpha                 90.000036
_cell_angle_beta                  92.480087
_cell_angle_gamma                 89.999983
_cell_volume                      2423.3496292

loop_
_atom_site_label
_atom_site_type_symbol
_atom_type_description
_atom_site_fract_x
_atom_site_fract_y
_atom_site_fract_z
_atom_type_partial_charge
O1    O     O_R   0.564840 0.505290 0.579830 -0.537188
O2    O     O_R   0.435160 0.005290 0.420170 -0.537188
O3    O     O_R   0.556720 0.179930 0.409350 -0.537772
O4    O     O_R   0.443280 0.679930 0.590650 -0.537772
C1    C     C_R   0.570401 0.345012 0.381088 0.699593
C2    C     C_R   0.429599 0.845013 0.618912 0.699594
O5    O     O_R   0.572280 0.175810 0.578530 -0.543059
O6    O     O_R   0.427720 0.675810 0.421470 -0.543058
O7    O     O_R   0.450830 0.001920 0.590540 -0.535941
O8    O     O_R   0.549170 0.501920 0.409460 -0.535941
C3    C     C_R   0.590176 0.342732 0.604887 0.692624
C4    C     C_R   0.409824 0.842732 0.395113 0.692623
O9    O     O_3   0.460130 0.338030 0.503750 -0.371979
O10   O     O_3   0.539870 0.838030 0.496250 -0.371979
V1    V     V_3+5 0.507400 0.064560 0.499310 1.411174
V2    V     V_3+5 0.492600 0.564560 0.500690 1.411174
C5    C     C_R   0.144058 0.926723 0.167531 -0.066038
C6    C     C_R   0.855942 0.426723 0.832469 -0.066037
C7    C     C_R   0.355170 0.838931 0.333296 -0.065819
C8    C     C_R   0.644830 0.338931 0.666704 -0.065818
C9    C     C_R   0.290375 0.655466 0.233711 -0.202565
C10   C     C_R   0.709625 0.155467 0.766290 -0.202565
C11   C     C_R   0.344835 0.675004 0.285862 -0.161648
C12   C     C_R   0.655165 0.175005 0.714138 -0.161648
C13   C     C_R   0.309971 0.985757 0.325849 -0.245812
C14   C     C_R   0.690029 0.485757 0.674150 -0.245812
C15   C     C_R   0.254525 0.966129 0.273705 0.160992
C16   C     C_R   0.745475 0.466128 0.726295 0.160992
C17   C     C_R   0.244466 0.799252 0.227489 0.157999
C18   C     C_R   0.755533 0.299252 0.772511 0.157999
C19   C     C_R   0.189137 0.779743 0.175196 -0.250645
C20   C     C_R   0.810863 0.279743 0.824804 -0.250645
C21   C     C_R   0.154192 0.090429 0.215157 -0.163350
C22   C     C_R   0.845808 0.590429 0.784842 -0.163350
C23   C     C_R   0.208557 0.109846 0.267503 -0.205821
C24   C     C_R   0.791443 0.609845 0.732496 -0.205821
H1    H     H_    0.182388 0.653651 0.138616 0.127894
H2    H     H_    0.817611 0.153651 0.861384 0.127894
H3    H     H_    0.120209 0.206067 0.211133 0.149500
H4    H     H_    0.879791 0.706067 0.788867 0.149500
H5    H     H_    0.283929 0.526823 0.198804 0.122350
H6    H     H_    0.716070 0.026824 0.801196 0.122350
H7    H     H_    0.214929 0.238429 0.302468 0.121576
H8    H     H_    0.785071 0.738428 0.697532 0.121575
H9    H     H_    0.378804 0.559332 0.289789 0.127561
H10   H     H_    0.621196 0.059333 0.710211 0.127561
H11   H     H_    0.316773 0.111899 0.362381 0.123560
H12   H     H_    0.683227 0.611898 0.637619 0.123560
C25   C     C_R   0.380415 0.890721 0.835509 -0.161906
C26   C     C_R   0.619585 0.390714 0.164491 -0.161906
H13   H     H_    0.469982 0.872511 0.776074 0.103157
H14   H     H_    0.530018 0.372503 0.223925 0.103157
H15   H     H_    0.300417 0.926689 0.955632 0.124541
H16   H     H_    0.699583 0.426680 0.044368 0.124541
H17   H     H_    0.404267 0.903505 0.895229 0.113250
H18   H     H_    0.595733 0.403495 0.104770 0.113250
C27   C     C_R   0.388917 0.855877 0.689992 -0.038608
C28   C     C_R   0.611082 0.355876 0.310007 -0.038608
C29   C     C_R   0.075807 0.889153 0.730944 0.286523
C30   C     C_R   0.924193 0.389157 0.269056 0.286522
C31   C     C_R   0.111074 0.867331 0.661144 -0.185558
C32   C     C_R   0.888926 0.367336 0.338857 -0.185558
C33   C     C_R   0.178104 0.864618 0.665888 -0.206399
C34   C     C_R   0.821896 0.364621 0.334112 -0.206399
C35   C     C_R   0.212747 0.882336 0.741421 0.082002
C36   C     C_R   0.787253 0.382337 0.258579 0.082002
C37   C     C_R   0.176805 0.903919 0.813225 0.011169
C38   C     C_R   0.823195 0.403918 0.186775 0.011169
C39   C     C_R   0.281813 0.877628 0.748113 0.087609
C40   C     C_R   0.718187 0.377627 0.251886 0.087610
C41   C     C_R   0.312951 0.893992 0.826553 0.136941
C42   C     C_R   0.687048 0.393988 0.173446 0.136941
C43   C     C_R   0.276774 0.914282 0.895755 -0.196720
C44   C     C_R   0.723226 0.414276 0.104245 -0.196720
C45   C     C_R   0.209963 0.919333 0.889360 -0.177968
C46   C     C_R   0.790037 0.419329 0.110639 -0.177968
C47   C     C_R   0.321406 0.858028 0.680015 -0.217694
C48   C     C_R   0.678594 0.358029 0.319985 -0.217694
C49   C     C_R   0.417986 0.872595 0.767809 -0.169139
C50   C     C_R   0.582014 0.372590 0.232191 -0.169139
C51   C     C_R   0.108258 0.907295 0.807567 -0.123441
C52   C     C_R   0.891742 0.407296 0.192432 -0.123441
H19   H     H_    0.301601 0.846641 0.618522 0.093144
H20   H     H_    0.698399 0.346646 0.381478 0.093144
H21   H     H_    0.201320 0.847093 0.609066 0.123835
H22   H     H_    0.798680 0.347098 0.390934 0.123835
H23   H     H_    0.086185 0.852412 0.602199 0.121618
H24   H     H_    0.913815 0.352419 0.397802 0.121618
H25   H     H_    0.184454 0.935366 0.945015 0.107564
H26   H     H_    0.815546 0.435360 0.054985 0.107564
O11   O     O_R   0.950790 0.256670 0.090520 -0.530474
O12   O     O_R   0.049210 0.756670 0.909480 -0.530474
O13   O     O_R   0.927720 0.590370 0.921470 -0.538525
O14   O     O_R   0.072280 0.090370 0.078530 -0.538526
C53   C     C_R   0.910238 0.423055 0.894692 0.682217
C54   C     C_R   0.089762 0.923055 0.105308 0.682216
O15   O     O_R   0.943270 0.586180 0.090640 -0.545148
O16   O     O_R   0.056730 0.086180 0.909360 -0.545149
O17   O     O_R   0.064850 0.759970 0.079840 -0.539507
O18   O     O_R   0.935150 0.259970 0.920160 -0.539507
C55   C     C_R   0.930662 0.417592 0.119211 0.741303
C56   C     C_R   0.069338 0.917591 0.880789 0.741303
O19   O     O_3   0.039850 0.428050 0.996240 -0.371754
O20   O     O_3   0.960150 0.928050 0.003760 -0.371754
V3    V     V_3+5 0.992610 0.701540 0.000700 1.427255
V4    V     V_3+5 0.007390 0.201540 0.999300 1.427254
N1    N     N_2   0.007272 0.886521 0.724159 -0.539497
H27   H     H_    0.989019 0.795205 0.680099 0.249838
C57   C     C_3   0.977905 0.070845 0.717178 -0.556212
H28   H     H_    0.990484 0.138504 0.658973 0.188782
H29   H     H_    0.994153 0.162324 0.768826 0.213867
H30   H     H_    0.924739 0.056638 0.718140 0.196753
N2    N     N_2   0.992728 0.386527 0.275842 -0.539498
H31   H     H_    0.010981 0.295212 0.319901 0.249838
C58   C     C_3   0.022094 0.570851 0.282822 -0.556211
H32   H     H_    0.009516 0.638511 0.341026 0.188782
H33   H     H_    0.005847 0.662328 0.231173 0.213868
H34   H     H_    0.075260 0.556645 0.281859 0.196753

loop_
_geom_bond_atom_site_label_1
_geom_bond_atom_site_label_2
_ccdc_geom_bond_type
C36   C38   A    
C33   C35   A    
C11   H9    S    
C40   C48   A    
N1    C57   S    
C27   C49   A    
C39   C47   A    
O1    C3    A    
O2    C4    A    
C2    O7    A    
O20   V4    S    
C10   H6    S    
O5    C3    A    
C21   H3    S    
C44   C46   A    
C1    C28   S    
C22   H4    S    
C57   H29   S    
C15   C17   A    
C47   H19   S    
C58   H32   S    
C54   O17   A    
C30   C32   A    
C39   C41   A    
C26   C42   A    
C32   C34   A    
C31   H23   S    
O13   V3    S    
H16   C44   S    
C30   C52   A    
C8    C12   A    
C8    C14   A    
C58   H33   S    
N1    H27   S    
O16   V4    S    
C20   H2    S    
C23   H7    S    
C13   H11   S    
O12   C56   A    
O15   V3    S    
O5    V1    S    
O13   C53   A    
C33   H21   S    
C6    C53   S    
C43   C45   A    
O11   V4    S    
C30   N2    S    
C5    C21   A    
O11   C55   A    
C34   H22   S    
O20   V3    S    
C51   C56   S    
O17   V3    S    
C3    C8    S    
C29   C31   A    
C27   C47   A    
C42   C44   A    
C57   H30   S    
C5    C54   S    
C28   C48   A    
C53   O18   A    
C15   C23   A    
C25   H17   S    
C9    C17   A    
C26   H18   S    
C25   C49   A    
C34   C36   A    
O4    V2    S    
C7    C11   A    
C48   H20   S    
O6    C4    A    
C58   H34   S    
C31   C33   A    
O19   V3    S    
O1    V2    S    
O14   C54   A    
O2    V1    S    
C6    C22   A    
C9    H5    S    
O4    C2    A    
C37   C51   A    
C9    C11   A    
C13   C15   A    
C5    C19   A    
C10   C12   A    
C24   H8    S    
C37   C45   A    
O3    V1    S    
C41   C43   A    
N2    H31   S    
C29   N1    S    
O14   V4    S    
C2    C27   S    
C10   C18   A    
C14   C16   A    
H15   C43   S    
C29   C51   A    
O3    C1    A    
C26   C50   A    
C40   C42   A    
C14   H12   S    
C38   C46   A    
O18   V4    S    
C35   C37   A    
C38   C52   A    
C28   C50   A    
C16   C18   A    
O7    V1    S    
C12   H10   S    
C1    O8    A    
C17   C19   A    
O16   C56   A    
C57   H28   S    
C18   C20   A    
C36   C40   A    
C32   H24   S    
C35   C39   A    
C4    C7    S    
C21   C23   A    
C52   C55   S    
O19   V4    S    
C22   C24   A    
C7    C13   A    
H13   C49   S    
C45   H25   S    
C19   H1    S    
O12   V3    S    
C6    C20   A    
C16   C24   A    
O6    V2    S    
C25   C41   A    
O9    V2    S    
O10   V1    S    
O8    V2    S    
H14   C50   S    
O15   C55   A    
C46   H26   S    
N2    C58   S    
