data_mof_unit_23909.cif
_audit_creation_date              2012-10-26T19:07:28-0400
_audit_creation_method            fapswitch 2.2
_symmetry_space_group_name_H-M    P1
_symmetry_Int_Tables_number       1
_space_group_crystal_system       triclinic
_cell_length_a                    15.093392
_cell_length_b                    13.695415
_cell_length_c                    10.63353
_cell_angle_alpha                 89.762653
_cell_angle_beta                  89.856121
_cell_angle_gamma                 90.003353
_cell_volume                      2198.03403244

loop_
_atom_site_label
_atom_site_type_symbol
_atom_type_description
_atom_site_fract_x
_atom_site_fract_y
_atom_site_fract_z
_atom_type_partial_charge
C1    C     C_R   0.328505 0.499997 0.500377 0.543551
C2    C     C_R   0.953530 0.678823 0.504020 0.278648
C3    C     C_R   0.440210 0.793087 0.572851 0.037350
C4    C     C_R   0.559790 0.206913 0.427149 0.037350
C5    C     C_R   0.559767 0.793557 0.427110 0.034472
C6    C     C_R   0.440233 0.206443 0.572890 0.034474
C7    C     C_R   0.561307 0.896628 0.425552 -0.017256
C8    C     C_R   0.438693 0.103372 0.574448 -0.017254
C9    C     C_R   0.438678 0.896145 0.574421 -0.016940
C10   C     C_R   0.561322 0.103855 0.425580 -0.016941
C11   C     C_R   0.499997 0.948180 0.499994 0.051499
C12   C     C_R   0.671495 0.500003 0.499622 0.543553
C13   C     C_R   0.500003 0.051820 0.500006 0.051499
C14   C     C_R   0.622407 0.949152 0.351640 -0.141010
C15   C     C_R   0.377593 0.050848 0.648360 -0.141005
C16   C     C_R   0.377583 0.948186 0.648342 -0.140648
C17   C     C_R   0.622417 0.051813 0.351658 -0.140651
C18   C     C_R   0.500016 0.500241 0.259063 0.554327
C19   C     C_R   0.499984 0.499759 0.740936 0.554327
C20   C     C_3   0.500541 0.592963 0.039927 -0.112918
C21   C     C_3   0.499459 0.407037 0.960073 -0.112919
C22   C     C_3   0.573062 0.545551 0.957426 -0.124036
C23   C     C_R   0.953541 0.499999 0.500064 -0.055835
C24   C     C_3   0.426937 0.454449 0.042574 -0.124037
C25   C     C_3   0.427463 0.546563 0.957956 -0.126165
C26   C     C_3   0.572536 0.453436 0.042044 -0.126164
C27   C     C_3   0.499986 0.499241 0.877736 0.044439
C28   C     C_3   0.500014 0.500759 0.122264 0.044440
C29   C     C_R   0.814496 0.588532 0.500287 -0.124554
C30   C     C_R   0.185504 0.411466 0.499696 -0.124554
C31   C     C_R   0.768279 0.500005 0.499385 -0.039363
C32   C     C_R   0.231721 0.499993 0.500612 -0.039365
C33   C     C_R   0.814488 0.411474 0.498930 -0.124536
C34   C     C_R   0.046459 0.499999 0.499930 -0.055835
C35   C     C_R   0.185511 0.588524 0.501074 -0.124543
C36   C     C_R   0.906993 0.410350 0.499816 -0.014897
C37   C     C_R   0.093006 0.589648 0.500181 -0.014899
C38   C     C_3   0.899710 0.199453 0.624779 -0.110805
C39   C     C_3   0.100303 0.800520 0.375180 -0.110792
C40   C     C_3   0.100272 0.201508 0.370474 -0.110933
C41   C     C_3   0.899721 0.798520 0.629442 -0.110929
C42   C     C_R   0.907002 0.589641 0.501201 -0.014894
C43   C     C_R   0.092999 0.410357 0.498782 -0.014898
C44   C     C_R   0.953515 0.321133 0.501241 0.278457
C45   C     C_R   0.046486 0.678864 0.498744 0.278457
C46   C     C_R   0.046470 0.321175 0.495949 0.278650
Cu1   Cu    Cu3+1 0.500000 0.597420 0.500000 0.929609
Cu2   Cu    Cu3+1 0.500000 0.402580 0.500000 0.929609
H1    H     H_    0.368158 0.584582 0.920322 0.107746
H2    H     H_    0.221907 0.656704 0.502004 0.170390
H3    H     H_    0.861664 0.130150 0.624105 0.138707
H4    H     H_    0.862388 0.252358 0.683929 0.097613
H5    H     H_    0.965504 0.183790 0.667315 0.157160
H6    H     H_    0.137644 0.747609 0.316062 0.097617
H7    H     H_    0.138335 0.869831 0.375839 0.138714
H8    H     H_    0.034514 0.816158 0.332614 0.157147
H9    H     H_    0.137616 0.255355 0.312196 0.096674
H10   H     H_    0.034480 0.186549 0.327674 0.156934
H11   H     H_    0.138299 0.132195 0.370037 0.138264
H12   H     H_    0.631841 0.415417 0.079678 0.107748
H13   H     H_    0.965512 0.813460 0.672260 0.156926
H14   H     H_    0.862351 0.744699 0.687726 0.096678
H15   H     H_    0.861719 0.867850 0.629845 0.138269
H16   H     H_    0.393667 0.752011 0.629835 0.123080
H17   H     H_    0.606333 0.247989 0.370165 0.123082
H18   H     H_    0.606287 0.752846 0.370098 0.122921
H19   H     H_    0.393713 0.247153 0.629902 0.122921
H20   H     H_    0.670185 0.910861 0.293815 0.112932
H21   H     H_    0.329815 0.089139 0.706185 0.112928
H22   H     H_    0.329797 0.909517 0.706155 0.113005
H23   H     H_    0.501011 0.669136 0.075253 0.120477
H24   H     H_    0.670203 0.090483 0.293846 0.113008
H25   H     H_    0.498989 0.330864 0.924746 0.120477
H26   H     H_    0.632812 0.582727 0.919384 0.110159
H27   H     H_    0.367187 0.417273 0.080616 0.110157
H28   H     H_    0.778106 0.656719 0.500451 0.170682
H29   H     H_    0.221896 0.343280 0.499521 0.170687
H30   H     H_    0.778092 0.343293 0.498010 0.170391
N1    N     N_R   0.500000 0.743810 0.500000 -0.240557
N2    N     N_R   0.500000 0.256190 0.500000 -0.240558
O1    O     O_R   0.370260 0.582280 0.500030 -0.511296
O2    O     O_3   0.091697 0.766761 0.500065 -0.570794
O3    O     O_3   0.091674 0.233267 0.495880 -0.570353
O4    O     O_3   0.908328 0.766730 0.504052 -0.570355
O5    O     O_R   0.629740 0.417720 0.499970 -0.511296
O6    O     O_R   0.629740 0.582280 0.499970 -0.511051
O7    O     O_R   0.370260 0.417720 0.500030 -0.511051
O8    O     O_R   0.499980 0.582260 0.316850 -0.506871
O9    O     O_R   0.500020 0.417740 0.683150 -0.506871
O10   O     O_R   0.500020 0.582260 0.683150 -0.503393
O11   O     O_R   0.499980 0.417740 0.316850 -0.503393
O12   O     O_3   0.908303 0.233235 0.499902 -0.570795

loop_
_geom_bond_atom_site_label_1
_geom_bond_atom_site_label_2
_ccdc_geom_bond_type
C1    O7    A    
C21   C26   S    
C8    C13   A    
C21   H25   S    
C29   C42   A    
C34   C37   A    
C2    O4    S    
C45   O2    S    
C14   C17   A    
Cu1   N1    S    
C3    N1    A    
C29   H28   S    
C3    H16   S    
C7    C11   A    
C23   C42   A    
C12   O5    A    
C3    C9    A    
C18   O11   A    
C35   C37   A    
C9    C16   A    
C4    N2    A    
C4    H17   S    
C33   H30   S    
C39   H6    S    
C38   H4    S    
C20   C25   S    
C10   C17   A    
C1    O1    A    
C15   C16   A    
C38   O12   S    
C33   C36   A    
C30   H29   S    
C7    C14   A    
C39   H7    S    
Cu1   Cu2   S    
Cu2   O11   S    
C31   C33   A    
C20   H23   S    
C41   H13   S    
C5    N1    A    
C19   C27   S    
C44   O12   S    
C21   C27   S    
C40   H11   S    
C40   O3    S    
C41   H14   S    
C44   C46   A    
C2    C45   A    
C15   H21   S    
C40   H10   S    
C32   C35   A    
C16   H22   S    
C24   C25   S    
C5    C7    A    
C6    C8    A    
C38   H3    S    
C20   C28   S    
C41   O4    S    
C1    C32   S    
C18   O8    A    
Cu1   O6    S    
C19   O9    A    
C6    N2    A    
C39   H8    S    
C23   C34   A    
C35   H2    S    
Cu2   O7    S    
C18   C28   S    
C9    C11   A    
C6    H19   S    
C20   C22   S    
C8    C15   A    
Cu2   O9    S    
C12   C31   S    
Cu1   O10   S    
C30   C43   A    
C36   C44   A    
C22   H26   S    
C37   C45   A    
C14   H20   S    
C40   H9    S    
C34   C43   A    
C24   C28   S    
C39   O2    S    
C5    H18   S    
C10   C13   A    
C24   H27   S    
C25   C27   S    
C26   C28   S    
C12   O6    A    
C22   C27   S    
Cu1   O8    S    
Cu2   N2    S    
C29   C31   A    
C19   O10   A    
C30   C32   A    
C11   C13   A    
C38   H5    S    
C26   H12   S    
C2    C42   A    
Cu1   O1    S    
C43   C46   A    
C25   H1    S    
C46   O3    S    
C17   H24   S    
C23   C36   A    
C22   C26   S    
C21   C24   S    
C41   H15   S    
Cu2   O5    S    
C4    C10   A    
