data_mof_unit_13697.cif
_audit_creation_date              2013-03-05T15:54:44-0500
_audit_creation_method            fapswitch 2.2
_symmetry_space_group_name_H-M    P1
_symmetry_Int_Tables_number       1
_space_group_crystal_system       triclinic
_cell_length_a                    12.277053
_cell_length_b                    13.167791
_cell_length_c                    15.046289
_cell_angle_alpha                 77.68741
_cell_angle_beta                  100.774044
_cell_angle_gamma                 116.057683
_cell_volume                      2122.81106131

loop_
_atom_site_label
_atom_site_type_symbol
_atom_site_description
_atom_site_fract_x
_atom_site_fract_y
_atom_site_fract_z
_atom_type_partial_charge
O1    O     O_R   0.972510 0.318130 0.526570 -0.535449
O2    O     O_R   0.806530 0.359650 0.490890 -0.624024
C1    C     C_R   0.855053 0.286143 0.506907 0.813595
O3    O     O_R   0.082980 0.479210 0.647590 -0.582276
O4    O     O_R   0.917000 0.520730 0.611900 -0.600773
C2    C     C_R   0.001527 0.503530 0.670687 0.778185
Cu1   Cu    Cu3+1 0.098270 0.475420 0.521130 0.984585
Cu2   Cu    Cu3+1 0.901730 0.524580 0.478870 0.934573
O5    O     O_R   0.193470 0.640350 0.509110 -0.595126
O6    O     O_R   0.027490 0.681870 0.473430 -0.599018
O7    O     O_R   0.083000 0.479270 0.388100 -0.556152
O8    O     O_R   0.917020 0.520790 0.352410 -0.596820
C3    C     C_R   0.145458 0.714445 0.485714 0.776791
C4    C     C_R   0.998891 0.496649 0.329546 0.842233
C5    C     C_R   0.993510 0.587990 0.171283 -0.202602
C6    C     C_R   0.002012 0.496445 0.233609 -0.112302
C7    C     C_R   0.019341 0.410273 0.205032 0.094187
C8    C     C_R   0.029845 0.418642 0.111868 0.041699
C9    C     C_R   0.019003 0.511196 0.048207 0.019958
C10   C     C_R   0.003745 0.598146 0.078600 0.029813
C11   C     C_R   0.052852 0.337279 0.081414 -0.120679
C12   C     C_R   0.061161 0.342561 0.989250 -0.065372
C13   C     C_R   0.040446 0.429486 0.924701 0.044863
C14   C     C_R   0.021876 0.515674 0.954291 0.061982
C15   C     C_R   0.004803 0.605325 0.890013 -0.018918
C16   C     C_R   0.007760 0.700661 0.922858 -0.068858
C17   C     C_R   0.004056 0.695434 0.016965 0.146540
C18   C     C_R   0.035132 0.430779 0.831166 -0.232156
C19   C     C_R   0.006735 0.511041 0.767102 -0.106457
C20   C     C_R   0.986860 0.596478 0.795171 -0.074387
H1    H     H_    0.980231 0.651648 0.197281 0.176763
H2    H     H_    0.068175 0.270033 0.129445 0.226138
H3    H     H_    0.045342 0.364861 0.805955 0.137622
C21   C     C_R   0.267909 0.039962 0.424828 -0.080154
H4    H     H_    0.233571 0.105327 0.406508 0.223364
C22   C     C_R   0.228737 0.838340 0.470831 -0.197735
C23   C     C_R   0.810682 0.077057 0.560110 0.089077
C24   C     C_R   0.722701 0.968908 0.592700 -0.035698
C25   C     C_R   0.599697 0.944248 0.567655 -0.195702
C26   C     C_R   0.561261 0.018831 0.502485 0.062554
C27   C     C_R   0.646572 0.130127 0.475152 0.063045
C28   C     C_R   0.436696 0.986009 0.469170 0.045542
C29   C     C_R   0.393494 0.069985 0.429155 0.076471
C30   C     C_R   0.478375 0.179906 0.395186 -0.020653
C31   C     C_R   0.603089 0.204765 0.412924 -0.233843
C32   C     C_R   0.355181 0.870737 0.471184 -0.072397
C33   C     C_R   0.186160 0.926467 0.451749 -0.054209
C34   C     C_R   0.771884 0.162828 0.510389 -0.124245
H5    H     H_    0.532952 0.865304 0.599676 0.161550
H6    H     H_    0.665024 0.282813 0.376223 0.172727
C35   C     C_R   0.348938 0.332830 0.652386 -0.101923
H7    H     H_    0.174619 0.324810 0.669713 0.170571
H8    H     H_    0.554899 0.296867 0.674555 0.136530
N1    N     N_R   0.246280 0.438190 0.553160 -0.207048
C36   C     C_R   0.756216 0.639490 0.372363 -0.005297
C37   C     C_R   0.650047 0.651405 0.331583 0.150689
C38   C     C_R   0.539177 0.583999 0.370910 -0.075739
C39   C     C_R   0.541717 0.517743 0.459367 -0.128016
C40   C     C_R   0.650781 0.501574 0.492487 0.268035
C41   C     C_R   0.440991 0.463965 0.515462 -0.005769
C42   C     C_R   0.446006 0.384874 0.595751 0.096708
C43   C     C_R   0.548323 0.360452 0.617939 -0.267005
C44   C     C_R   0.648600 0.419694 0.569635 -0.106881
C45   C     C_R   0.338313 0.490448 0.498542 0.002037
C46   C     C_R   0.249597 0.361674 0.627979 0.128805
N2    N     N_R   0.754320 0.561190 0.447410 -0.233336
H9    H     H_    0.330832 0.555397 0.444266 0.147614
H10   H     H_    0.839131 0.686295 0.339341 0.168721
H11   H     H_    0.722576 0.396712 0.595422 0.202680
C47   C     C_2   0.443740 0.269066 0.335599 0.364079
H12   H     H_    0.509892 0.357623 0.328989 0.058983
O9    O     O_2   0.344990 0.245171 0.289764 -0.514486
C48   C     C_2   0.403168 0.791781 0.453797 0.428370
H13   H     H_    0.409838 0.724346 0.507044 0.076739
O10   O     O_2   0.441742 0.806448 0.380868 -0.466827
I1    I     I_    0.998136 0.101535 0.582047 -0.302121
C49   C     C_2   0.756283 0.880712 0.655170 0.471008
H14   H     H_    0.848921 0.900388 0.685808 0.142312
O11   O     O_2   0.679434 0.783576 0.674156 -0.493346
C50   C     C_2   0.349373 0.252242 0.738634 0.357289
H15   H     H_    0.432555 0.247187 0.773674 0.090464
O12   O     O_2   0.254981 0.190675 0.773307 -0.519684
I2    I     I_    0.017122 0.263106 0.301985 -0.220457
C51   C     C_2   0.422081 0.564025 0.312288 0.404553
H16   H     H_    0.347748 0.479301 0.318478 0.087234
O13   O     O_2   0.405483 0.640976 0.258811 -0.453190
I3    I     I_    0.666383 0.762291 0.204396 -0.126039
C52   C     C_2   0.093889 0.256985 0.963452 0.435202
H17   H     H_    0.136680 0.274679 0.901813 0.090132
O14   O     O_2   0.075583 0.165433 0.012460 -0.461289
C53   C     C_2   0.937617 0.668045 0.725357 0.375766
H18   H     H_    0.983057 0.714023 0.664394 0.045602
O15   O     O_2   0.842978 0.672199 0.734326 -0.470784
C54   C     C_2   0.031723 0.811153 0.861582 0.498969
H19   H     H_    0.102825 0.844208 0.816271 0.032926
O16   O     O_2   0.968935 0.862934 0.857661 -0.469863
I4    I     I_    0.013236 0.841053 0.067446 -0.129433
C55   C     C_2   0.058156 0.904379 0.457721 0.426382
H20   H     H_    0.005878 0.838500 0.509133 0.082412
O17   O     O_2   0.010252 0.961870 0.406113 -0.480131

loop_
_geom_bond_atom_site_label_1
_geom_bond_atom_site_label_2
_geom_bond_distance
_ccdc_geom_bond_type
C16   C54   1.485494 S    
C36   C37   1.392724 A    
Cu2   N2    2.020042 S    
C8    C11   1.400437 A    
C48   H13   1.083059 S    
C9    C10   1.413803 A    
C35   C42   1.424443 A    
C36   H10   1.081781 S    
Cu1   Cu2   2.696049 S    
N1    C46   1.348807 A    
C49   H14   1.081284 S    
Cu1   O7    1.966958 S    
C16   C17   1.411198 A    
C43   C44   1.378906 A    
C33   C55   1.484045 S    
C18   C19   1.389703 A    
C23   C24   1.408532 A    
C51   O13   1.219861 D    
C8    C9    1.420382 A    
C40   N2    1.382264 A    
C28   C32   1.401273 A    
C24   C25   1.391600 A    
O7    C4    1.294744 A    
C39   C41   1.452251 A    
C5    C6    1.391116 A    
C1    C34   1.486304 S    
C37   C38   1.416469 A    
C22   C33   1.427237 A    
C21   H4    1.081059 S    
C35   C46   1.395215 A    
O5    C3    1.305557 A    
C35   C50   1.491723 S    
C44   H11   1.061410 S    
C6    C7    1.404301 A    
C13   C14   1.420894 A    
C30   C47   1.486656 S    
C47   H12   1.085350 S    
C12   C52   1.491496 S    
C26   C28   1.414880 A    
C11   C12   1.394193 A    
C48   O10   1.220329 D    
C54   H19   1.085529 S    
O3    Cu1   1.959711 S    
C49   O11   1.221678 D    
C5    C10   1.396297 A    
C11   H2    1.079043 S    
C45   H9    1.072324 S    
C14   C15   1.423923 A    
C3    C22   1.490434 S    
C50   O12   1.221731 D    
C25   C26   1.404326 A    
C20   C53   1.482535 S    
C37   I3    2.128130 S    
C39   C40   1.429084 A    
C41   C42   1.428200 A    
C7    I2    2.155682 S    
C29   C30   1.414452 A    
C19   C20   1.409216 A    
C53   O15   1.220165 D    
H8    C43   1.078287 S    
Cu2   O8    1.959711 S    
C10   C17   1.411218 A    
C7    C8    1.408162 A    
C38   C51   1.485441 S    
C13   C18   1.393430 A    
C51   H16   1.085872 S    
C23   C34   1.428706 A    
C54   O16   1.220741 D    
O3    C2    1.296948 A    
C26   C27   1.403338 A    
C25   H5    1.081596 S    
C23   I1    2.149155 S    
C52   O14   1.221621 D    
C18   H3    1.080186 S    
C55   O17   1.221337 D    
C4    C6    1.451753 S    
C28   C29   1.406586 A    
C53   H18   1.084842 S    
C36   N2    1.353083 A    
C30   C31   1.402449 A    
C15   C20   1.424533 A    
Cu1   O5    1.948533 S    
C17   I4    2.160018 S    
O1    Cu1   1.961059 S    
O2    Cu2   1.948534 S    
C21   C29   1.405585 A    
O8    C4    1.298577 A    
C50   H15   1.081092 S    
O6    C3    1.305251 A    
O4    Cu2   1.966959 S    
C5    H1    1.079813 S    
C24   C49   1.487411 S    
C40   C44   1.401121 A    
C41   C45   1.415577 A    
O2    C1    1.305089 A    
C15   C16   1.428060 A    
C22   C32   1.417006 A    
C38   C39   1.430632 A    
O4    C2    1.299410 A    
N1    C45   1.359569 A    
C31   H6    1.080606 S    
C27   C34   1.429605 A    
C9    C14   1.408136 A    
C42   C43   1.394673 A    
C2    C19   1.462649 S    
C52   H17   1.083006 S    
Cu2   O6    1.961058 S    
C55   H20   1.083108 S    
C27   C31   1.417454 A    
C12   C13   1.416819 A    
C47   O9    1.220345 D    
C21   C33   1.407431 A    
Cu1   N1    2.031993 S    
O1    C1    1.305526 A    
C32   C48   1.486013 S    
H7    C46   1.082047 S    
