data_mof_unit_52004.cif
_audit_creation_date              2012-12-11T15:23:43-0500
_audit_creation_method            fapswitch 2.2
_symmetry_space_group_name_H-M    P1
_symmetry_Int_Tables_number       1
_space_group_crystal_system       triclinic
_cell_length_a                    17.436793
_cell_length_b                    24.383788
_cell_length_c                    15.271831
_cell_angle_alpha                 89.211353
_cell_angle_beta                  126.383488
_cell_angle_gamma                 90.918802
_cell_volume                      5226.70297484

loop_
_atom_site_label
_atom_site_type_symbol
_atom_type_description
_atom_site_fract_x
_atom_site_fract_y
_atom_site_fract_z
_atom_type_partial_charge
C1    C     C_R   0.350996 0.347321 0.912032 -0.141130
C2    C     C_R   0.689311 0.376706 0.092638 -0.122136
C3    C     C_R   0.850251 0.847907 0.911443 -0.141488
C4    C     C_R   0.189069 0.876291 0.093800 -0.131667
C5    C     C_R   0.347955 0.669533 0.994831 0.047373
C6    C     C_R   0.691304 0.635452 0.005242 0.051754
C7    C     C_R   0.861016 0.177063 0.997699 0.043677
C8    C     C_R   0.192131 0.135319 0.006785 0.052363
C9    C     C_R   0.534422 0.495495 0.346673 -0.088889
C10   C     C_R   0.450996 0.499006 0.644455 -0.075052
C11   C     C_R   0.043694 0.995678 0.352074 -0.090080
C12   C     C_R   0.961381 0.998625 0.650808 -0.071460
C13   C     C_R   0.175959 0.497770 0.728946 0.137043
C14   C     C_R   0.810788 0.498831 0.357628 0.147060
C15   C     C_R   0.676350 0.998091 0.729730 0.137168
C16   C     C_R   0.312945 0.998554 0.357348 0.146209
C17   C     C_2   0.922908 0.457583 0.537362 -0.125232
C18   C     C_2   0.020706 0.453620 0.636204 -0.111153
C19   C     C_2   0.423246 0.958187 0.537779 -0.126714
C20   C     C_2   0.520755 0.954065 0.637153 -0.110612
C21   C     C_2   0.896917 0.499961 0.468512 -0.200946
C22   C     C_2   0.074804 0.498512 0.681486 -0.190272
C23   C     C_2   0.399526 0.999561 0.467550 -0.200390
C24   C     C_2   0.575009 0.999012 0.681997 -0.190927
C25   C     C_R   0.285766 0.761417 0.919261 -0.173884
C26   C     C_R   0.843509 0.686042 0.104373 -0.166089
C27   C     C_R   0.780906 0.265076 0.906961 -0.169805
C28   C     C_R   0.342032 0.188633 0.109224 -0.165779
C29   C     C_R   0.743193 0.314173 0.909866 -0.171812
C30   C     C_R   0.385773 0.235949 0.108247 -0.169821
C31   C     C_R   0.251822 0.810595 0.926535 -0.182818
C32   C     C_R   0.888747 0.733383 0.103664 -0.168575
C33   C     C_R   0.758917 0.330435 0.007319 0.143395
C34   C     C_R   0.357199 0.258934 0.008368 0.143587
C35   C     C_R   0.244687 0.818066 0.012192 0.149935
C36   C     C_R   0.855231 0.759167 0.004822 0.140903
C37   C     C_R   0.827563 0.303394 0.105300 -0.163302
C38   C     C_R   0.298092 0.228616 0.912396 -0.167723
C39   C     C_R   0.275262 0.777928 0.092964 -0.168022
C40   C     C_R   0.790789 0.731287 0.907566 -0.167534
C41   C     C_R   0.306297 0.729017 0.084088 -0.187867
C42   C     C_R   0.746833 0.683764 0.908589 -0.172461
C43   C     C_R   0.863010 0.254255 0.102282 -0.176922
C44   C     C_R   0.253731 0.181205 0.913756 -0.173201
C45   C     C_R   0.419945 0.642497 0.087338 -0.137851
C46   C     C_R   0.601677 0.622644 0.912902 -0.176309
C47   C     C_R   0.927170 0.146125 0.088403 -0.121260
C48   C     C_R   0.102365 0.123019 0.913699 -0.176706
C49   C     C_R   0.310952 0.720556 0.997316 0.146339
C50   C     C_R   0.764994 0.665156 0.006524 0.138229
C51   C     C_R   0.835194 0.232976 0.001962 0.144171
C52   C     C_R   0.267420 0.165028 0.010591 0.139781
C53   C     C_R   0.532667 0.537057 0.574519 -0.144591
C54   C     C_R   0.559495 0.533371 0.507161 -0.150896
C55   C     C_R   0.041505 0.038178 0.579481 -0.150224
C56   C     C_R   0.068752 0.035093 0.512355 -0.154283
C57   C     C_R   0.518029 0.492544 0.427437 0.179425
C58   C     C_R   0.465184 0.499144 0.562406 0.194185
C59   C     C_R   0.033277 0.992393 0.437664 0.177586
C60   C     C_R   0.979429 0.998125 0.572004 0.192917
C61   C     C_R   0.452193 0.452730 0.416997 -0.179210
C62   C     C_R   0.425841 0.456181 0.485318 -0.204099
C63   C     C_R   0.975312 0.950171 0.434458 -0.177505
C64   C     C_R   0.947846 0.953325 0.501586 -0.201276
C65   C     C_R   0.530833 0.451220 0.290542 -0.243106
C66   C     C_R   0.459216 0.453411 0.702778 -0.251269
C67   C     C_R   0.036765 0.951460 0.293747 -0.243007
C68   C     C_R   0.965201 0.953105 0.706654 -0.247688
C69   C     C_R   0.231119 0.544183 0.751852 -0.152902
C70   C     C_R   0.761084 0.544578 0.297652 -0.198934
C71   C     C_R   0.731682 0.044462 0.753443 -0.149964
C72   C     C_R   0.262334 0.044443 0.297428 -0.200099
C73   C     C_R   0.537381 0.542718 0.297237 0.552451
C74   C     C_R   0.454692 0.544309 0.698794 0.507523
C75   C     C_R   0.041982 0.042816 0.299455 0.558768
C76   C     C_R   0.960798 0.044246 0.701934 0.506801
C77   C     C_R   0.232811 0.452476 0.753593 -0.113795
C78   C     C_R   0.757930 0.453367 0.298630 -0.125512
C79   C     C_R   0.732772 0.952662 0.753328 -0.113122
C80   C     C_R   0.259185 0.953155 0.298879 -0.121404
C81   C     C_R   0.334368 0.645508 0.905609 -0.149018
C82   C     C_R   0.691384 0.623830 0.094453 -0.115222
C83   C     C_R   0.841344 0.149275 0.907342 -0.148583
C84   C     C_R   0.191335 0.123519 0.095214 -0.115249
C85   C     C_R   0.441405 0.348833 0.093277 -0.117944
C86   C     C_R   0.597995 0.375616 0.910413 -0.111916
C87   C     C_R   0.940277 0.848786 0.092750 -0.117194
C88   C     C_R   0.096993 0.873136 0.911271 -0.110834
C89   C     C_R   0.379256 0.316490 0.003912 0.040464
C90   C     C_R   0.687938 0.363622 0.003436 0.035379
C91   C     C_R   0.877977 0.816801 0.002791 0.040793
C92   C     C_R   0.185627 0.860307 0.005469 0.033212
H1    H     H_    0.312829 0.332503 0.829692 0.087665
H2    H     H_    0.747148 0.372354 0.177580 0.093567
H3    H     H_    0.812494 0.833624 0.828953 0.087778
H4    H     H_    0.246883 0.870300 0.178844 0.096379
H5    H     H_    0.942295 0.535695 0.489657 0.139242
H6    H     H_    0.042316 0.538467 0.665948 0.133252
H7    H     H_    0.446593 0.034317 0.487288 0.140342
H8    H     H_    0.542212 0.039052 0.665201 0.133672
H9    H     H_    0.291263 0.755243 0.852990 0.114145
H10   H     H_    0.863699 0.669918 0.181463 0.107667
H11   H     H_    0.762161 0.251182 0.829237 0.110246
H12   H     H_    0.359303 0.175375 0.186767 0.106905
H13   H     H_    0.695103 0.336419 0.834170 0.111401
H14   H     H_    0.433649 0.256776 0.185260 0.106788
H15   H     H_    0.227146 0.841556 0.863562 0.118614
H16   H     H_    0.942793 0.751945 0.180765 0.107034
H17   H     H_    0.845809 0.315790 0.183458 0.108897
H18   H     H_    0.279226 0.243529 0.834999 0.109677
H19   H     H_    0.267566 0.781888 0.158105 0.114990
H20   H     H_    0.767300 0.748162 0.829846 0.109455
H21   H     H_    0.324090 0.697234 0.143748 0.131097
H22   H     H_    0.691513 0.665889 0.831446 0.114712
H23   H     H_    0.905933 0.231968 0.178610 0.115132
H24   H     H_    0.201721 0.161104 0.837319 0.114267
H25   H     H_    0.567938 0.568108 0.638950 0.145713
H26   H     H_    0.612597 0.562401 0.517250 0.140156
H27   H     H_    0.070991 0.070969 0.638854 0.150208
H28   H     H_    0.115923 0.066460 0.517616 0.144626
H29   H     H_    0.419526 0.420619 0.354578 0.125489
H30   H     H_    0.376142 0.425698 0.479334 0.122373
H31   H     H_    0.947398 0.916417 0.376853 0.124568
H32   H     H_    0.902213 0.921209 0.498497 0.121369
H33   H     H_    0.453093 0.655985 0.168991 0.131840
H34   H     H_    0.576990 0.627837 0.830414 0.150590
H35   H     H_    0.964370 0.158414 0.170824 0.121409
H36   H     H_    0.078184 0.129428 0.831549 0.150445
H37   H     H_    0.535562 0.408192 0.312305 0.128395
H38   H     H_    0.450292 0.411052 0.677952 0.128074
H39   H     H_    0.044665 0.908513 0.316457 0.126918
H40   H     H_    0.957824 0.910659 0.683129 0.126642
H41   H     H_    0.206453 0.586075 0.739234 0.105667
H42   H     H_    0.777503 0.586169 0.326188 0.114080
H43   H     H_    0.708063 0.086678 0.743870 0.104615
H44   H     H_    0.279353 0.085955 0.326286 0.115067
H45   H     H_    0.212361 0.409854 0.745752 0.092053
H46   H     H_    0.769485 0.411459 0.327442 0.082902
H47   H     H_    0.711865 0.910035 0.744478 0.091566
H48   H     H_    0.271012 0.911279 0.328265 0.081834
H49   H     H_    0.294237 0.662110 0.823755 0.084024
H50   H     H_    0.748275 0.630776 0.178860 0.086429
H51   H     H_    0.804290 0.165801 0.825576 0.084274
H52   H     H_    0.247370 0.129898 0.179883 0.086012
H53   H     H_    0.488173 0.336136 0.177375 0.083357
H54   H     H_    0.570927 0.368543 0.827080 0.094200
H55   H     H_    0.985462 0.835819 0.176795 0.082225
H56   H     H_    0.069106 0.862297 0.828954 0.096106
H57   H     H_    0.877501 0.421629 0.513225 0.121379
H58   H     H_    0.052072 0.413254 0.657170 0.119506
H59   H     H_    0.376139 0.923097 0.514957 0.121622
H60   H     H_    0.551969 0.913590 0.659046 0.119830
N1    N     N_R   0.395440 0.396300 0.944370 -0.036927
N2    N     N_R   0.604560 0.396300 0.055630 -0.039991
N3    N     N_R   0.895440 0.896300 0.944370 -0.037067
N4    N     N_R   0.104560 0.896300 0.055630 -0.039274
N5    N     N_R   0.449890 0.602500 0.055780 -0.045321
N6    N     N_R   0.550110 0.602500 0.944220 -0.048366
N7    N     N_R   0.949890 0.102500 0.055780 -0.045542
N8    N     N_R   0.050110 0.102500 0.944220 -0.048320
N9    N     N_R   0.525090 0.470990 0.205640 -0.058091
N10   N     N_R   0.474910 0.470990 0.794360 -0.056125
N11   N     N_R   0.025090 0.970990 0.205640 -0.058303
N12   N     N_R   0.974910 0.970990 0.794360 -0.056122
N13   N     N_R   0.320240 0.527820 0.794510 -0.056003
N14   N     N_R   0.679760 0.527820 0.205490 -0.046038
N15   N     N_R   0.820240 0.027820 0.794510 -0.055730
N16   N     N_R   0.179760 0.027820 0.205490 -0.046853
N17   N     N_R   0.524580 0.527810 0.205160 -0.100730
N18   N     N_R   0.475420 0.527810 0.794840 -0.099977
N19   N     N_R   0.024580 0.027810 0.205160 -0.099948
N20   N     N_R   0.975420 0.027810 0.794840 -0.100904
N21   N     N_R   0.320750 0.470990 0.794990 -0.045914
N22   N     N_R   0.679250 0.470990 0.205010 -0.039859
N23   N     N_R   0.820750 0.970990 0.794990 -0.046210
N24   N     N_R   0.179250 0.970990 0.205010 -0.039136
N25   N     N_R   0.393580 0.602500 0.942610 -0.039186
N26   N     N_R   0.606420 0.602500 0.057390 -0.043575
N27   N     N_R   0.893580 0.102500 0.942610 -0.039929
N28   N     N_R   0.106420 0.102500 0.057390 -0.043916
N29   N     N_R   0.451750 0.396300 0.057540 -0.033864
N30   N     N_R   0.548250 0.396300 0.942460 -0.036842
N31   N     N_R   0.951750 0.896300 0.057540 -0.033802
N32   N     N_R   0.048250 0.896300 0.942460 -0.036458
Ni1   Ni    Ni4+2 0.435420 0.434250 0.870220 0.206768
Ni2   Ni    Ni4+2 0.564580 0.434250 0.129780 0.206828
Ni3   Ni    Ni4+2 0.935420 0.934250 0.870220 0.207322
Ni4   Ni    Ni4+2 0.064580 0.934250 0.129780 0.205380
Ni5   Ni    Ni4+2 0.563400 0.564580 0.128670 0.204585
Ni6   Ni    Ni4+2 0.436600 0.564580 0.871330 0.202836
Ni7   Ni    Ni4+2 0.063400 0.064580 0.128670 0.205211
Ni8   Ni    Ni4+2 0.936600 0.064580 0.871330 0.202462
O1    O     O_3   0.542177 0.595983 0.331644 -0.685787
C93   C     C_3   0.614303 0.627441 0.337400 0.139263
H61   H     H_    0.592297 0.671202 0.324468 0.139087
H62   H     H_    0.622697 0.617498 0.272375 0.088148
C94   C     C_3   0.709939 0.623632 0.450728 -0.310205
H63   H     H_    0.699052 0.629924 0.514638 0.206703
H64   H     H_    0.740813 0.582306 0.462369 0.189572
C95   C     C_3   0.779499 0.668274 0.465001 -1.009421
H65   H     H_    0.782753 0.669680 0.394332 0.253628
H66   H     H_    0.851798 0.660282 0.540556 0.270248
H67   H     H_    0.756120 0.709211 0.471692 0.266142
O2    O     O_3   0.444488 0.597888 0.661440 -0.699932
C96   C     C_3   0.381130 0.628366 0.670787 0.156865
H68   H     H_    0.403516 0.672250 0.679598 0.133767
H69   H     H_    0.384692 0.618684 0.744184 0.093083
C97   C     C_3   0.278609 0.621741 0.567236 -0.266631
H70   H     H_    0.278435 0.625445 0.494299 0.218908
H71   H     H_    0.250513 0.580337 0.566788 0.185633
C98   C     C_3   0.213323 0.665610 0.560237 -1.035295
H72   H     H_    0.208596 0.661409 0.629247 0.257745
H73   H     H_    0.140404 0.660839 0.483251 0.271616
H74   H     H_    0.240807 0.707405 0.561610 0.265915
O3    O     O_3   0.046655 0.096103 0.333279 -0.684396
C99   C     C_3   0.119940 0.126979 0.340495 0.134603
H75   H     H_    0.099536 0.170921 0.329709 0.137494
H76   H     H_    0.127488 0.117377 0.274556 0.087432
C100  C     C_3   0.215741 0.121935 0.453471 -0.312605
H77   H     H_    0.205647 0.127958 0.518066 0.204201
H78   H     H_    0.245459 0.080428 0.463648 0.190991
C101  C     C_3   0.286297 0.166084 0.468698 -1.010122
H79   H     H_    0.288415 0.168369 0.397278 0.253007
H80   H     H_    0.358668 0.156978 0.543021 0.270468
H81   H     H_    0.264654 0.207001 0.478020 0.265490
O4    O     O_3   0.948651 0.097447 0.662513 -0.700441
C102  C     C_3   0.883934 0.127622 0.670220 0.156755
H82   H     H_    0.905188 0.171749 0.678521 0.132212
H83   H     H_    0.886863 0.117994 0.743057 0.094214
C103  C     C_3   0.781867 0.120247 0.566204 -0.263280
H84   H     H_    0.782043 0.124892 0.493804 0.218958
H85   H     H_    0.755020 0.078288 0.564964 0.186130
C104  C     C_3   0.714918 0.162963 0.559262 -1.034938
H86   H     H_    0.708737 0.157177 0.626877 0.257540
H87   H     H_    0.642707 0.158340 0.481093 0.272493
H88   H     H_    0.742072 0.205286 0.563442 0.265423

loop_
_geom_bond_atom_site_label_1
_geom_bond_atom_site_label_2
_ccdc_geom_bond_type
C25   C31   A    
C23   H7    S    
C55   C56   A    
C26   C32   A    
C6    C82   A    
C53   C58   A    
C87   C91   A    
C63   H31   S    
C27   C29   A    
C14   C70   A    
C7    C83   A    
C19   C20   S    
C16   C72   A    
C99   C100  S    
N17   Ni5   S    
C82   H50   S    
N12   Ni3   S    
C5    C49   S    
N4    N32   A    
C39   C41   A    
C55   H27   S    
C96   H68   S    
N20   Ni8   S    
N15   Ni8   S    
C12   C68   A    
N21   Ni1   S    
N16   Ni7   S    
C87   H55   S    
C22   H6    S    
C32   C36   A    
C14   C21   S    
C3    C91   A    
C10   C58   S    
C85   H53   S    
C73   O1    S    
C17   H57   S    
N6    Ni6   S    
C71   H43   S    
C53   H25   S    
C72   H44   S    
C93   C94   S    
C48   H36   S    
C84   H52   S    
N13   N21   A    
C46   N6    A    
C29   C33   A    
C77   N21   A    
C5    C81   A    
N2    Ni2   S    
C103  C104  S    
C61   H29   S    
C27   H11   S    
C57   C61   A    
C76   N20   A    
C13   C69   A    
N8    N28   A    
C43   H23   S    
C4    H4    S    
C65   N9    A    
C42   H22   S    
C15   C79   A    
N27   Ni8   S    
C20   C24   D    
C11   C67   A    
C95   H65   S    
C25   C49   A    
C17   C18   S    
C69   H41   S    
C38   H18   S    
C18   C22   D    
N11   N19   A    
C104  H86   S    
C8    C52   S    
C41   H21   S    
C37   H17   S    
C28   C52   A    
N9    N17   A    
C35   C92   S    
C44   C52   A    
C40   C42   A    
C93   H61   S    
C95   H67   S    
C2    N2    A    
C8    C84   A    
C55   C60   A    
C30   H14   S    
C72   N16   A    
C29   H13   S    
C94   H63   S    
C9    C73   A    
C11   C59   S    
C78   H46   S    
C41   C49   A    
C27   C51   A    
N24   Ni4   S    
N5    Ni5   S    
N4    Ni4   S    
C1    C89   A    
N14   N22   A    
C30   C34   A    
C76   O4    S    
N7    Ni7   S    
C2    H2    S    
C45   N5    A    
C99   H75   S    
C80   N24   A    
C9    C57   S    
C40   H20   S    
C79   H47   S    
C86   C90   A    
N7    N27   A    
C100  H77   S    
N26   Ni5   S    
C85   C89   A    
C19   C23   D    
C97   H70   S    
C47   N7    A    
C101  H81   S    
C80   H48   S    
C5    C45   A    
C103  H84   S    
C33   C37   A    
N5    N25   A    
C10   C66   A    
N11   Ni4   S    
C16   C80   A    
N30   Ni1   S    
C68   H40   S    
C37   C43   A    
C94   C95   S    
C35   C39   A    
O3    C99   S    
C8    C48   A    
C98   H72   S    
C38   C44   A    
N9    Ni2   S    
C79   N23   A    
C44   H24   S    
C100  H78   S    
C21   H5    S    
C84   N28   A    
C28   H12   S    
C19   H59   S    
C102  H82   S    
N10   N18   A    
C36   C40   A    
C103  H85   S    
C81   H49   S    
C82   N26   A    
C9    C65   A    
C3    N3    A    
N13   Ni6   S    
C88   H56   S    
N19   Ni7   S    
C88   C92   A    
C6    C50   S    
C94   H64   S    
C1    N1    A    
C104  H87   S    
N8    Ni8   S    
C58   C62   A    
C42   C50   A    
C36   C91   S    
C1    H1    S    
C15   C24   S    
C98   H73   S    
N1    N29   A    
C97   H71   S    
O4    C102  S    
C16   C23   S    
C54   H26   S    
C13   C77   A    
C75   N19   A    
C31   C35   A    
N12   N20   A    
C66   N10   A    
C24   H8    S    
C73   N17   A    
C93   H62   S    
C12   C76   A    
C62   H30   S    
C70   H42   S    
C96   C97   S    
N16   N24   A    
C101  H80   S    
C85   N29   A    
N25   Ni6   S    
C6    C46   A    
C4    N4    A    
C34   C38   A    
C31   H15   S    
C46   H34   S    
C67   H39   S    
C77   H45   S    
N28   Ni7   S    
N10   Ni1   S    
C65   H37   S    
N29   Ni2   S    
C56   C59   A    
C53   C54   A    
C56   H28   S    
C15   C71   A    
C64   H32   S    
N18   Ni6   S    
C59   C63   A    
N32   Ni3   S    
C83   N27   A    
C60   C64   A    
N14   Ni5   S    
C48   N8    A    
N23   Ni3   S    
C26   C50   A    
N6    N26   A    
C34   C89   S    
C7    C51   S    
C28   C30   A    
C102  H83   S    
C11   C75   A    
N31   Ni4   S    
C26   H10   S    
C100  C101  S    
C87   N31   A    
C39   H19   S    
C10   C74   A    
C25   H9    S    
N1    Ni1   S    
C47   H35   S    
C43   C51   A    
C97   C98   S    
N2    N30   A    
C71   N15   A    
C75   O3    S    
C3    H3    S    
C68   N12   A    
C13   C22   S    
N15   N23   A    
N3    N31   A    
C14   C78   A    
C61   C62   A    
C104  H88   S    
C69   N13   A    
C74   N18   A    
C70   N14   A    
C88   N32   A    
C86   H54   S    
C81   N25   A    
C63   C64   A    
C12   C60   S    
C67   N11   A    
C102  C103  S    
C20   H60   S    
O2    C96   S    
C74   O2    S    
C2    C90   A    
O1    C93   S    
C32   H16   S    
C45   H33   S    
C86   N30   A    
C78   N22   A    
C83   H51   S    
N3    Ni3   S    
C4    C92   A    
C98   H74   S    
C33   C90   S    
C96   H69   S    
C101  H79   S    
C54   C57   A    
C95   H66   S    
N22   Ni2   S    
C99   H76   S    
C7    C47   A    
C66   H38   S    
C18   H58   S    
C17   C21   D    
