data_mof_unit_25847.cif
_audit_creation_date              2012-10-26T21:13:42-0400
_audit_creation_method            fapswitch 2.2
_symmetry_space_group_name_H-M    P1
_symmetry_Int_Tables_number       1
_space_group_crystal_system       triclinic
_cell_length_a                    9.076508
_cell_length_b                    10.825569
_cell_length_c                    9.547815
_cell_angle_alpha                 89.901091
_cell_angle_beta                  90.022246
_cell_angle_gamma                 90.130966
_cell_volume                      938.14876017

loop_
_atom_site_label
_atom_site_type_symbol
_atom_type_description
_atom_site_fract_x
_atom_site_fract_y
_atom_site_fract_z
_atom_type_partial_charge
C1    C     C_R   0.502226 0.262315 0.500007 0.543617
C2    C     C_R   0.571621 0.590921 0.926034 0.130749
C3    C     C_3   0.731979 0.620824 0.919247 -0.286179
C4    C     C_R   0.220674 0.500047 0.499959 0.555583
C5    C     C_3   0.732402 0.620250 0.078667 -0.117453
C6    C     C_R   0.502238 0.737681 0.499832 0.563240
C7    C     C_R   0.779313 0.500206 0.500034 0.573112
C8    C     C_1   0.065530 0.500215 0.499948 -0.043959
C9    C     C_1   0.934427 0.500279 0.500019 -0.035678
C10   C     C_R   0.531890 0.063372 0.623989 0.025243
C11   C     C_R   0.515984 0.129219 0.499074 0.009551
C12   C     C_R   0.519740 0.935967 0.371463 -0.133353
C13   C     C_R   0.520334 0.064594 0.371515 -0.155817
C14   C     C_2   0.762104 0.744818 0.141656 0.237493
C15   C     C_R   0.515906 0.870814 0.498885 0.020528
C16   C     C_R   0.532122 0.936185 0.623886 0.019811
C17   C     C_3   0.445535 0.929059 0.756727 -0.264367
C18   C     C_3   0.445071 0.069388 0.756710 -0.272519
C19   C     C_R   0.571559 0.591109 0.073520 0.129051
C20   C     C_R   0.418200 0.417204 0.074539 -0.008223
C21   C     C_R   0.418164 0.417214 0.925685 -0.006903
Cu1   Cu    Cu3+1 0.499990 0.499980 0.640670 0.943993
Cu2   Cu    Cu3+1 0.500010 0.500020 0.359330 0.968485
H1    H     H_    0.516215 0.112649 0.271999 0.131213
H2    H     H_    0.354143 0.348679 0.870017 0.111729
H3    H     H_    0.798362 0.544448 0.874267 0.153720
H4    H     H_    0.706838 0.826313 0.101345 0.083835
H5    H     H_    0.752140 0.712682 0.870376 0.120808
H6    H     H_    0.799407 0.544190 0.124193 0.166441
H7    H     H_    0.514170 0.888337 0.272042 0.131977
H8    H     H_    0.334323 0.887815 0.741569 0.148649
H9    H     H_    0.510787 0.888756 0.844105 0.130492
H10   H     H_    0.333614 0.109728 0.741360 0.135475
H11   H     H_    0.509863 0.109958 0.844203 0.135206
H12   H     H_    0.354235 0.348629 0.130428 0.115515
N1    N     N_R   0.500920 0.500930 0.147930 -0.237910
N2    N     N_R   0.500930 0.500890 0.852020 -0.227130
O1    O     O_R   0.500000 0.319640 0.618810 -0.506932
O2    O     O_R   0.500020 0.319680 0.381230 -0.518761
O3    O     O_R   0.288380 0.499980 0.618770 -0.501723
O4    O     O_R   0.288400 0.500020 0.381190 -0.490625
O5    O     O_R   0.499980 0.680320 0.618770 -0.500415
O6    O     O_R   0.500000 0.680360 0.381190 -0.492814
O7    O     O_R   0.711600 0.499980 0.618810 -0.506374
O8    O     O_R   0.711620 0.500020 0.381230 -0.482014
O9    O     O_2   0.848815 0.755217 0.238626 -0.496369

loop_
_geom_bond_atom_site_label_1
_geom_bond_atom_site_label_2
_ccdc_geom_bond_type
C5    C19   S    
C14   H4    S    
C11   C13   A    
Cu2   O4    S    
C12   C15   A    
C4    C8    S    
C6    O6    A    
Cu1   O3    S    
C2    C3    S    
C2    C19   A    
C21   N2    A    
C14   O9    D    
C10   C16   A    
C7    O7    A    
C12   C13   A    
C18   H11   S    
C2    N2    A    
C5    C14   S    
Cu1   O5    S    
C1    O1    A    
C10   C18   S    
Cu2   O8    S    
C7    O8    A    
C3    H5    S    
C17   C18   S    
C5    H6    S    
C19   N1    A    
C6    O5    A    
C17   H8    S    
C18   H10   S    
Cu2   O2    S    
C10   C11   A    
C1    O2    A    
C15   C16   A    
Cu1   O1    S    
Cu2   O6    S    
C20   C21   A    
Cu2   N1    S    
C4    O4    A    
C7    C9    S    
C17   H9    S    
C21   H2    S    
Cu1   Cu2   S    
C8    C9    T    
C20   N1    A    
C12   H7    S    
C6    C15   S    
Cu1   N2    S    
C20   H12   S    
C3    H3    S    
Cu1   O7    S    
C4    O3    A    
C13   H1    S    
C16   C17   S    
C3    C5    S    
C1    C11   S    
