data_mof_unit_26236.cif
_audit_creation_date              2012-12-11T16:04:50-0500
_audit_creation_method            fapswitch 2.2
_symmetry_space_group_name_H-M    P1
_symmetry_Int_Tables_number       1
_space_group_crystal_system       triclinic
_cell_length_a                    10.698227
_cell_length_b                    10.610741
_cell_length_c                    16.861963
_cell_angle_alpha                 98.618241
_cell_angle_beta                  98.962521
_cell_angle_gamma                 60.891064
_cell_volume                      1645.8333421

loop_
_atom_site_label
_atom_site_type_symbol
_atom_type_description
_atom_site_fract_x
_atom_site_fract_y
_atom_site_fract_z
_atom_type_partial_charge
C1    C     C_R   0.383710 0.704226 0.387300 0.555044
C2    C     C_3   0.309715 0.688851 0.232638 -0.121956
C3    C     C_3   0.374871 0.743955 0.307696 0.047524
C4    C     C_R   0.367187 0.343602 0.359872 0.572945
C5    C     C_3   0.496913 0.726701 0.262730 -0.127835
C6    C     C_3   0.403186 0.884814 0.240993 -0.117539
C7    C     C_3   0.283154 0.900854 0.287995 -0.114917
C8    C     C_3   0.216411 0.846828 0.212372 -0.095140
C9    C     C_3   0.337611 0.829519 0.165660 0.052518
C10   C     C_3   0.478504 0.264390 0.788056 0.289206
C11   C     C_3   0.441486 0.409705 0.760184 0.258348
C12   C     C_3   0.739635 0.373186 0.250848 -0.148657
C13   C     C_3   0.376933 0.367383 0.679876 0.034497
C14   C     C_3   0.412548 0.221179 0.708178 -0.143005
C15   C     C_3   0.264050 0.295734 0.741356 -0.160797
C16   C     C_R   0.782055 0.373367 0.403957 0.557386
C17   C     C_3   0.227529 0.441957 0.711652 -0.145744
C18   C     C_3   0.292898 0.484489 0.793493 -0.165193
C19   C     C_3   0.331550 0.337311 0.821595 0.024589
C20   C     C_1   0.849912 0.326464 0.705375 -0.020102
C21   C     C_1   0.896815 0.293089 0.772907 -0.049426
C22   C     C_1   0.337421 0.813889 0.709411 -0.013558
C23   C     C_3   0.843801 0.333524 0.327719 0.041148
C24   C     C_1   0.312099 0.841036 0.778174 -0.033303
C25   C     C_R   0.961510 0.282498 0.102747 0.547163
C26   C     C_R   0.292961 0.262052 0.123054 0.539477
C27   C     C_R   0.296321 0.888223 0.087851 0.530941
C28   C     C_R   0.356141 0.772461 0.626901 0.561057
C29   C     C_R   0.944669 0.274694 0.856216 0.553168
C30   C     C_R   0.310181 0.297362 0.894399 0.568632
C31   C     C_R   0.279468 0.885630 0.858838 0.520468
C32   C     C_R   0.408963 0.378128 0.601586 0.607623
C33   C     C_R   0.780107 0.376206 0.628479 0.574732
C34   C     C_3   0.942055 0.185288 0.287227 -0.146060
C35   C     C_1   0.327795 0.318864 0.277768 -0.051604
C36   C     C_1   0.308360 0.294569 0.206968 -0.066984
C37   C     C_3   0.839007 0.225349 0.208974 -0.099929
C38   C     C_3   0.567634 0.508269 0.844916 -0.082331
C39   C     C_3   0.710320 0.078315 0.781934 -0.083547
C40   C     C_2   0.973567 0.499392 0.354058 0.583421
C41   C     C_3   0.027108 0.253055 0.259883 -0.162351
C42   C     C_3   0.926397 0.400905 0.300977 0.066076
C43   C     C_3   0.822438 0.442505 0.224285 -0.121778
C44   C     C_3   0.921859 0.294937 0.183447 0.028504
C45   C     C_3   0.430746 0.672339 0.185411 -0.149739
Cr1   Cr    Cr6+3 0.608340 0.611040 0.520430 1.041611
Cr2   Cr    Cr6+3 0.287650 0.601120 0.489350 1.039547
Cr3   Cr    Cr6+3 0.604040 0.287870 0.490280 1.031948
Cr4   Cr    Cr6+3 0.054020 0.052700 0.970850 1.012503
Cr5   Cr    Cr6+3 0.059230 0.375120 0.993390 1.015862
Cr6   Cr    Cr6+3 0.374950 0.061200 0.992340 1.028876
H1    H     H_    0.621892 0.417340 0.249940 0.115247
H2    H     H_    0.983983 0.082628 0.315499 0.131932
H3    H     H_    0.145359 0.201606 0.261746 0.093229
H4    H     H_    0.775337 0.546859 0.196840 0.151787
H5    H     H_    0.271170 0.608472 0.231301 0.139677
H6    H     H_    0.490452 0.581384 0.141032 0.123624
H7    H     H_    0.609427 0.682505 0.290063 0.147126
H8    H     H_    0.632011 0.411223 0.879185 0.193075
H9    H     H_    0.469592 0.584914 0.875101 0.096781
H10   H     H_    0.632382 0.564512 0.846441 0.166749
H11   H     H_    0.725943 0.134239 0.736520 0.134783
H12   H     H_    0.441340 0.965576 0.242465 0.132033
H13   H     H_    0.680304 0.994907 0.751859 0.108813
H14   H     H_    0.814581 0.020476 0.818158 0.167267
H15   H     H_    0.059198 0.540667 0.463248 0.351855
H16   H     H_    0.229712 0.989827 0.334553 0.132544
H17   H     H_    0.099859 0.896842 0.191802 0.141445
H18   H     H_    0.457765 0.115169 0.671749 0.130180
H19   H     H_    0.189357 0.249435 0.735693 0.115690
H20   H     H_    0.124811 0.513643 0.677850 0.151432
H21   H     H_    0.242739 0.590202 0.829781 0.128570
H22   H     H_    0.803183 0.153081 0.169438 0.147545
O1    O     O_R   0.751220 0.499230 0.435170 -0.504768
O2    O     O_R   0.412990 0.180750 0.091610 -0.498611
O3    O     O_R   0.366620 0.943130 0.065760 -0.518280
O4    O     O_R   0.477220 0.727600 0.436870 -0.497388
O5    O     O_R   0.160510 0.906330 0.879210 -0.529238
O6    O     O_R   0.930190 0.179050 0.889450 -0.482451
O7    O     O_R   0.909140 0.398170 0.896710 -0.515902
O8    O     O_R   0.186190 0.363460 0.918830 -0.520004
O9    O     O_R   0.401670 0.173200 0.913310 -0.461834
O10   O     O_R   0.356120 0.936130 0.900470 -0.497010
O11   O     O_3   0.162740 0.163010 0.985530 -0.315068
O12   O     O_R   0.297880 0.469080 0.560050 -0.506597
O13   O     O_R   0.258650 0.745120 0.411470 -0.501939
O14   O     O_R   0.297070 0.467240 0.395960 -0.488289
O15   O     O_R   0.488830 0.252610 0.387790 -0.504982
O16   O     O_R   0.724400 0.302390 0.420980 -0.507177
O17   O     O_R   0.752100 0.501210 0.612190 -0.497063
O18   O     O_R   0.478040 0.729440 0.600970 -0.486019
O19   O     O_R   0.259530 0.747110 0.588490 -0.520921
O20   O     O_3   0.535037 0.469121 0.763843 -0.591814
O21   O     O_3   0.607314 0.177001 0.833935 -0.547966
O22   O     O_2   0.946901 0.614825 0.331399 -0.528899
O23   O     O_R   0.489720 0.254590 0.564810 -0.519815
O24   O     O_R   0.043619 0.460439 0.430452 -0.676283
O25   O     O_R   0.725220 0.304230 0.585080 -0.512116
O26   O     O_3   0.500010 0.500010 0.500020 -0.307344
O27   O     O_R   0.171830 0.913880 0.057510 -0.526264
O28   O     O_R   0.940690 0.186050 0.054730 -0.486993
O29   O     O_R   0.920470 0.405720 0.075010 -0.512533
O30   O     O_R   0.196690 0.370460 0.084120 -0.501132

loop_
_geom_bond_atom_site_label_1
_geom_bond_atom_site_label_2
_ccdc_geom_bond_type
Cr1   O26   S    
C11   C18   S    
C9    C45   S    
C34   C37   S    
C1    O4    A    
C41   C42   S    
C13   C32   S    
C35   C36   T    
C6    C9    S    
Cr5   O11   S    
C7    C8    S    
C4    O14   A    
C15   C19   S    
C39   H13   S    
C12   C23   S    
C45   H6    S    
C23   C42   S    
C5    H7    S    
C16   O1    A    
Cr2   O12   S    
Cr4   O11   S    
Cr6   O2    S    
C18   C19   S    
C12   C43   S    
C3    C7    S    
Cr4   O28   S    
C5    C6    S    
C25   O29   A    
C10   O21   S    
Cr2   O26   S    
Cr4   O5    S    
C33   O25   A    
Cr2   O19   S    
C12   C37   S    
C15   H19   S    
C8    C9    S    
Cr1   O17   S    
Cr3   O15   S    
C9    C27   S    
C38   H10   S    
C11   O20   S    
C40   C42   S    
C4    C35   S    
C16   O16   A    
C22   C28   S    
C13   C14   S    
C39   H14   S    
C34   C41   S    
C25   C44   S    
C12   H1    S    
C26   O2    A    
C2    C45   S    
C18   H21   S    
C27   O27   A    
Cr2   O13   S    
Cr6   O3    S    
C10   C14   S    
C40   O24   S    
Cr1   O18   S    
C21   C29   S    
Cr4   O6    S    
C1    C3    S    
Cr2   O14   S    
C6    H12   S    
C30   O9    A    
C43   C44   S    
C39   O21   S    
C26   O30   A    
Cr5   O29   S    
C29   O6    A    
C10   C19   S    
C23   C34   S    
C17   C18   S    
C31   O10   A    
C28   O19   A    
Cr6   O9    S    
C38   H9    S    
C20   C33   S    
C26   C36   S    
C32   O23   A    
C17   H20   S    
C16   C23   S    
Cr3   O16   S    
C41   C44   S    
C22   C24   T    
C42   C43   S    
C40   O22   D    
C27   O3    A    
Cr6   O10   S    
Cr1   O1    S    
H15   O24   S    
C31   O5    A    
C43   H4    S    
C1    O13   A    
C15   C17   S    
Cr3   O26   S    
C37   H22   S    
Cr3   O23   S    
C2    C8    S    
C3    C5    S    
Cr5   O7    S    
Cr1   O4    S    
C8    H17   S    
C6    C7    S    
C4    O15   A    
Cr3   O25   S    
C13   C17   S    
C30   O8    A    
C2    C3    S    
C24   C31   S    
C2    H5    S    
C33   O17   A    
Cr4   O27   S    
C11   C13   S    
C25   O28   A    
C29   O7    A    
C5    C45   S    
C37   C44   S    
C32   O12   A    
C38   O20   S    
C14   H18   S    
C28   O18   A    
C41   H3    S    
C10   C11   S    
C7    H16   S    
C38   H8    S    
Cr5   O30   S    
C20   C21   T    
C34   H2    S    
C39   H11   S    
C14   C15   S    
C19   C30   S    
Cr6   O11   S    
Cr5   O8    S    
