data_mof_unit_64031.cif
_audit_creation_date              2012-12-10T16:55:24-0500
_audit_creation_method            fapswitch 2.2
_symmetry_space_group_name_H-M    P1
_symmetry_Int_Tables_number       1
_space_group_crystal_system       triclinic
_cell_length_a                    29.356275
_cell_length_b                    30.708309
_cell_length_c                    21.26553
_cell_angle_alpha                 90.005975
_cell_angle_beta                  133.53634
_cell_angle_gamma                 89.986005
_cell_volume                      13897.4043016

loop_
_atom_site_label
_atom_site_type_symbol
_atom_type_description
_atom_site_fract_x
_atom_site_fract_y
_atom_site_fract_z
_atom_type_partial_charge
C1    C     C_R   0.307400 0.190664 0.118592 0.808947
C2    C     C_R   0.691694 0.809269 0.881588 0.807525
C3    C     C_R   0.692575 0.190675 0.881431 0.808029
C4    C     C_R   0.308225 0.809289 0.118425 0.805754
C5    C     C_R   0.807400 0.690664 0.118592 0.808944
C6    C     C_R   0.191694 0.309269 0.881588 0.807526
C7    C     C_R   0.192574 0.690675 0.881431 0.808030
C8    C     C_R   0.808223 0.309289 0.118425 0.805749
C9    C     C_R   0.384406 0.133877 0.329425 -0.003204
C10   C     C_R   0.630100 0.871677 0.683527 -0.079745
C11   C     C_R   0.616632 0.133530 0.671379 -0.002654
C12   C     C_R   0.372702 0.870474 0.319153 -0.077858
C13   C     C_R   0.884410 0.633879 0.329429 -0.003207
C14   C     C_R   0.130093 0.371674 0.683522 -0.079704
C15   C     C_R   0.116639 0.633527 0.671386 -0.002645
C16   C     C_R   0.872695 0.370478 0.319147 -0.077784
C17   C     C_R   0.344725 0.162715 0.257991 0.032338
C18   C     C_R   0.669711 0.844518 0.757830 0.056973
C19   C     C_R   0.656318 0.162269 0.742988 0.031498
C20   C     C_R   0.333155 0.842889 0.245549 0.058439
C21   C     C_R   0.844729 0.662717 0.257994 0.032343
C22   C     C_R   0.169704 0.344514 0.757822 0.056961
C23   C     C_R   0.156325 0.662266 0.742995 0.031494
C24   C     C_R   0.833144 0.342894 0.245539 0.058442
C25   C     C_R   0.338135 0.157709 0.185976 -0.145155
C26   C     C_R   0.660439 0.842008 0.814488 -0.135040
C27   C     C_R   0.661752 0.157750 0.814074 -0.138109
C28   C     C_R   0.339341 0.842100 0.185472 -0.126339
C29   C     C_R   0.838135 0.657709 0.185976 -0.145128
C30   C     C_R   0.160439 0.342009 0.814489 -0.135056
C31   C     C_R   0.161750 0.657750 0.814074 -0.138108
C32   C     C_R   0.839341 0.342099 0.185473 -0.126421
C33   C     C_R   0.364733 0.122314 0.180278 -0.271185
C34   C     C_R   0.616232 0.867855 0.802426 -0.272505
C35   C     C_R   0.633514 0.123120 0.818480 -0.279519
C36   C     C_R   0.379642 0.870436 0.192927 -0.289104
C37   C     C_R   0.864728 0.622312 0.180276 -0.271240
C38   C     C_R   0.116245 0.367863 0.802442 -0.272476
C39   C     C_R   0.133500 0.623126 0.818471 -0.279506
C40   C     C_R   0.879659 0.370423 0.192945 -0.288861
C41   C     C_R   0.400666 0.092104 0.247106 0.403371
C42   C     C_R   0.579986 0.896964 0.733944 0.475842
C43   C     C_R   0.597372 0.093127 0.751434 0.390219
C44   C     C_R   0.415742 0.899855 0.260946 0.447913
C45   C     C_R   0.900663 0.592103 0.247106 0.403297
C46   C     C_R   0.080000 0.396974 0.733963 0.475828
C47   C     C_R   0.097357 0.593133 0.751424 0.390209
C48   C     C_R   0.915763 0.399839 0.260968 0.447826
C49   C     C_R   0.409921 0.097288 0.320961 -0.218662
C50   C     C_R   0.588440 0.900749 0.676264 -0.241674
C51   C     C_R   0.589827 0.097487 0.678810 -0.215296
C52   C     C_R   0.411061 0.901335 0.322744 -0.231238
C53   C     C_R   0.909922 0.597289 0.320964 -0.218612
C54   C     C_R   0.088442 0.400752 0.676269 -0.241690
C55   C     C_R   0.089825 0.597488 0.678810 -0.215311
C56   C     C_R   0.911066 0.401331 0.322751 -0.231419
C57   C     C_R   0.942298 0.437472 0.384765 0.877408
C58   C     C_R   0.057915 0.562180 0.615672 1.024386
C59   C     C_R   0.057525 0.437273 0.614878 0.870493
C60   C     C_R   0.942078 0.562164 0.384366 1.025688
C61   C     C_R   0.442298 0.937472 0.384765 0.877514
C62   C     C_R   0.557915 0.062180 0.615670 1.024416
C63   C     C_R   0.557524 0.937272 0.614876 0.870479
C64   C     C_R   0.442076 0.062163 0.384363 1.025684
C65   C     C_R   0.334572 0.249896 0.999972 0.783468
C66   C     C_R   0.665449 0.750086 0.000071 0.782762
C67   C     C_R   0.665433 0.249911 0.000041 0.783213
C68   C     C_R   0.334550 0.750076 0.999924 0.782664
C69   C     C_R   0.834572 0.749896 0.999972 0.783467
C70   C     C_R   0.165449 0.250086 0.000071 0.782760
C71   C     C_R   0.165433 0.749911 0.000041 0.783214
C72   C     C_R   0.834550 0.250076 0.999924 0.782671
C73   C     C_1   0.385788 0.249894 0.999843 -0.194448
C74   C     C_1   0.614197 0.750133 0.000127 -0.191925
C75   C     C_1   0.614202 0.249910 0.000140 -0.194835
C76   C     C_1   0.385797 0.750109 0.999857 -0.192625
C77   C     C_1   0.885788 0.749894 0.999843 -0.194451
C78   C     C_1   0.114197 0.250133 0.000127 -0.191923
C79   C     C_1   0.114202 0.749910 0.000140 -0.194834
C80   C     C_1   0.885797 0.250109 0.999857 -0.192611
C81   C     C_1   0.428274 0.249906 0.999836 -0.003823
C82   C     C_1   0.571694 0.750151 0.000100 -0.002085
C83   C     C_1   0.571707 0.249918 0.000130 -0.004042
C84   C     C_1   0.428292 0.750130 0.999866 -0.002555
C85   C     C_1   0.928274 0.749906 0.999836 -0.003826
C86   C     C_1   0.071694 0.250151 0.000100 -0.002082
C87   C     C_1   0.071707 0.749918 0.000130 -0.004040
C88   C     C_1   0.928292 0.250130 0.999866 -0.002542
C89   C     C_1   0.478716 0.249917 0.999926 -0.001703
C90   C     C_1   0.521255 0.750155 0.000016 0.000801
C91   C     C_1   0.521260 0.249921 0.000030 -0.001690
C92   C     C_1   0.478724 0.750148 0.999937 0.000538
C93   C     C_1   0.978716 0.749917 0.999926 -0.001704
C94   C     C_1   0.021255 0.250155 0.000016 0.000806
C95   C     C_1   0.021260 0.749921 0.000030 -0.001689
C96   C     C_1   0.978724 0.250148 0.999937 0.000546
C97   C     C_R   0.311556 0.195454 0.259326 -0.146721
C98   C     C_R   0.718281 0.820652 0.774647 -0.142545
C99   C     C_R   0.690524 0.194494 0.742692 -0.147814
C100  C     C_R   0.287424 0.817079 0.232557 -0.144681
C101  C     C_R   0.811562 0.695458 0.259332 -0.146724
C102  C     C_R   0.218266 0.320642 0.774629 -0.142546
C103  C     C_R   0.190539 0.694486 0.742707 -0.147814
C104  C     C_R   0.787403 0.317092 0.232535 -0.144683
C105  C     C_R   0.321239 0.202145 0.332314 -0.190682
C106  C     C_R   0.726475 0.822198 0.717709 -0.234941
C107  C     C_R   0.681989 0.200748 0.670536 -0.189680
C108  C     C_R   0.282110 0.817130 0.292571 -0.233815
C109  C     C_R   0.821250 0.702151 0.332322 -0.190683
C110  C     C_R   0.226452 0.322183 0.717682 -0.234933
C111  C     C_R   0.182012 0.700737 0.670557 -0.189677
C112  C     C_R   0.782080 0.317149 0.292539 -0.233816
C113  C     C_R   0.364720 0.177039 0.405865 -0.228426
C114  C     C_R   0.684404 0.845302 0.640722 -0.126361
C115  C     C_R   0.638528 0.175796 0.596722 -0.229071
C116  C     C_R   0.324271 0.840831 0.368709 -0.126575
C117  C     C_R   0.864731 0.677045 0.405873 -0.228419
C118  C     C_R   0.184381 0.345289 0.640697 -0.126376
C119  C     C_R   0.138550 0.675787 0.596741 -0.229077
C120  C     C_R   0.824241 0.340848 0.368681 -0.126583
C121  C     C_R   0.397316 0.143225 0.406307 0.449050
C122  C     C_R   0.634607 0.868172 0.620631 0.440721
C123  C     C_R   0.604772 0.142560 0.595211 0.448150
C124  C     C_R   0.371260 0.865734 0.384941 0.434086
C125  C     C_R   0.897323 0.643228 0.406312 0.449039
C126  C     C_R   0.134592 0.368166 0.620618 0.440743
C127  C     C_R   0.104786 0.642555 0.595223 0.448156
C128  C     C_R   0.871242 0.365743 0.384925 0.434104
Cu1   Cu    Cu3+1 0.280720 0.280980 0.061500 0.958955
Cu2   Cu    Cu3+1 0.719280 0.719020 0.938500 0.959847
Cu3   Cu    Cu3+1 0.719280 0.280980 0.938500 0.958596
Cu4   Cu    Cu3+1 0.280720 0.719020 0.061500 0.960012
Cu5   Cu    Cu3+1 0.780720 0.780980 0.061500 0.958950
Cu6   Cu    Cu3+1 0.219280 0.219020 0.938500 0.959848
Cu7   Cu    Cu3+1 0.219280 0.780980 0.938500 0.958589
Cu8   Cu    Cu3+1 0.780720 0.219020 0.061500 0.960010
Cu9   Cu    Cu3+1 0.042420 0.500000 0.499930 1.018004
Cu10  Cu    Cu3+1 0.957580 0.500000 0.500070 1.015256
Cu11  Cu    Cu3+1 0.542420 1.000000 0.499930 1.017979
Cu12  Cu    Cu3+1 0.457580 1.000000 0.500070 1.015245
H1    H     H_    0.357774 0.118146 0.123534 0.168085
H2    H     H_    0.609577 0.865308 0.846507 0.156527
H3    H     H_    0.639262 0.119442 0.874323 0.163455
H4    H     H_    0.383220 0.869692 0.145467 0.153089
H5    H     H_    0.857767 0.618139 0.123529 0.168087
H6    H     H_    0.109599 0.365322 0.846533 0.156537
H7    H     H_    0.139239 0.619453 0.874305 0.163461
H8    H     H_    0.883253 0.369671 0.145502 0.153175
H9    H     H_    0.276961 0.215787 0.203533 0.150259
H10   H     H_    0.750978 0.801164 0.832686 0.134053
H11   H     H_    0.724956 0.214788 0.798643 0.149121
H12   H     H_    0.254559 0.797278 0.175062 0.137529
H13   H     H_    0.776966 0.715790 0.203539 0.150263
H14   H     H_    0.250963 0.301153 0.832666 0.134063
H15   H     H_    0.224970 0.714781 0.798659 0.149113
H16   H     H_    0.754539 0.297292 0.175038 0.137516
H17   H     H_    0.295721 0.227562 0.332407 0.155096
H18   H     H_    0.764247 0.804033 0.731822 0.158559
H19   H     H_    0.708308 0.225766 0.671222 0.155182
H20   H     H_    0.246477 0.797475 0.281357 0.158012
H21   H     H_    0.795734 0.727569 0.332418 0.155095
H22   H     H_    0.264219 0.304014 0.731787 0.158556
H23   H     H_    0.208336 0.725752 0.671248 0.155182
H24   H     H_    0.746439 0.297500 0.281317 0.158015
H25   H     H_    0.373225 0.184102 0.463118 0.127470
H26   H     H_    0.688721 0.843778 0.594125 0.150872
H27   H     H_    0.630847 0.182593 0.540042 0.127963
H28   H     H_    0.322240 0.838333 0.417544 0.148634
H29   H     H_    0.873239 0.684108 0.463129 0.127468
H30   H     H_    0.188691 0.343763 0.594093 0.150847
H31   H     H_    0.130875 0.682582 0.540064 0.127962
H32   H     H_    0.822203 0.338354 0.417508 0.148644
O1    O     O_R   0.321010 0.231060 0.142100 -0.581313
O2    O     O_R   0.678990 0.768940 0.857900 -0.577317
O3    O     O_R   0.678990 0.231060 0.857900 -0.581557
O4    O     O_R   0.321010 0.768940 0.142100 -0.578871
O5    O     O_R   0.821010 0.731060 0.142100 -0.581317
O6    O     O_R   0.178990 0.268940 0.857900 -0.577318
O7    O     O_R   0.178990 0.731060 0.857900 -0.581554
O8    O     O_R   0.821010 0.268940 0.142100 -0.578864
O9    O     O_R   0.269040 0.178650 0.038140 -0.575811
O10   O     O_R   0.730960 0.821350 0.961860 -0.571665
O11   O     O_R   0.730960 0.178650 0.961860 -0.574372
O12   O     O_R   0.269040 0.821350 0.038140 -0.571465
O13   O     O_R   0.769040 0.678650 0.038140 -0.575809
O14   O     O_R   0.230960 0.321350 0.961860 -0.571666
O15   O     O_R   0.230960 0.678650 0.961860 -0.574366
O16   O     O_R   0.769040 0.321350 0.038140 -0.571461
O17   O     O_R   0.337910 0.276140 0.051940 -0.558833
O18   O     O_R   0.662090 0.723860 0.948060 -0.559137
O19   O     O_R   0.662090 0.276140 0.948060 -0.558710
O20   O     O_R   0.337910 0.723860 0.051940 -0.559073
O21   O     O_R   0.837910 0.776140 0.051940 -0.558835
O22   O     O_R   0.162090 0.223860 0.948060 -0.559136
O23   O     O_R   0.162090 0.776140 0.948060 -0.558710
O24   O     O_R   0.837910 0.223860 0.051940 -0.559075
O25   O     O_R   0.285940 0.223740 0.947980 -0.568528
O26   O     O_R   0.714060 0.776260 0.052020 -0.572822
O27   O     O_R   0.714060 0.223740 0.052020 -0.569149
O28   O     O_R   0.285940 0.776260 0.947980 -0.572549
O29   O     O_R   0.785940 0.723740 0.947980 -0.568525
O30   O     O_R   0.214060 0.276260 0.052020 -0.572821
O31   O     O_R   0.214060 0.723740 0.052020 -0.569151
O32   O     O_R   0.785940 0.276260 0.947980 -0.572546
O33   O     O_R   0.990910 0.454660 0.410130 -0.543181
O34   O     O_R   0.009090 0.545340 0.589870 -0.565471
O35   O     O_R   0.009090 0.454660 0.589870 -0.549619
O36   O     O_R   0.990910 0.545340 0.410130 -0.571001
O37   O     O_R   0.490910 0.954660 0.410130 -0.543069
O38   O     O_R   0.509090 0.045340 0.589870 -0.565477
O39   O     O_R   0.509090 0.954660 0.589870 -0.549591
O40   O     O_R   0.490910 0.045340 0.410130 -0.571001
O41   O     O_R   0.919170 0.454670 0.410130 -0.569528
O42   O     O_R   0.080830 0.545330 0.589870 -0.579122
O43   O     O_R   0.080830 0.454670 0.589870 -0.567654
O44   O     O_R   0.919170 0.545330 0.410130 -0.578764
O45   O     O_R   0.419170 0.954670 0.410130 -0.569582
O46   O     O_R   0.580830 0.045330 0.589870 -0.579133
O47   O     O_R   0.580830 0.954670 0.589870 -0.567676
O48   O     O_R   0.419170 0.045330 0.410130 -0.578763
O49   O     O_3   0.443747 0.121004 0.482333 -0.729962
H33   H     H_    0.447009 0.132135 0.529104 0.301937
O50   O     O_3   0.589048 0.882699 0.536553 -0.741040
H34   H     H_    0.548082 0.878497 0.518520 0.280324
O51   O     O_3   0.558060 0.120759 0.518718 -0.728663
H35   H     H_    0.555549 0.131656 0.472493 0.304289
O52   O     O_3   0.417237 0.881327 0.468045 -0.748094
H36   H     H_    0.457644 0.878162 0.484140 0.278858
O53   O     O_3   0.943753 0.621006 0.482337 -0.729976
H37   H     H_    0.947018 0.632139 0.529110 0.301928
O54   O     O_3   0.089030 0.382694 0.536543 -0.741261
H38   H     H_    0.048066 0.378495 0.518516 0.280299
O55   O     O_3   0.058071 0.620758 0.518725 -0.728661
H39   H     H_    0.055566 0.631653 0.472504 0.304287
O56   O     O_3   0.917219 0.381331 0.468033 -0.748071
H40   H     H_    0.957627 0.378163 0.484133 0.278870
O57   O     O_3   0.421050 0.054591 0.236441 -0.557311
C129  C     C_3   0.467536 0.064395 0.235121 0.106252
H41   H     H_    0.512088 0.048479 0.292039 0.165830
H42   H     H_    0.477963 0.099813 0.239090 0.105233
C130  C     C_3   0.447826 0.045683 0.153129 -0.788909
H43   H     H_    0.485944 0.050594 0.154433 0.194229
H44   H     H_    0.438253 0.010278 0.148573 0.276109
H45   H     H_    0.404679 0.062247 0.095121 0.237741
O58   O     O_3   0.538931 0.923843 0.727219 -0.561894
C131  C     C_3   0.482993 0.900859 0.688571 0.103028
H46   H     H_    0.481673 0.866376 0.670428 0.133662
H47   H     H_    0.442963 0.917952 0.627822 0.189638
C132  C     C_3   0.472461 0.901141 0.749352 -0.841382
H48   H     H_    0.511458 0.883905 0.810560 0.245124
H49   H     H_    0.470003 0.935134 0.764570 0.254380
H50   H     H_    0.427597 0.884415 0.717955 0.211164
O59   O     O_3   0.574143 0.056919 0.760398 -0.557831
C133  C     C_3   0.521849 0.069430 0.747353 0.083796
H51   H     H_    0.486815 0.087952 0.685598 0.131496
H52   H     H_    0.537000 0.089620 0.802486 0.130601
C134  C     C_3   0.489787 0.028762 0.741997 -0.722006
H53   H     H_    0.448747 0.038045 0.732302 0.175138
H54   H     H_    0.473318 0.008197 0.686644 0.267100
H55   H     H_    0.523253 0.009748 0.803017 0.258111
O60   O     O_3   0.451778 0.929866 0.262678 -0.551367
C135  C     C_3   0.507353 0.909231 0.294696 0.090280
H56   H     H_    0.496746 0.885418 0.246603 0.125736
H57   H     H_    0.531757 0.892159 0.357254 0.172213
C136  C     C_3   0.552001 0.943402 0.311043 -0.754100
H58   H     H_    0.530294 0.959982 0.249428 0.235292
H59   H     H_    0.562965 0.967932 0.358253 0.251143
H60   H     H_    0.596377 0.927638 0.337862 0.192716
O61   O     O_3   0.921040 0.554587 0.236438 -0.557353
C137  C     C_3   0.967519 0.564385 0.235103 0.106294
H61   H     H_    0.012107 0.548531 0.292107 0.165678
H62   H     H_    0.977867 0.599810 0.238907 0.105197
C138  C     C_3   0.947857 0.545576 0.153194 -0.788462
H63   H     H_    0.985973 0.550481 0.154492 0.194167
H64   H     H_    0.938353 0.510163 0.148789 0.276184
H65   H     H_    0.904673 0.562081 0.095104 0.237710
O62   O     O_3   0.038960 0.423862 0.727255 -0.561867
C139  C     C_3   0.983014 0.400892 0.688606 0.103047
H66   H     H_    0.981663 0.366416 0.670411 0.133683
H67   H     H_    0.942986 0.418005 0.627889 0.189590
C140  C     C_3   0.972509 0.401154 0.749416 -0.841390
H68   H     H_    0.011495 0.383889 0.810586 0.245104
H69   H     H_    0.970096 0.435141 0.764703 0.254408
H70   H     H_    0.927630 0.384449 0.718011 0.211165
O63   O     O_3   0.074112 0.556934 0.760378 -0.557807
C141  C     C_3   0.021802 0.569455 0.747284 0.083820
H71   H     H_    0.986779 0.587960 0.685509 0.131532
H72   H     H_    0.036932 0.589665 0.802380 0.130601
C142  C     C_3   0.989735 0.528798 0.741949 -0.722159
H73   H     H_    0.948671 0.538088 0.732187 0.175170
H74   H     H_    0.973303 0.508208 0.686650 0.267117
H75   H     H_    0.023183 0.509810 0.802997 0.258064
O64   O     O_3   0.951814 0.429833 0.262699 -0.551434
C143  C     C_3   0.007461 0.409205 0.294963 0.090215
H76   H     H_    0.996952 0.385195 0.247191 0.125618
H77   H     H_    0.031924 0.392359 0.357743 0.172754
C144  C     C_3   0.051973 0.443341 0.310853 -0.754235
H78   H     H_    0.030223 0.459656 0.248989 0.235237
H79   H     H_    0.062784 0.468094 0.357663 0.251058
H80   H     H_    0.096440 0.427594 0.337973 0.192798

loop_
_geom_bond_atom_site_label_1
_geom_bond_atom_site_label_2
_ccdc_geom_bond_type
C42   O58   S    
O50   H34   S    
C34   C42   A    
C110  C118  A    
C79   C87   T    
Cu11  O37   S    
C140  H70   S    
C61   O45   A    
C52   C61   S    
C59   O43   A    
C138  H65   S    
C56   C57   S    
C30   C38   A    
C63   O47   A    
C133  H52   S    
C134  H55   S    
Cu12  O48   S    
C23   C103  A    
C9    C121  A    
C97   C105  A    
C43   O59   S    
C100  C108  A    
C15   C127  A    
O58   C131  S    
Cu9   O43   S    
Cu1   O1    S    
C41   C49   A    
C112  H24   S    
C129  H42   S    
C115  C123  A    
Cu12  O38   S    
C44   O60   S    
C112  C120  A    
C1    O9    A    
C20   C28   A    
C27   C35   A    
C21   C29   A    
Cu2   O2    S    
C23   C31   A    
C24   C32   A    
O53   H37   S    
C8    O8    A    
C90   C92   T    
O52   H36   S    
C11   C19   A    
C12   C20   A    
C69   O21   A    
C13   C21   A    
C2    C26   S    
C94   C96   T    
Cu3   O32   S    
C58   O42   A    
C6    C30   S    
C65   O17   A    
C137  H62   S    
C36   C44   A    
C37   C45   A    
C39   C47   A    
C98   H10   S    
C40   C48   A    
Cu4   O31   S    
C141  C142  S    
C10   C122  A    
C14   C126  A    
C72   O24   A    
Cu11  Cu12  S    
C123  O51   S    
C83   C91   S    
C6    O14   A    
C98   C106  A    
C17   C25   A    
C126  O54   S    
C36   H4    S    
C80   C88   T    
C141  H72   S    
Cu11  O46   S    
C10   C18   A    
Cu8   O11   S    
Cu6   O22   S    
C134  H54   S    
C64   O40   A    
C24   C104  A    
Cu2   O18   S    
Cu12  O39   S    
C119  H31   S    
C70   O30   A    
Cu10  O41   S    
C69   C77   S    
C43   C51   A    
C71   C79   S    
C110  H22   S    
C100  H12   S    
C1    O1    A    
C132  H48   S    
O49   H33   S    
C105  C113  A    
C125  O53   S    
O60   C135  S    
C66   C74   S    
C46   O62   S    
C111  C119  A    
C130  H43   S    
C38   H6    S    
C85   C93   S    
Cu1   O17   S    
C89   C91   T    
C35   C43   A    
O55   H39   S    
Cu4   O20   S    
C44   C52   A    
C77   C85   T    
C93   C95   T    
C49   C64   S    
O62   C139  S    
C50   C63   S    
C144  H79   S    
C51   C62   S    
C53   C60   S    
O51   H35   S    
C54   C59   S    
C127  O55   S    
C9    C49   A    
Cu3   Cu8   S    
C104  C112  A    
C133  C134  S    
C33   H1    S    
C104  H16   S    
C15   C55   A    
C16   C56   A    
O64   C143  S    
C71   O23   A    
C107  C115  A    
C142  H73   S    
C62   O38   A    
C136  H59   S    
C66   O26   A    
C42   C50   A    
C57   O41   A    
C67   C75   S    
C124  O52   S    
C59   O35   A    
C131  H46   S    
C132  H50   S    
C121  O49   S    
C22   C30   A    
C116  H28   S    
C63   O39   A    
C135  H56   S    
Cu11  O40   S    
C140  H69   S    
C130  H45   S    
C14   C22   A    
C3    C27   S    
C60   O44   A    
C13   C125  A    
C72   C80   S    
C66   O18   A    
C138  H64   S    
C38   C46   A    
Cu11  O47   S    
Cu12  O45   S    
C113  C121  A    
Cu5   O21   S    
C97   H9    S    
C139  H66   S    
C84   C92   S    
Cu1   O14   S    
C17   C97   A    
C25   C33   A    
Cu9   O36   S    
C119  C127  A    
Cu6   O25   S    
C88   C96   S    
Cu9   O42   S    
C18   C26   A    
C5    O13   A    
C76   C84   T    
C135  C136  S    
Cu10  O34   S    
Cu2   O13   S    
C109  C117  A    
C41   O57   S    
C8    O16   A    
C129  C130  S    
Cu10  O44   S    
Cu8   O24   S    
C67   O27   A    
C113  H25   S    
C143  H76   S    
C58   O34   A    
C101  C109  A    
C142  H75   S    
C103  C111  A    
Cu4   O4    S    
C73   C81   T    
C105  H17   S    
C139  C140  S    
O56   H40   S    
C102  H14   S    
C72   O32   A    
C81   C89   S    
C128  O56   S    
O61   C137  S    
C6    O6    A    
C137  C138  S    
C74   C82   T    
Cu4   O15   S    
C12   C52   A    
C13   C53   A    
C40   H8    S    
C143  C144  S    
Cu7   O28   S    
C60   O36   A    
C45   O61   S    
O63   C141  S    
C20   C100  A    
C70   O22   A    
C46   C54   A    
C61   O37   A    
Cu6   O6    S    
Cu2   O29   S    
C3    O3    A    
C122  O50   S    
C102  C110  A    
Cu2   Cu5   S    
C68   C76   S    
C10   C50   A    
C7    O15   A    
C129  H41   S    
C34   H2    S    
C19   C99   A    
C116  C124  A    
C11   C123  A    
C120  C128  A    
C99   C107  A    
C82   C90   S    
C33   C41   A    
C108  C116  A    
C75   C83   T    
O59   C133  S    
Cu5   O5    S    
Cu3   O3    S    
Cu7   O23   S    
Cu1   Cu6   S    
C28   C36   A    
C4    O4    A    
C55   C58   S    
C29   C37   A    
C68   O20   A    
C137  H61   S    
C48   O64   S    
C35   H3    S    
C69   O29   A    
Cu5   O26   S    
C70   C78   S    
C144  H78   S    
Cu9   O33   S    
C71   O31   A    
C133  H51   S    
C106  C114  A    
C62   O46   A    
C134  H53   S    
C141  H71   S    
C67   O19   A    
C118  H30   S    
C57   O33   A    
C65   C73   S    
C2    O10   A    
Cu8   O27   S    
C86   C94   S    
C26   C34   A    
C19   C27   A    
C136  H58   S    
C21   C101  A    
Cu3   O16   S    
C78   C86   T    
C15   C23   A    
C16   C24   A    
C1    C25   S    
Cu7   O12   S    
C4    C28   S    
C114  H26   S    
C5    C29   S    
C131  H47   S    
C132  H49   S    
C7    C31   S    
C64   O48   A    
C8    C32   S    
C111  H23   S    
C47   O63   S    
C120  H32   S    
C135  H57   S    
C140  H68   S    
C106  H18   S    
C99   H11   S    
C87   C95   S    
C130  H44   S    
C117  H29   S    
C12   C124  A    
C101  H13   S    
C138  H63   S    
C7    O7    A    
C4    O12   A    
C16   C128  A    
C5    O5    A    
C65   O25   A    
Cu1   O30   S    
C9    C17   A    
C14   C54   A    
C144  H80   S    
C139  H67   S    
Cu6   O9    S    
C115  H27   S    
C47   C55   A    
C103  H15   S    
C48   C56   A    
C107  H19   S    
Cu10  O35   S    
C108  H20   S    
Cu3   O19   S    
C18   C98   A    
Cu9   Cu10  S    
Cu8   O8    S    
C22   C102  A    
C68   O28   A    
Cu7   O7    S    
C109  H21   S    
C2    O2    A    
C143  H77   S    
C3    O11   A    
Cu4   Cu7   S    
C142  H74   S    
C31   C39   A    
C32   C40   A    
C136  H60   S    
C11   C51   A    
C45   C53   A    
C114  C122  A    
Cu5   O10   S    
C39   H7    S    
O54   H38   S    
C118  C126  A    
C37   H5    S    
O57   C129  S    
C117  C125  A    
C131  C132  S    
