data_mof_unit_31484.cif
_audit_creation_date              2012-12-10T19:10:30-0500
_audit_creation_method            fapswitch 2.2
_symmetry_space_group_name_H-M    P1
_symmetry_Int_Tables_number       1
_space_group_crystal_system       triclinic
_cell_length_a                    10.630051
_cell_length_b                    9.699152
_cell_length_c                    15.740732
_cell_angle_alpha                 89.945283
_cell_angle_beta                  89.935574
_cell_angle_gamma                 89.990949
_cell_volume                      1622.90672676

loop_
_atom_site_label
_atom_site_type_symbol
_atom_type_description
_atom_site_fract_x
_atom_site_fract_y
_atom_site_fract_z
_atom_type_partial_charge
C1    C     C_R   0.257600 0.499728 0.500080 0.840439
C2    C     C_3   0.613376 0.419821 0.951031 -0.330331
C3    C     C_3   0.611467 0.417424 0.048925 -0.374732
C4    C     C_1   0.498720 0.500496 0.825727 0.075173
C5    C     C_1   0.498920 0.500826 0.174020 -0.050821
C6    C     C_1   0.499586 0.500357 0.249305 -0.202665
C7    C     C_3   0.072148 0.573086 0.580636 -0.395344
C8    C     C_3   0.071543 0.348046 0.499890 -0.395981
C9    C     C_3   0.927732 0.572890 0.580678 -0.390565
C10   C     C_3   0.928720 0.348036 0.499675 -0.396019
C11   C     C_3   0.072461 0.573952 0.419742 -0.401510
C12   C     C_3   0.121305 0.498750 0.500087 0.178260
C13   C     C_3   0.878919 0.498733 0.500043 0.177056
C14   C     C_R   0.500140 0.500076 0.338147 0.910160
C15   C     C_3   0.928064 0.574113 0.419775 -0.399949
C16   C     C_3   0.376170 0.081293 0.471548 -0.238156
C17   C     C_3   0.376190 0.918806 0.471496 -0.239532
C18   C     C_3   0.595850 0.081364 0.439155 -0.236927
C19   C     C_3   0.595871 0.918759 0.439168 -0.237412
C20   C     C_3   0.527404 0.081024 0.583728 -0.217337
C21   C     C_3   0.527380 0.918709 0.583733 -0.210380
C22   C     C_R   0.742627 0.499716 0.500019 0.837298
C23   C     C_R   0.500037 0.499949 0.661752 0.907624
C24   C     C_3   0.507714 0.651189 0.049700 -0.444168
C25   C     C_3   0.374450 0.436045 0.050028 -0.434795
C26   C     C_3   0.373974 0.432763 0.951501 0.286845
C27   C     C_3   0.501366 0.653078 0.951353 0.296402
C28   C     C_1   0.499372 0.499960 0.750465 -0.069883
C29   C     C_3   0.498031 0.501368 0.082617 0.173184
C30   C     C_3   0.498153 0.500865 0.917137 -0.001438
H1    H     H_    0.411266 0.703503 0.932976 0.089192
H2    H     H_    0.293052 0.496110 0.929251 0.085060
H3    H     H_    0.892982 0.681152 0.582670 0.176143
H4    H     H_    0.894655 0.292359 0.442254 0.169168
H5    H     H_    0.107142 0.682255 0.418173 0.171508
H6    H     H_    0.107753 0.521573 0.361485 0.159989
H7    H     H_    0.893560 0.682494 0.418378 0.171179
H8    H     H_    0.892828 0.522043 0.361455 0.159672
H9    H     H_    0.351698 0.120283 0.407162 0.150022
H10   H     H_    0.351872 0.880153 0.407051 0.150312
H11   H     H_    0.301107 0.118608 0.515093 0.151136
H12   H     H_    0.301027 0.881196 0.514924 0.149211
H13   H     H_    0.578270 0.119711 0.373635 0.158238
H14   H     H_    0.578319 0.880585 0.373650 0.158364
H15   H     H_    0.620182 0.119618 0.606115 0.150424
H16   H     H_    0.620128 0.879968 0.606151 0.154618
H17   H     H_    0.456349 0.118662 0.630175 0.187272
H18   H     H_    0.456296 0.880998 0.630169 0.180881
H19   H     H_    0.690790 0.119347 0.457267 0.143734
H20   H     H_    0.690819 0.880677 0.457292 0.144381
H21   H     H_    0.429446 0.714536 0.075971 0.162666
H22   H     H_    0.292462 0.497172 0.072892 0.153459
H23   H     H_    0.363988 0.330785 0.077363 0.234300
H24   H     H_    0.596960 0.697704 0.073002 0.231571
H25   H     H_    0.701063 0.461313 0.073543 0.190187
H26   H     H_    0.605367 0.308827 0.071536 0.208767
H27   H     H_    0.702505 0.466183 0.928208 0.224616
H28   H     H_    0.614053 0.312841 0.926106 0.235699
H29   H     H_    0.106619 0.681448 0.582418 0.174213
H30   H     H_    0.106220 0.291934 0.442735 0.169232
H31   H     H_    0.107420 0.520274 0.638761 0.174166
H32   H     H_    0.105624 0.291620 0.557100 0.180912
H33   H     H_    0.892470 0.519742 0.638738 0.171978
H34   H     H_    0.894058 0.291171 0.556613 0.176731
N1    N     N_3   0.499750 0.138610 0.498180 -0.041767
N2    N     N_3   0.499750 0.861390 0.498180 -0.042840
O1    O     O_R   0.314910 0.616040 0.499980 -0.637371
O2    O     O_R   0.314910 0.383960 0.499980 -0.634247
O3    O     O_R   0.500120 0.616090 0.377110 -0.620258
O4    O     O_R   0.500120 0.383910 0.377110 -0.620616
O5    O     O_R   0.685320 0.616040 0.499960 -0.634433
O6    O     O_R   0.685320 0.383960 0.499960 -0.637375
O7    O     O_R   0.500110 0.615990 0.622830 -0.607929
O8    O     O_R   0.500110 0.384010 0.622830 -0.613934
Zn1   Zn    Zn3+2 0.500150 0.654960 0.499960 0.913281
Zn2   Zn    Zn3+2 0.500150 0.345040 0.499960 0.914338
S1    S     S_3+6 0.342121 0.259639 0.914142 0.006698
O9    O     O_2   0.349501 0.252074 0.818918 -0.319781
O10   O     O_2   0.433058 0.158432 0.952317 -0.273476
O11   O     O_3   0.195583 0.217001 0.944700 -0.549533
H35   H     H_    0.183721 0.121049 0.924751 0.388351
S2    S     S_3+6 0.623237 0.763335 0.908166 0.013660
O12   O     O_2   0.607482 0.904941 0.945394 -0.246053
O13   O     O_2   0.751753 0.710311 0.930747 -0.319716
O14   O     O_3   0.610231 0.775165 0.801947 -0.576657
H36   H     H_    0.676560 0.841097 0.784470 0.376167

loop_
_geom_bond_atom_site_label_1
_geom_bond_atom_site_label_2
_ccdc_geom_bond_type
C26   H2    S    
C21   N2    S    
C14   O4    A    
C24   C27   S    
O6    Zn2   S    
C2    H27   S    
S1    O9    D    
C18   N1    S    
C17   N2    S    
N1    Zn2   S    
O8    Zn2   S    
C11   H6    S    
C25   H23   S    
C5    C6    T    
C24   H24   S    
C1    O2    A    
C19   N2    S    
C18   C19   S    
C7    H29   S    
C3    C29   S    
C9    C13   S    
C17   H12   S    
C15   H7    S    
C24   C29   S    
C11   C15   S    
C7    H31   S    
C16   C17   S    
C20   H15   S    
C21   H18   S    
C24   H21   S    
C27   C30   S    
C9    H3    S    
O7    Zn1   S    
C1    C12   S    
C3    H25   S    
C23   O7    A    
C22   O6    A    
C4    C28   T    
C5    C29   S    
S1    O10   D    
C25   C29   S    
C7    C12   S    
C26   S1    S    
C27   H1    S    
C20   N1    S    
C25   C26   S    
O14   H36   S    
C17   H10   S    
C15   H8    S    
C6    C14   S    
C3    H26   S    
C8    C12   S    
C10   H4    S    
C23   C28   S    
C26   C30   S    
S2    O13   D    
C13   C15   S    
O4    Zn2   S    
C14   O3    A    
O1    Zn1   S    
C23   O8    A    
C22   O5    A    
C19   H14   S    
C21   H16   S    
S1    O11   S    
C7    C9    S    
C9    H33   S    
C27   S2    S    
C10   H34   S    
O11   H35   S    
C10   C13   S    
C11   C12   S    
C2    H28   S    
O2    Zn2   S    
S2    O14   S    
C2    C30   S    
C11   H5    S    
C2    C3    S    
C25   H22   S    
C18   H13   S    
C8    H30   S    
O5    Zn1   S    
C19   H20   S    
N2    Zn1   S    
C1    O1    A    
C13   C22   S    
O3    Zn1   S    
C20   H17   S    
C16   H9    S    
C20   C21   S    
C8    C10   S    
S2    O12   D    
C16   N1    S    
C16   H11   S    
C4    C30   S    
C18   H19   S    
C8    H32   S    
