data_mof_unit_67952.cif
_audit_creation_date              2012-12-10T20:25:44-0500
_audit_creation_method            fapswitch 2.2
_symmetry_space_group_name_H-M    P1
_symmetry_Int_Tables_number       1
_space_group_crystal_system       triclinic
_cell_length_a                    8.862217
_cell_length_b                    11.08936
_cell_length_c                    10.089115
_cell_angle_alpha                 89.998058
_cell_angle_beta                  95.840474
_cell_angle_gamma                 96.471159
_cell_volume                      980.024076115

loop_
_atom_site_label
_atom_site_type_symbol
_atom_type_description
_atom_site_fract_x
_atom_site_fract_y
_atom_site_fract_z
_atom_type_partial_charge
C1    C     C_R   0.497076 0.260420 0.500915 0.903440
C2    C     C_R   0.373146 0.457026 0.915524 0.009968
C3    C     C_3   0.295537 0.334126 0.890811 -0.269433
C4    C     C_R   0.204806 0.509066 0.465023 0.784514
C5    C     C_3   0.283183 0.326241 0.040845 0.343347
C6    C     C_R   0.494297 0.739487 0.499100 0.873169
C7    C     C_R   0.798127 0.505120 0.532888 1.017784
C8    C     C_2   0.044847 0.527887 0.442090 0.293523
C9    C     C_2   0.963206 0.513969 0.546932 -0.486464
C10   C     C_R   0.471905 0.059367 0.618343 0.058240
C11   C     C_R   0.481000 0.127495 0.502687 -0.170419
C12   C     C_R   0.462846 0.938596 0.376895 0.461974
C13   C     C_R   0.459664 0.063546 0.383514 -0.343801
C14   C     C_3   0.054620 0.582631 0.207195 0.122756
C15   C     C_3   0.134597 0.712471 0.213242 -0.311006
C16   C     C_3   0.184198 0.749405 0.076706 -0.797432
C17   C     C_2   0.753178 0.606708 0.873934 1.048111
C18   C     C_2   0.153722 0.326017 0.795583 0.995795
C19   C     C_3   0.089445 0.263182 0.184897 0.046359
C20   C     C_3   0.921410 0.273794 0.199746 -0.221889
C21   C     C_3   0.875671 0.222016 0.331033 -1.004313
C22   C     C_2   0.363320 0.220156 0.083516 0.754391
C23   C     C_R   0.473244 0.870198 0.496475 -0.211012
C24   C     C_3   0.582947 0.887468 0.197038 0.116045
C25   C     C_3   0.630155 0.998428 0.115134 -0.459916
C26   C     C_3   0.775646 0.984215 0.050381 -0.835603
C27   C     C_3   0.807692 0.078128 0.656469 0.117079
C28   C     C_3   0.944687 0.022754 0.727070 -0.313100
C29   C     C_3   0.043785 0.976356 0.627221 -0.923942
C30   C     C_2   0.730131 0.657803 0.153988 0.875341
C31   C     C_R   0.460789 0.933116 0.615151 -0.019091
C32   C     C_3   0.546164 0.927236 0.749841 -0.535712
C33   C     C_3   0.566118 0.065828 0.750324 0.342719
C34   C     C_R   0.372706 0.453119 0.056377 0.051732
C35   C     C_R   0.615148 0.565219 0.080424 -0.075271
C36   C     C_R   0.618434 0.556683 0.937458 -0.048128
H1    H     H_    0.377516 0.276975 0.852030 0.139348
H2    H     H_    0.234744 0.718580 0.288308 0.245221
H3    H     H_    0.274466 0.694919 0.049770 0.239807
H4    H     H_    0.227970 0.846410 0.077370 0.285773
H5    H     H_    0.086026 0.737646 0.998929 0.271868
H6    H     H_    0.971265 0.592987 0.843884 0.330974
H7    H     H_    0.062711 0.280594 0.610569 0.305946
H8    H     H_    0.163388 0.302368 0.272932 0.159959
H9    H     H_    0.099310 0.164764 0.179202 0.186443
H10   H     H_    0.896154 0.368421 0.192529 0.267178
H11   H     H_    0.848875 0.226732 0.116104 0.251412
H12   H     H_    0.018419 0.504687 0.646015 0.183943
H13   H     H_    0.896564 0.125297 0.340023 0.250735
H14   H     H_    0.753254 0.229411 0.338190 0.298700
H15   H     H_    0.942068 0.275524 0.413403 0.250259
H16   H     H_    0.331883 0.037972 0.104399 0.350226
H17   H     H_    0.562466 0.812010 0.124551 0.196555
H18   H     H_    0.678341 0.878101 0.274811 0.160103
H19   H     H_    0.540907 0.010553 0.033604 0.250459
H20   H     H_    0.652660 0.078173 0.181565 0.278934
H21   H     H_    0.871534 0.970848 0.126848 0.274183
H22   H     H_    0.808300 0.065332 0.991663 0.291116
H23   H     H_    0.445963 0.111338 0.294075 0.224592
H24   H     H_    0.755180 0.907245 0.978860 0.305108
H25   H     H_    0.848773 0.156086 0.596803 0.157190
H26   H     H_    0.745037 0.011295 0.583350 0.125304
H27   H     H_    0.014442 0.091170 0.794469 0.265730
H28   H     H_    0.905048 0.945641 0.789425 0.235282
H29   H     H_    0.977046 0.903202 0.563576 0.248417
H30   H     H_    0.142911 0.938822 0.681828 0.275756
H31   H     H_    0.086741 0.050978 0.562716 0.282473
H32   H     H_    0.825516 0.737842 0.326929 0.315001
H33   H     H_    0.470693 0.888024 0.824201 0.190025
H34   H     H_    0.651838 0.884506 0.747075 0.256759
H35   H     H_    0.505773 0.105045 0.828089 0.132966
H36   H     H_    0.972715 0.572552 0.118554 0.216095
H37   H     H_    0.125536 0.514910 0.177868 0.198276
H38   H     H_    0.057916 0.777063 0.244409 0.228212
N1    N     N_R   0.498950 0.499140 0.142680 -0.119774
N2    N     N_R   0.498950 0.499180 0.857030 -0.155943
O1    O     O_R   0.500020 0.316790 0.614690 -0.583826
O2    O     O_2   0.749961 0.698838 0.808327 -0.669081
O3    O     O_R   0.885025 0.548519 0.889503 -0.772619
O4    O     O_2   0.035337 0.359969 0.825827 -0.543849
O5    O     O_R   0.159784 0.275448 0.670148 -0.829267
O6    O     O_3   0.127355 0.322990 0.066999 -0.623854
O7    O     O_2   0.499478 0.234792 0.120936 -0.663636
O8    O     O_R   0.285858 0.104901 0.054135 -0.854368
O9    O     O_3   0.442448 0.886423 0.251649 -0.677201
O10   O     O_3   0.719256 0.122730 0.751746 -0.601356
O11   O     O_2   0.813047 0.727819 0.093062 -0.726797
O12   O     O_R   0.500000 0.316760 0.385350 -0.620212
O13   O     O_R   0.737105 0.677385 0.289270 -0.713857
O14   O     O_R   0.271760 0.500010 0.587850 -0.617295
O15   O     O_R   0.271740 0.499970 0.358500 -0.663825
O16   O     O_R   0.500000 0.683240 0.614650 -0.591107
O17   O     O_R   0.499980 0.683210 0.385310 -0.570236
O18   O     O_R   0.728260 0.500030 0.641500 -0.601112
O19   O     O_R   0.728240 0.499990 0.412150 -0.508476
O20   O     O_3   0.969930 0.552348 0.317159 -0.635906
Zn1   Zn    Zn3+2 0.500010 0.500020 0.653130 1.019854
Zn2   Zn    Zn3+2 0.499990 0.499980 0.346870 1.007658

loop_
_geom_bond_atom_site_label_1
_geom_bond_atom_site_label_2
_ccdc_geom_bond_type
C1    O1    A    
C35   C36   A    
C8    O20   S    
C25   H20   S    
C4    C8    S    
C21   H13   S    
O19   Zn2   S    
C12   C23   A    
C35   N1    A    
C12   O9    S    
C28   C29   S    
C24   H18   S    
C15   C16   S    
C17   O3    S    
C18   O5    S    
C3    C18   S    
H16   O8    S    
C27   H25   S    
C29   H31   S    
C10   C31   A    
C5    C22   S    
C19   C20   S    
C8    C9    D    
C1    C11   S    
O1    Zn1   S    
C17   C36   S    
C19   O6    S    
C36   N2    A    
C24   O9    S    
O14   Zn1   S    
C34   N1    A    
C4    O15   A    
C2    C34   A    
C1    O12   A    
H6    O3    S    
C30   O13   S    
C14   O20   S    
C21   H14   S    
C25   C26   S    
O16   Zn1   S    
C4    O14   A    
C14   H37   S    
C24   C25   S    
C32   H34   S    
O18   Zn1   S    
C24   H17   S    
N1    Zn2   S    
C23   C31   A    
C27   O10   S    
C33   O10   S    
C15   H2    S    
C27   H26   S    
C31   C32   S    
C6    O17   A    
C5    C34   S    
H32   O13   S    
C20   C21   S    
C26   H22   S    
C16   H4    S    
C29   H29   S    
C30   C35   S    
H7    O5    S    
C28   H28   S    
C21   H15   S    
C2    N2    A    
C19   H8    S    
C7    C9    S    
C7    O18   A    
C14   H36   S    
C25   H19   S    
C3    C5    S    
C19   H9    S    
C32   H33   S    
C13   H23   S    
C7    O19   A    
C22   O7    D    
C2    C3    S    
N2    Zn1   S    
C32   C33   S    
C5    O6    S    
C11   C13   A    
C6    O16   A    
C6    C23   S    
C16   H5    S    
C17   O2    D    
C10   C33   S    
O15   Zn2   S    
C26   H21   S    
C20   H10   S    
C20   H11   S    
C10   C11   A    
C33   H35   S    
C16   H3    S    
C29   H30   S    
C28   H27   S    
C15   H38   S    
C12   C13   A    
C3    H1    S    
C9    H12   S    
C18   O4    D    
C27   C28   S    
C14   C15   S    
C30   O11   D    
C26   H24   S    
O17   Zn2   S    
O12   Zn2   S    
C22   O8    S    
