data_mof_unit_40673.cif
_audit_creation_date              2012-12-10T20:48:20-0500
_audit_creation_method            fapswitch 2.2
_symmetry_space_group_name_H-M    P1
_symmetry_Int_Tables_number       1
_space_group_crystal_system       triclinic
_cell_length_a                    10.837059
_cell_length_b                    8.89187
_cell_length_c                    8.401218
_cell_angle_alpha                 89.999517
_cell_angle_beta                  90.744184
_cell_angle_gamma                 90.003377
_cell_volume                      809.48752843

loop_
_atom_site_label
_atom_site_type_symbol
_atom_type_description
_atom_site_fract_x
_atom_site_fract_y
_atom_site_fract_z
_atom_type_partial_charge
C1    C     C_R   0.500001 0.219287 0.500000 0.897654
C2    C     C_1   0.500000 0.934422 0.499999 -0.167263
C3    C     C_3   0.069895 0.636921 0.513447 -0.341227
C4    C     C_3   0.930167 0.636952 0.486505 -0.341390
C5    C     C_3   0.121390 0.474148 0.500717 -0.005376
C6    C     C_3   0.878615 0.474199 0.499271 -0.005396
C7    C     C_2   0.139597 0.391700 0.795445 1.037570
C8    C     C_2   0.111611 0.472428 0.199483 1.019606
C9    C     C_2   0.888452 0.472638 0.800496 1.019681
C10   C     C_2   0.860386 0.391809 0.204552 1.037697
C11   C     C_R   0.258702 0.485983 0.499699 0.796531
C12   C     C_R   0.741303 0.486041 0.500300 0.796558
C13   C     C_R   0.499999 0.780669 0.500000 0.916297
C14   C     C_1   0.500000 0.065549 0.500000 -0.145780
C15   C     C_3   0.071652 0.373900 0.640871 -0.309160
C16   C     C_3   0.070065 0.395075 0.347016 -0.273148
C17   C     C_3   0.929918 0.395164 0.652998 -0.272994
C18   C     C_3   0.928316 0.373914 0.359125 -0.309110
H1    H     H_    0.086875 0.253837 0.607310 0.123635
H2    H     H_    0.132606 0.675745 0.092792 0.364923
H3    H     H_    0.867863 0.675860 0.907517 0.365188
H4    H     H_    0.755667 0.550343 0.094959 0.358888
H5    H     H_    0.110986 0.279771 0.343232 0.126839
H6    H     H_    0.888931 0.279892 0.656854 0.126860
H7    H     H_    0.913012 0.253860 0.392684 0.123608
H8    H     H_    0.091812 0.686503 0.631292 0.251989
H9    H     H_    0.114252 0.714068 0.427383 0.183075
H10   H     H_    0.885834 0.714126 0.572553 0.183127
H11   H     H_    0.908285 0.686544 0.368657 0.251954
H12   H     H_    0.244404 0.550063 0.905168 0.358861
N1    N     N_1   0.500000 0.500030 0.073640 -0.013417
N2    N     N_1   0.500000 0.500030 0.926360 -0.013435
O1    O     O_R   0.500000 0.285340 0.636850 -0.590823
O2    O     O_R   0.160335 0.537095 0.852807 -0.757821
O3    O     O_2   0.191835 0.410569 0.123979 -0.594426
O4    O     O_R   0.073855 0.619116 0.163315 -0.760729
O5    O     O_2   0.808230 0.410878 0.876082 -0.594469
O6    O     O_R   0.926352 0.619280 0.836603 -0.760862
O7    O     O_2   0.807624 0.283419 0.145257 -0.581245
O8    O     O_R   0.839747 0.537237 0.147252 -0.758114
O9    O     O_R   0.500000 0.285340 0.363150 -0.590731
O10   O     O_R   0.314790 0.499970 0.636880 -0.617251
O11   O     O_R   0.314790 0.499970 0.363120 -0.597022
O12   O     O_R   0.685210 0.499970 0.636880 -0.596947
O13   O     O_R   0.685210 0.499970 0.363120 -0.617221
O14   O     O_R   0.500000 0.714650 0.636900 -0.612941
O15   O     O_R   0.500000 0.714650 0.363100 -0.612995
O16   O     O_2   0.192143 0.283228 0.854808 -0.581349
Zn1   Zn    Zn3+2 0.500000 0.499990 0.682780 1.041059
Zn2   Zn    Zn3+2 0.500000 0.499990 0.317220 1.041046

loop_
_geom_bond_atom_site_label_1
_geom_bond_atom_site_label_2
_ccdc_geom_bond_type
O12   Zn1   S    
O11   Zn2   S    
C8    O4    S    
O15   Zn2   S    
C4    H11   S    
H4    O8    S    
C7    O16   D    
C7    C15   S    
C1    O1    A    
C12   O12   A    
C16   C18   S    
C15   H1    S    
C2    C13   S    
O14   Zn1   S    
C18   H7    S    
O13   Zn2   S    
C10   C18   S    
C6    C18   S    
C9    C17   S    
C9    O6    S    
C4    H10   S    
C5    C11   S    
C16   H5    S    
C3    H9    S    
C6    C12   S    
C13   O14   A    
C2    C14   T    
C7    O2    S    
N2    Zn1   S    
C5    C15   S    
C17   H6    S    
H12   O2    S    
N1    Zn2   S    
O1    Zn1   S    
C3    C4    S    
H2    O4    S    
O9    Zn2   S    
C11   O10   A    
C4    C6    S    
C9    O5    D    
C8    C16   S    
C1    O9    A    
C15   C17   S    
C6    C17   S    
C12   O13   A    
C10   O8    S    
C1    C14   S    
O10   Zn1   S    
C3    C5    S    
C13   O15   A    
C11   O11   A    
C3    H8    S    
H3    O6    S    
N1    N2    T    
C10   O7    D    
C5    C16   S    
C8    O3    D    
