data_mof_unit_57266.cif
_audit_creation_date              2012-10-26T19:59:12-0400
_audit_creation_method            fapswitch 2.2
_symmetry_space_group_name_H-M    P1
_symmetry_Int_Tables_number       1
_space_group_crystal_system       triclinic
_cell_length_a                    7.514228
_cell_length_b                    8.694483
_cell_length_c                    15.811419
_cell_angle_alpha                 95.641864
_cell_angle_beta                  75.304309
_cell_angle_gamma                 103.541355
_cell_volume                      970.595596188

loop_
_atom_site_label
_atom_site_type_symbol
_atom_type_description
_atom_site_fract_x
_atom_site_fract_y
_atom_site_fract_z
_atom_type_partial_charge
Br1   Br    Br    0.015771 0.680589 0.615000 -0.420894
Br2   Br    Br    0.984277 0.319522 0.384951 -0.419331
C1    C     C_R   0.545258 0.800067 0.502745 0.542861
C2    C     C_R   0.614994 0.512088 0.334129 0.542040
C3    C     C_R   0.316222 0.476720 0.761151 0.003292
C4    C     C_R   0.683969 0.534251 0.239780 0.002463
C5    C     C_R   0.071753 0.383790 0.888525 -0.131130
C6    C     C_R   0.918280 0.658522 0.116950 -0.131823
C7    C     C_R   0.127355 0.411661 0.799434 -0.123316
C8    C     C_R   0.867124 0.617206 0.204081 -0.127412
C9    C     C_R   0.446306 0.521445 0.813436 -0.131761
C10   C     C_R   0.555639 0.486899 0.186870 -0.129983
C11   C     C_R   0.393445 0.497572 0.903808 0.026490
C12   C     C_R   0.454753 0.199933 0.497239 0.543014
C13   C     C_R   0.600856 0.532174 0.099731 0.025995
C14   C     C_R   0.203666 0.423168 0.940435 0.044320
C15   C     C_R   0.786558 0.618200 0.064936 0.042402
C16   C     C_R   0.524869 0.540239 0.957882 0.027349
C17   C     C_R   0.466743 0.496597 0.046896 0.028684
C18   C     C_R   0.275658 0.422010 0.080487 -0.139753
C19   C     C_R   0.711427 0.627112 0.926315 -0.140199
C20   C     C_R   0.147400 0.386906 0.028205 -0.130352
C21   C     C_R   0.838771 0.665308 0.979023 -0.129701
C22   C     C_2   0.569855 0.968491 0.504333 -0.132588
C23   C     C_2   0.430178 0.031507 0.495625 -0.132560
C24   C     C_R   0.385107 0.489139 0.665983 0.541835
Cu1   Cu    Cu3+1 0.322120 0.483240 0.490330 1.099424
Cu2   Cu    Cu3+1 0.677880 0.516760 0.509670 1.098453
H1    H     H_    0.002461 0.330302 0.056896 0.128222
H2    H     H_    0.763628 0.671800 0.861510 0.129624
H3    H     H_    0.703775 0.040873 0.512810 0.164400
H4    H     H_    0.296260 0.959123 0.487144 0.164462
H5    H     H_    0.979909 0.732347 0.952068 0.126506
H6    H     H_    0.420014 0.416258 0.216374 0.141110
H7    H     H_    0.590199 0.569240 0.781036 0.145067
H8    H     H_    0.968328 0.654795 0.244121 0.149824
H9    H     H_    0.024492 0.376831 0.760104 0.152101
H10   H     H_    0.925951 0.329006 0.916689 0.123157
H11   H     H_    0.060190 0.724470 0.090522 0.124095
H12   H     H_    0.217752 0.391604 0.147745 0.132495
N1    N     N_2   0.945180 0.542040 0.524240 0.020087
N2    N     N_2   0.054820 0.457960 0.475760 0.020466
O1    O     O_R   0.384450 0.714270 0.493720 -0.479200
O2    O     O_R   0.615550 0.285730 0.506280 -0.479232
O3    O     O_R   0.684880 0.742590 0.510050 -0.483994
O4    O     O_R   0.315120 0.257410 0.489950 -0.483787
O5    O     O_R   0.265540 0.477900 0.617090 -0.476741
O6    O     O_R   0.734460 0.522100 0.382910 -0.476609
O7    O     O_R   0.565970 0.506210 0.633420 -0.495864
O8    O     O_R   0.434030 0.493790 0.366580 -0.494001

loop_
_geom_bond_atom_site_label_1
_geom_bond_atom_site_label_2
_ccdc_geom_bond_type
C4    C8    A    
Br1   N1    S    
C14   C20   A    
Cu1   O8    S    
C3    C7    A    
C6    H11   S    
C16   C19   A    
N1    N2    D    
C17   C18   A    
C10   C13   A    
C23   H4    S    
C7    H9    S    
C22   H3    S    
C1    O3    A    
C12   O4    A    
C13   C17   A    
C9    C11   A    
Cu1   N2    S    
C1    O1    A    
C1    C22   S    
C15   C21   A    
C24   O5    A    
Br2   N2    S    
C11   C16   A    
Cu1   O4    S    
C6    C8    A    
C5    C14   A    
C20   H1    S    
C5    H10   S    
C18   C20   A    
C3    C9    A    
C5    C7    A    
C19   C21   A    
C12   C23   S    
C4    C10   A    
C18   H12   S    
Cu2   O3    S    
C11   C14   A    
C2    C4    S    
C10   H6    S    
C3    C24   S    
Cu1   O1    S    
Cu2   N1    S    
C2    O6    A    
C22   C23   D    
C12   O2    A    
C16   C17   A    
C19   H2    S    
C24   O7    A    
Cu1   O5    S    
Cu1   Cu2   S    
C13   C15   A    
Cu2   O6    S    
C8    H8    S    
C9    H7    S    
Cu2   O2    S    
C6    C15   A    
C2    O8    A    
C21   H5    S    
Cu2   O7    S    
