data_mof_unit_53017.cif
_audit_creation_date              2012-12-11T14:47:49-0500
_audit_creation_method            fapswitch 2.2
_symmetry_space_group_name_H-M    P1
_symmetry_Int_Tables_number       1
_space_group_crystal_system       triclinic
_cell_length_a                    11.543019
_cell_length_b                    11.502577
_cell_length_c                    19.524413
_cell_angle_alpha                 90.361521
_cell_angle_beta                  90.032374
_cell_angle_gamma                 59.920338
_cell_volume                      2243.1762354

loop_
_atom_site_label
_atom_site_type_symbol
_atom_type_description
_atom_site_fract_x
_atom_site_fract_y
_atom_site_fract_z
_atom_type_partial_charge
C1    C     C_R   0.640557 0.117620 0.599184 0.553009
C2    C     C_1   0.653042 0.149981 0.668561 0.005371
C3    C     C_R   0.586606 0.618092 0.308374 0.233231
C4    C     C_R   0.612654 0.745584 0.598526 0.547284
C5    C     C_R   0.587507 0.610833 0.237930 -0.119982
C6    C     C_R   0.673071 0.638720 0.199116 0.003391
C7    C     C_R   0.762565 0.669090 0.231246 -0.157833
C8    C     C_R   0.758272 0.682470 0.301695 -0.180595
C9    C     C_R   0.664431 0.665252 0.339691 0.071392
C10   C     C_R   0.271523 0.228326 0.282969 -0.127026
C11   C     C_R   0.221490 0.256504 0.216838 -0.129285
C12   C     C_1   0.641447 0.703421 0.667901 0.007376
C13   C     C_R   0.164536 0.185182 0.187734 0.025192
C14   C     C_R   0.169339 0.077149 0.223542 -0.132582
C15   C     C_R   0.220086 0.048585 0.289953 -0.128045
C16   C     C_R   0.240535 0.145478 0.598099 0.556108
C17   C     C_R   0.265380 0.128630 0.321210 0.025117
C18   C     C_R   0.748093 0.035058 0.289125 -0.133511
C19   C     C_R   0.750954 0.054547 0.219948 -0.133433
C20   C     C_R   0.669143 0.182241 0.192072 0.031600
C21   C     C_R   0.574120 0.286789 0.233188 -0.141814
C22   C     C_R   0.568917 0.266038 0.302890 -0.133830
C23   C     C_1   0.127036 0.198696 0.859348 0.004482
C24   C     C_R   0.658743 0.141078 0.331339 0.036122
C25   C     C_R   0.082138 0.231079 0.928646 0.545792
C26   C     C_R   0.683668 0.605063 0.929572 0.546141
C27   C     C_R   0.708134 0.206707 0.930175 0.544969
C28   C     C_R   0.643613 0.110973 0.401509 0.545776
C29   C     C_R   0.085899 0.234396 0.124756 0.546822
C30   C     C_R   0.684791 0.606740 0.127278 0.551404
C31   C     C_R   0.706485 0.210002 0.125888 0.546845
C32   C     C_R   0.620356 0.733309 0.404671 0.569749
C33   C     C_R   0.302287 0.114444 0.393814 0.549750
C34   C     C_1   0.171312 0.170193 0.727686 -0.030214
C35   C     C_1   0.670185 0.647141 0.860179 0.004582
C36   C     C_1   0.654923 0.683485 0.728392 -0.030186
C37   C     C_1   0.663396 0.667039 0.799680 -0.030888
C38   C     C_1   0.150298 0.182151 0.798954 -0.030186
C39   C     C_1   0.194899 0.160918 0.667304 0.003729
C40   C     C_1   0.678284 0.191395 0.860816 0.004627
C41   C     C_1   0.658469 0.167533 0.728990 -0.029918
C42   C     C_1   0.665418 0.181125 0.800331 -0.030153
Cr1   Cr    Cr6+3 0.404720 0.198220 0.499960 1.036935
Cr2   Cr    Cr6+3 0.698290 0.897110 0.500380 1.026778
Cr3   Cr    Cr6+3 0.396970 0.904720 0.499610 1.057143
Cr4   Cr    Cr6+3 0.926180 0.152240 0.028110 1.028566
Cr5   Cr    Cr6+3 0.921340 0.452070 0.027460 1.030512
Cr6   Cr    Cr6+3 0.626260 0.447120 0.028700 1.026075
H1    H     H_    0.823288 0.971040 0.188981 0.129484
H2    H     H_    0.217593 0.968683 0.317742 0.143513
H3    H     H_    0.814584 0.935759 0.309116 0.129428
H4    H     H_    0.447092 0.570163 0.316304 0.301665
H5    H     H_    0.508119 0.385047 0.212148 0.110926
H6    H     H_    0.494860 0.346658 0.334502 0.139350
H7    H     H_    0.522382 0.580502 0.213809 0.119986
H8    H     H_    0.833360 0.684674 0.202028 0.131188
H9    H     H_    0.821298 0.715816 0.325669 0.136488
H10   H     H_    0.309534 0.288875 0.305397 0.127467
H11   H     H_    0.221361 0.338626 0.189915 0.130043
H12   H     H_    0.127218 0.019583 0.201853 0.132911
O1    O     O_R   0.267740 0.231990 0.575440 -0.498793
O2    O     O_R   0.596140 0.579600 0.952720 -0.503318
O3    O     O_R   0.639070 0.321380 0.958660 -0.493940
O4    O     O_R   0.527280 0.186680 0.570530 -0.490165
O5    O     O_R   0.821240 0.124490 0.104360 -0.523551
O6    O     O_R   0.036900 0.167320 0.097830 -0.503024
O7    O     O_R   0.056190 0.349890 0.102870 -0.519150
O8    O     O_R   0.797670 0.565150 0.097930 -0.499716
O9    O     O_R   0.595880 0.584540 0.104260 -0.527920
O10   O     O_R   0.638830 0.325960 0.099140 -0.506662
O11   O     O_3   0.824590 0.350480 0.028090 -0.251510
O12   O     O_R   0.685970 0.784630 0.430010 -0.529453
O13   O     O_R   0.728090 0.003480 0.576380 -0.499591
O14   O     O_R   0.682970 0.789220 0.570490 -0.493176
O15   O     O_R   0.499290 0.771920 0.575530 -0.500943
O16   O     O_R   0.285330 0.030900 0.569730 -0.489173
O17   O     O_R   0.270980 0.227040 0.423900 -0.509286
O18   O     O_R   0.530280 0.182090 0.430050 -0.518343
O19   O     O_R   0.731330 0.998530 0.424830 -0.519682
O20   O     O_3   0.504953 0.587784 0.347109 -0.683589
O21   O     O_R   0.502530 0.766960 0.423990 -0.457060
O22   O     O_R   0.288330 0.026310 0.429250 -0.497700
O23   O     O_3   0.499990 0.000020 0.499980 -0.282935
O24   O     O_R   0.821500 0.119550 0.952820 -0.506092
O25   O     O_R   0.037130 0.162750 0.957360 -0.494403
O26   O     O_R   0.056440 0.344950 0.951330 -0.505626
O27   O     O_R   0.797900 0.560570 0.957460 -0.494043

loop_
_geom_bond_atom_site_label_1
_geom_bond_atom_site_label_2
_ccdc_geom_bond_type
C8    C9    A    
Cr1   O23   S    
C41   C42   S    
Cr3   O22   S    
Cr6   O9    S    
Cr2   O23   S    
C7    C8    A    
C32   O12   A    
Cr1   O18   S    
C32   O21   A    
Cr3   O16   S    
C18   C24   A    
C13   C29   S    
C27   O24   A    
C35   C37   T    
Cr4   O6    S    
C5    C6    A    
C2    C41   T    
C31   O5    A    
C1    C2    S    
C15   H2    S    
C28   O19   A    
C4    O15   A    
C9    C32   S    
C29   O7    A    
C31   O10   A    
C19   C20   A    
C26   O27   A    
Cr1   O4    S    
C12   C36   T    
C28   O18   A    
C33   O22   A    
C4    O14   A    
Cr4   O25   S    
C40   C42   T    
C16   O16   A    
C13   C14   A    
Cr3   O23   S    
C17   C33   S    
C7    H8    S    
C11   H11   S    
C3    O20   S    
Cr5   O7    S    
C18   H3    S    
C34   C39   T    
Cr5   O26   S    
Cr4   O5    S    
C22   H6    S    
C18   C19   A    
Cr6   O3    S    
Cr5   O27   S    
C3    C9    A    
C8    H9    S    
C19   H1    S    
Cr6   O2    S    
C27   C40   S    
C25   O25   A    
Cr2   O14   S    
Cr5   O11   S    
Cr4   O11   S    
C27   O3    A    
Cr4   O24   S    
C6    C30   S    
C22   C24   A    
C4    C12   S    
C16   O1    A    
Cr6   O11   S    
C1    O4    A    
Cr5   O8    S    
C30   O9    A    
Cr1   O1    S    
C15   C17   A    
C36   C37   S    
C10   H10   S    
C34   C38   S    
C5    H7    S    
Cr2   O19   S    
Cr3   O21   S    
C24   C28   S    
Cr6   O10   S    
C3    C5    A    
C6    C7    A    
Cr1   O17   S    
C23   C38   T    
C14   H12   S    
Cr3   O15   S    
C1    O13   A    
C21   C22   A    
C26   O2    A    
C21   H5    S    
C11   C13   A    
C33   O17   A    
C25   O26   A    
Cr2   O12   S    
C23   C25   S    
Cr2   O13   S    
C10   C11   A    
C16   C39   S    
C29   O6    A    
C26   C35   S    
C20   C21   A    
C14   C15   A    
C10   C17   A    
H4    O20   S    
C30   O8    A    
C20   C31   S    
