data_mof_unit_65230.cif
_audit_creation_date              2012-12-10T18:33:17-0500
_audit_creation_method            fapswitch 2.2
_symmetry_space_group_name_H-M    P1
_symmetry_Int_Tables_number       1
_space_group_crystal_system       triclinic
_cell_length_a                    21.711557
_cell_length_b                    21.716442
_cell_length_c                    24.732138
_cell_angle_alpha                 115.952418
_cell_angle_beta                  115.899501
_cell_angle_gamma                 90.256826
_cell_volume                      9152.04760243

loop_
_atom_site_label
_atom_site_type_symbol
_atom_type_description
_atom_site_fract_x
_atom_site_fract_y
_atom_site_fract_z
_atom_type_partial_charge
C1    C     C_R   0.066704 0.566317 0.632555 0.782827
C2    C     C_R   0.011185 0.287833 0.259371 -0.095173
C3    C     C_R   0.582452 0.278389 0.320934 -0.108303
C4    C     C_R   0.518730 0.195311 0.457234 -0.234090
C5    C     C_R   0.501737 0.186835 0.502421 -0.072318
C6    C     C_R   0.485691 0.242599 0.547388 0.000483
C7    C     C_R   0.486204 0.305806 0.545600 -0.232266
C8    C     C_R   0.502661 0.314144 0.500098 -0.074646
C9    C     C_R   0.519562 0.258690 0.455641 0.000750
C10   C     C_R   0.405088 0.240029 0.594297 -0.132372
C11   C     C_R   0.392741 0.238194 0.644595 -0.139626
C12   C     C_R   0.447174 0.235445 0.700422 -0.106973
C13   C     C_R   0.253927 0.451606 0.443071 -0.225685
C14   C     C_R   0.513966 0.234357 0.705936 -0.120804
C15   C     C_R   0.526248 0.234997 0.655177 -0.140201
C16   C     C_R   0.471836 0.238000 0.599110 0.121426
C17   C     C_R   0.313577 0.505035 0.499916 -0.083221
C18   C     C_R   0.307706 0.558530 0.555492 0.007203
C19   C     C_R   0.242674 0.554695 0.553795 -0.242186
C20   C     C_R   0.184303 0.499813 0.498124 -0.062192
C21   C     C_R   0.189230 0.448424 0.441677 -0.008804
C22   C     C_R   0.386571 0.637434 0.682474 -0.147916
C23   C     C_R   0.441416 0.696247 0.737904 -0.133952
C24   C     C_R   0.476661 0.738678 0.725916 -0.122884
C25   C     C_R   0.118057 0.499543 0.498812 0.804792
C26   C     C_R   0.457026 0.722477 0.658476 -0.117701
C27   C     C_R   0.402153 0.663834 0.602991 -0.093579
C28   C     C_R   0.366750 0.620385 0.614403 0.122825
C29   C     C_R   0.100032 0.673023 0.745244 -0.198129
C30   C     C_R   0.135325 0.708500 0.817198 -0.161962
C31   C     C_R   0.177725 0.676504 0.853711 0.054670
C32   C     C_R   0.183678 0.608095 0.816815 -0.173172
C33   C     C_R   0.147335 0.572124 0.744839 -0.197609
C34   C     C_R   0.105369 0.604377 0.708467 -0.031453
C35   C     C_R   0.285160 0.784096 0.069846 0.405304
C36   C     C_R   0.933708 0.433653 0.367403 0.788074
C37   C     C_R   0.215510 0.714309 0.929848 0.405478
C38   C     C_R   0.289481 0.860657 0.182635 -0.158814
C39   C     C_R   0.325225 0.896294 0.254613 -0.185600
C40   C     C_R   0.395716 0.895230 0.291337 -0.030329
C41   C     C_R   0.429582 0.857278 0.254754 -0.182347
C42   C     C_R   0.393438 0.820577 0.182777 -0.160182
C43   C     C_R   0.323134 0.822191 0.145993 0.056565
C44   C     C_R   0.905663 0.395949 0.646818 -0.136367
C45   C     C_R   0.853835 0.407888 0.596236 -0.136221
C46   C     C_R   0.861113 0.474478 0.600729 0.122244
C47   C     C_R   0.881710 0.500417 0.501038 0.794940
C48   C     C_R   0.920265 0.529156 0.656718 -0.137247
C49   C     C_R   0.971359 0.517281 0.707771 -0.122910
C50   C     C_R   0.964350 0.450640 0.702595 -0.107254
C51   C     C_R   0.740454 0.489464 0.547604 -0.245448
C52   C     C_R   0.686068 0.503207 0.500233 -0.080513
C53   C     C_R   0.696137 0.516159 0.453114 0.000059
C54   C     C_R   0.761113 0.515144 0.454771 -0.228741
C55   C     C_R   0.815278 0.500980 0.501922 -0.073734
C56   C     C_R   0.805026 0.487740 0.548676 -0.004151
C57   C     C_R   0.614687 0.487411 0.331679 -0.139322
C58   C     C_R   0.042030 0.281878 0.319149 -0.138718
C59   C     C_R   0.561595 0.501449 0.283692 -0.128176
C60   C     C_R   0.534282 0.560007 0.306084 -0.133974
C61   C     C_R   0.560198 0.604774 0.376492 -0.127350
C62   C     C_R   0.613338 0.591018 0.424714 -0.090300
C63   C     C_R   0.640580 0.531842 0.402542 0.118461
C64   C     C_R   0.899067 0.428295 0.254587 -0.182903
C65   C     C_R   0.864081 0.391590 0.182610 -0.174341
C66   C     C_R   0.823855 0.321834 0.146108 0.056198
C67   C     C_R   0.819900 0.289304 0.183046 -0.178436
C68   C     C_R   0.855957 0.325565 0.255014 -0.190402
C69   C     C_R   0.100123 0.334266 0.378886 -0.102483
C70   C     C_R   0.895646 0.395462 0.291418 -0.008191
C71   C     C_R   0.715888 0.212973 0.929915 0.406090
C72   C     C_R   0.785997 0.283318 0.069943 0.403454
C73   C     C_R   0.709951 0.179852 0.816975 -0.176710
C74   C     C_R   0.673916 0.143849 0.745030 -0.199590
C75   C     C_R   0.604417 0.103243 0.708481 -0.024265
C76   C     C_R   0.571836 0.098537 0.745101 -0.215470
C77   C     C_R   0.608304 0.133608 0.817084 -0.185145
C78   C     C_R   0.677602 0.174944 0.853748 0.053116
C79   C     C_R   0.498369 0.618975 0.499913 0.787601
C80   C     C_R   0.127146 0.393335 0.379219 0.085190
C81   C     C_R   0.380878 0.502230 0.500060 0.793331
C82   C     C_R   0.501257 0.381015 0.499946 0.796908
C83   C     C_R   0.619005 0.501489 0.499991 0.792592
C84   C     C_R   0.500664 0.119237 0.501163 0.792471
C85   C     C_R   0.433703 0.933451 0.367380 0.780396
C86   C     C_R   0.500382 0.881615 0.501027 0.801609
C87   C     C_R   0.566293 0.065832 0.632561 0.788626
C88   C     C_R   0.298366 0.532985 0.295271 -0.131287
C89   C     C_R   0.360410 0.586781 0.340134 -0.085605
C90   C     C_R   0.370210 0.640345 0.403611 0.110117
C91   C     C_R   0.095991 0.399013 0.319028 -0.173931
C92   C     C_R   0.316074 0.641128 0.420292 -0.178754
C93   C     C_R   0.254268 0.587059 0.375504 -0.125467
C94   C     C_R   0.245558 0.532833 0.313172 -0.106785
C95   C     C_R   0.439058 0.760705 0.454765 -0.239392
C96   C     C_R   0.500286 0.815339 0.502045 -0.040688
C97   C     C_R   0.560079 0.805950 0.549404 0.067370
C98   C     C_R   0.557886 0.741123 0.547876 -0.231951
C99   C     C_R   0.497230 0.685842 0.499683 -0.097797
C100  C     C_R   0.436949 0.695605 0.452703 -0.011587
C101  C     C_R   0.687471 0.868742 0.602380 0.035823
C102  C     C_R   0.038147 0.346351 0.259311 -0.125890
C103  C     C_R   0.746614 0.923504 0.659205 -0.180005
C104  C     C_R   0.742386 0.972916 0.716456 -0.130435
C105  C     C_R   0.679272 0.968451 0.718105 -0.109239
C106  C     C_R   0.619978 0.914836 0.662373 -0.190635
C107  C     C_R   0.623322 0.864510 0.604441 0.033161
C108  C     C_R   0.519936 0.230413 0.293574 -0.135555
C109  C     C_R   0.499381 0.223935 0.337498 -0.135399
C110  C     C_R   0.540941 0.266198 0.409199 0.120930
C111  C     C_R   0.603820 0.314188 0.436389 -0.133574
C112  C     C_R   0.624562 0.319885 0.392251 -0.123355
Cu1   Cu    Cu3+1 0.000000 0.438230 0.500020 0.945140
Cu2   Cu    Cu3+1 0.000000 0.561770 0.499980 0.956842
Cu3   Cu    Cu3+1 0.465780 0.465820 0.431560 0.969539
Cu4   Cu    Cu3+1 0.534220 0.534230 0.568440 0.959144
Cu5   Cu    Cu3+1 0.561810 0.999860 0.500000 0.967210
Cu6   Cu    Cu3+1 0.438190 0.999810 0.500000 0.951084
H1    H     H_    0.966286 0.247213 0.213154 0.133571
H2    H     H_    0.519154 0.784106 0.768875 0.127868
H3    H     H_    0.484341 0.755275 0.649134 0.131578
H4    H     H_    0.387827 0.651769 0.551186 0.096943
H5    H     H_    0.067640 0.698853 0.718352 0.153935
H6    H     H_    0.129956 0.761269 0.844245 0.152579
H7    H     H_    0.215695 0.581982 0.843565 0.150260
H8    H     H_    0.152362 0.519232 0.717616 0.150812
H9    H     H_    0.235233 0.862609 0.155676 0.149470
H10   H     H_    0.297919 0.925340 0.281525 0.150497
H11   H     H_    0.483822 0.855325 0.281780 0.154502
H12   H     H_    0.021086 0.236536 0.319112 0.124010
H13   H     H_    0.420826 0.791617 0.155931 0.149888
H14   H     H_    0.004154 0.441523 0.742026 0.125075
H15   H     H_    0.900069 0.344462 0.643053 0.127262
H16   H     H_    0.808139 0.365399 0.553611 0.120756
H17   H     H_    0.926174 0.581057 0.661322 0.117503
H18   H     H_    0.016175 0.559836 0.751603 0.150589
H19   H     H_    0.732273 0.479223 0.583459 0.154150
H20   H     H_    0.769514 0.525256 0.418955 0.151833
H21   H     H_    0.635067 0.441557 0.313679 0.118680
H22   H     H_    0.541509 0.466826 0.229132 0.129008
H23   H     H_    0.124146 0.328751 0.424691 0.130612
H24   H     H_    0.493072 0.570735 0.268891 0.125280
H25   H     H_    0.633100 0.626250 0.479161 0.114169
H26   H     H_    0.929710 0.481996 0.281438 0.148529
H27   H     H_    0.867938 0.418102 0.155543 0.150149
H28   H     H_    0.789627 0.235482 0.156338 0.148718
H29   H     H_    0.852397 0.299048 0.282188 0.146788
H30   H     H_    0.763420 0.210989 0.843806 0.151437
H31   H     H_    0.700171 0.148400 0.717978 0.151860
H32   H     H_    0.518390 0.067251 0.718073 0.154046
H33   H     H_    0.116490 0.444167 0.318463 0.124231
H34   H     H_    0.581928 0.129044 0.844027 0.153581
H35   H     H_    0.197746 0.490951 0.278581 0.117458
H36   H     H_    0.291364 0.491246 0.246773 0.120087
H37   H     H_    0.401198 0.586109 0.326022 0.119466
H38   H     H_    0.321886 0.683358 0.468017 0.125538
H39   H     H_    0.213141 0.587196 0.389101 0.133732
H40   H     H_    0.392977 0.768661 0.418938 0.151790
H41   H     H_    0.603777 0.733754 0.584428 0.148536
H42   H     H_    0.796231 0.928543 0.659143 0.164049
H43   H     H_    0.014097 0.350976 0.213039 0.139313
H44   H     H_    0.788213 0.014794 0.759677 0.136827
H45   H     H_    0.676367 0.006490 0.762810 0.153770
H46   H     H_    0.571458 0.911841 0.664745 0.125108
H47   H     H_    0.598455 0.283161 0.286899 0.120328
H48   H     H_    0.487522 0.198059 0.238322 0.128955
H49   H     H_    0.450961 0.186401 0.315730 0.125550
H50   H     H_    0.636933 0.346575 0.491595 0.103406
H51   H     H_    0.673392 0.356221 0.413213 0.138326
H52   H     H_    0.531525 0.152350 0.423138 0.150556
H53   H     H_    0.473840 0.348882 0.580042 0.152283
H54   H     H_    0.257816 0.411311 0.399850 0.163671
H55   H     H_    0.362765 0.242913 0.551625 0.122518
H56   H     H_    0.341129 0.239429 0.640564 0.126047
H57   H     H_    0.437736 0.234617 0.739629 0.125076
H58   H     H_    0.556339 0.233511 0.749808 0.151246
H59   H     H_    0.578283 0.234285 0.660078 0.112550
H60   H     H_    0.237100 0.595210 0.595764 0.140788
H61   H     H_    0.359911 0.604931 0.692588 0.126333
H62   H     H_    0.456620 0.708906 0.790181 0.133642
N1    N     N_R   0.272690 0.695672 0.965552 -0.242252
N2    N     N_R   0.306990 0.730054 0.034166 -0.242640
N3    N     N_R   0.227793 0.802521 0.034135 -0.241553
N4    N     N_R   0.193825 0.768498 0.965530 -0.242327
N5    N     N_R   0.730479 0.226896 0.034350 -0.243409
N6    N     N_R   0.695953 0.192587 0.965731 -0.245328
N7    N     N_R   0.771616 0.269186 0.965513 -0.243284
N8    N     N_R   0.805801 0.303824 0.034125 -0.246395
O1    O     O_R   0.049920 0.497760 0.599870 -0.579662
O2    O     O_R   0.528910 0.619050 0.557800 -0.589101
O3    O     O_R   0.380930 0.471140 0.442200 -0.585008
O4    O     O_R   0.438710 0.528900 0.557790 -0.576886
O5    O     O_R   0.471090 0.380990 0.442200 -0.575353
O6    O     O_R   0.528880 0.438760 0.557790 -0.588353
O7    O     O_R   0.561290 0.471140 0.442210 -0.568744
O8    O     O_R   0.619070 0.528910 0.557800 -0.588927
O9    O     O_R   0.552160 0.089990 0.499980 -0.589559
O10   O     O_R   0.447770 0.089950 0.499980 -0.574136
O11   O     O_R   0.502270 0.949920 0.400150 -0.584219
O12   O     O_R   0.049920 0.602100 0.599840 -0.586145
O13   O     O_R   0.397880 0.949890 0.400140 -0.588276
O14   O     O_R   0.552230 0.909720 0.500030 -0.554397
O15   O     O_R   0.447840 0.909680 0.500020 -0.596916
O16   O     O_R   0.602120 0.049780 0.599860 -0.583809
O17   O     O_R   0.497730 0.049740 0.599850 -0.582276
O18   O     O_R   0.090180 0.447830 0.500020 -0.591700
O19   O     O_R   0.090180 0.552170 0.499990 -0.583461
O20   O     O_R   0.950080 0.397900 0.400160 -0.585463
O21   O     O_R   0.950080 0.502240 0.400130 -0.588874
O22   O     O_R   0.909820 0.447830 0.500010 -0.578417
O23   O     O_R   0.909820 0.552170 0.499980 -0.579393
O24   O     O_R   0.471120 0.561280 0.442210 -0.577998
H63   H     H_    0.538987 0.650095 0.393610 0.164652
C113  C     C_2   0.694158 0.818194 0.541940 0.811997
O25   O     O_2   0.752323 0.809717 0.549002 -0.603935
O26   O     O_R   0.634725 0.781523 0.476598 -0.768367
H64   H     H_    0.646806 0.750006 0.439877 0.332930

loop_
_geom_bond_atom_site_label_1
_geom_bond_atom_site_label_2
_ccdc_geom_bond_type
C101  C107  A    
C77   C78   A    
C55   C56   A    
C93   C94   A    
C7    H53   S    
C95   H40   S    
C41   C42   A    
C48   H17   S    
C111  C112  A    
C62   H25   S    
N3    N4    A    
C38   H9    S    
C7    C8    A    
C54   H20   S    
C45   C46   A    
C52   C53   A    
C35   N2    A    
C45   H16   S    
C62   C63   A    
C4    H52   S    
Cu3   O24   S    
C8    C82   S    
Cu2   O21   S    
C79   C99   S    
C24   C26   A    
Cu1   O22   S    
C51   C56   A    
C47   O23   A    
C102  H43   S    
C104  H44   S    
C30   C31   A    
C50   H14   S    
C113  O26   S    
C103  H42   S    
C89   H37   S    
C106  C107  A    
C2    C102  A    
C35   N3    A    
C15   C16   A    
C97   C98   A    
C9    C110  S    
C108  C109  A    
C57   H21   S    
C3    C112  A    
C17   C18   A    
C18   C19   A    
C73   C74   A    
C83   O8    A    
C110  C111  A    
C81   O3    A    
C82   O5    A    
C14   H58   S    
C109  H49   S    
C60   H24   S    
C85   O11   A    
C13   H54   S    
C66   C72   S    
C80   C91   A    
C95   C96   A    
C8    C9    A    
C79   O2    A    
C23   C24   A    
C105  H45   S    
C74   H31   S    
C42   H13   S    
C26   H3    S    
C64   C70   A    
Cu5   O16   S    
C35   C43   S    
C86   O14   A    
Cu5   O11   S    
C85   O13   A    
C36   O21   A    
Cu3   O3    S    
C88   C89   A    
C10   H55   S    
C66   C67   A    
Cu3   O5    S    
C59   C60   A    
C101  C103  A    
Cu2   O12   S    
Cu6   O13   S    
C61   H63   S    
C77   H34   S    
C90   C100  S    
C104  C105  A    
C27   H4    S    
C36   C70   S    
C1    C34   S    
C57   C63   A    
C88   C94   A    
C79   O24   A    
C46   C48   A    
C24   H2    S    
C74   C75   A    
C73   H30   S    
C67   C68   A    
Cu1   O20   S    
C87   O17   A    
Cu6   O17   S    
C18   C28   S    
C76   C77   A    
C109  C110  A    
C71   N7    A    
C39   C40   A    
C5    C84   S    
C95   C100  A    
C4    C5    A    
C64   H26   S    
C84   O10   A    
N1    N2    A    
C37   N4    A    
C29   C34   A    
C51   C52   A    
C32   C33   A    
C60   C61   A    
C29   H5    S    
C88   H36   S    
Cu2   O23   S    
C52   C83   S    
Cu3   O7    S    
C75   C76   A    
C81   O4    A    
C29   C30   A    
C41   H11   S    
C90   C92   A    
C112  H51   S    
C14   C15   A    
C76   H32   S    
C101  C113  S    
C73   C78   A    
C37   N1    A    
C96   C97   A    
C67   H28   S    
C33   C34   A    
C26   C27   A    
C13   C21   A    
C92   H38   S    
O26   H64   S    
C93   H39   S    
C92   C93   A    
C19   H60   S    
C23   H62   S    
C68   H29   S    
C86   C96   S    
C12   H57   S    
C36   O20   A    
C51   H19   S    
C75   C87   S    
C40   C41   A    
C49   H18   S    
C12   C14   A    
C98   C99   A    
C106  H46   S    
C15   H59   S    
C72   N8    A    
C3    C108  A    
C98   H41   S    
C1    O12   A    
C42   C43   A    
C71   N6    A    
C65   H27   S    
C25   O18   A    
Cu6   O10   S    
C87   O16   A    
C103  C104  A    
Cu4   O8    S    
Cu5   O9    S    
C44   C45   A    
C3    H47   S    
C47   C55   S    
Cu1   Cu2   S    
C44   C50   A    
C44   H15   S    
Cu4   O2    S    
C54   C55   A    
C48   C49   A    
C11   H56   S    
C39   H10   S    
C40   C85   S    
C108  H48   S    
C113  O25   D    
C31   C32   A    
C30   H6    S    
C22   H61   S    
Cu6   O15   S    
C2    H1    S    
C2    C58   A    
C58   C69   A    
C53   C54   A    
C6    C7    A    
C84   O9    A    
Cu1   O1    S    
C105  C106  A    
C99   C100  A    
C13   C17   A    
Cu1   O18   S    
C19   C20   A    
C89   C90   A    
Cu4   O6    S    
C38   C43   A    
C10   C16   A    
Cu5   Cu6   S    
C64   C65   A    
C91   H33   S    
C53   C63   S    
N5    N6    A    
C5    C6    A    
C59   H22   S    
C58   H12   S    
C94   H35   S    
C38   C39   A    
C21   C80   S    
C33   H8    S    
C32   H7    S    
C17   C81   S    
C65   C66   A    
C83   O7    A    
C61   C62   A    
C72   N5    A    
C82   O6    A    
C57   C59   A    
C10   C11   A    
C6    C16   S    
C97   C107  S    
C31   C37   S    
N7    N8    A    
Cu2   O19   S    
C20   C21   A    
C68   C70   A    
C49   C50   A    
C20   C25   S    
C47   O22   A    
C46   C56   S    
C27   C28   A    
C22   C23   A    
Cu4   O4    S    
C69   C80   A    
C22   C28   A    
C111  H50   S    
C91   C102  A    
Cu3   Cu4   S    
C4    C9    A    
C25   O19   A    
C69   H23   S    
C86   O15   A    
C71   C78   S    
Cu5   O14   S    
C11   C12   A    
C1    O1    A    
