data_mof_unit_68352.cif
_audit_creation_date              2012-12-11T17:48:43-0500
_audit_creation_method            fapswitch 2.2
_symmetry_space_group_name_H-M    P1
_symmetry_Int_Tables_number       1
_space_group_crystal_system       triclinic
_cell_length_a                    8.240184
_cell_length_b                    12.930409
_cell_length_c                    14.906058
_cell_angle_alpha                 97.292644
_cell_angle_beta                  97.340139
_cell_angle_gamma                 98.121453
_cell_volume                      1542.31641541

loop_
_atom_site_label
_atom_site_type_symbol
_atom_type_description
_atom_site_fract_x
_atom_site_fract_y
_atom_site_fract_z
_atom_type_partial_charge
Ba1   Ba    Ba6+2 0.843750 0.550210 0.455600 1.899448
Ba2   Ba    Ba6+2 0.346090 0.449880 0.544410 1.875156
C1    C     C_3   0.530771 0.876682 0.126229 -0.174325
C2    C     C_R   0.894673 0.441551 0.922476 -0.026024
C3    C     C_R   0.034390 0.457816 0.110467 -0.120851
C4    C     C_3   0.051286 0.772001 0.206927 0.360062
C5    C     C_R   0.876173 0.400131 0.076567 0.090812
C6    C     C_R   0.805841 0.395173 0.985657 0.022448
C7    C     C_R   0.102784 0.470853 0.205208 -0.014913
C8    C     C_R   0.262559 0.526878 0.233340 0.294203
C9    C     C_R   0.082898 0.531631 0.795598 0.037850
C10   C     C_R   0.151136 0.542455 0.889943 0.025793
C11   C     C_R   0.058105 0.495249 0.952906 0.143502
C12   C     C_3   0.559179 0.809919 0.202158 0.684275
C13   C     C_R   0.310545 0.597720 0.923405 0.022506
C14   C     C_R   0.382197 0.599542 0.013368 -0.057016
C15   C     C_R   0.292122 0.555359 0.077059 -0.072851
C16   C     C_3   0.034199 0.809089 0.113782 0.461120
C17   C     C_R   0.127623 0.503661 0.047092 0.095054
C18   C     C_R   0.360421 0.563084 0.170144 -0.077818
C19   C     C_R   0.923177 0.474623 0.767169 -0.252902
C20   C     C_R   0.768629 0.180998 0.534047 0.266661
C21   C     C_R   0.423606 0.812161 0.470323 -0.281295
C22   C     C_R   0.402171 0.977935 0.417740 0.379548
C23   C     C_3   0.415858 0.300157 0.270678 0.347180
C24   C     C_R   0.329734 0.876426 0.426293 0.022427
C25   C     C_R   0.581157 0.851512 0.519097 0.101610
C26   C     C_R   0.646109 0.963062 0.527585 -0.051032
C27   C     C_R   0.554192 0.027381 0.473862 -0.050620
C28   C     C_3   0.266953 0.779234 0.658537 0.509435
C29   C     C_R   0.616777 0.138143 0.479977 0.029561
C30   C     C_R   0.865125 0.118364 0.579333 -0.025402
C31   C     C_R   0.800482 0.013079 0.582812 0.242855
C32   C     C_3   0.336657 0.895570 0.689607 1.032208
C33   C     C_3   0.871611 0.209942 0.305638 0.668401
C34   C     C_3   0.366873 0.271976 0.167752 0.560583
C35   C     C_3   0.983357 0.156804 0.367325 0.480153
C36   C     C_3   0.776910 0.692627 0.728929 0.373351
C37   C     C_3   0.840748 0.729723 0.830382 0.239976
C38   C     C_3   0.117510 0.199111 0.797216 0.891887
C39   C     C_3   0.164628 0.152304 0.883792 0.306630
C40   C     C_3   0.604133 0.177270 0.766606 0.347688
C41   C     C_3   0.636143 0.093714 0.827044 0.528382
C42   C     C_R   0.826263 0.434031 0.829427 -0.039976
Cl1   Cl    Cl    0.674154 0.887545 0.301686 -0.559829
Cl2   Cl    Cl    0.735578 0.114302 0.223963 -0.480292
Cl3   Cl    Cl    0.688359 0.785473 0.887062 -0.664756
Cl4   Cl    Cl    0.089944 0.218833 0.977807 -0.631663
Cl5   Cl    Cl    0.324214 0.018388 0.315335 -0.685233
Cl6   Cl    Cl    0.914876 0.957994 0.667051 -0.641067
F1    F     F_    0.313580 0.952438 0.618161 -0.763335
F2    F     F_    0.258472 0.936319 0.759708 -0.680199
F3    F     F_    0.899800 0.067115 0.391195 -0.667603
F4    F     F_    0.503145 0.252826 0.126797 -0.648209
F5    F     F_    0.186498 0.304824 0.810060 -0.698841
F6    F     F_    0.735658 0.139750 0.907814 -0.624705
F7    F     F_    0.328308 0.540221 0.322930 -0.723063
F8    F     F_    0.829085 0.284964 0.538555 -0.743527
F9    F     F_    0.042402 0.727091 0.046361 -0.755745
H1    H     H_    0.471047 0.903647 0.714529 -0.094064
H2    H     H_    0.436327 0.778837 0.218746 -0.111578
H3    H     H_    0.463417 0.941543 0.148645 0.173413
H4    H     H_    0.305579 0.318335 0.301229 -0.099380
H5    H     H_    0.514503 0.370552 0.285144 0.048589
H6    H     H_    0.270875 0.200149 0.152267 0.113566
H7    H     H_    0.316347 0.337547 0.139068 -0.075057
H8    H     H_    0.454233 0.827208 0.064963 0.076908
H9    H     H_    0.135705 0.875052 0.112671 0.064244
H10   H     H_    0.980814 0.190850 0.784025 -0.095030
H11   H     H_    0.301347 0.159636 0.899937 0.105375
H12   H     H_    0.797817 0.257668 0.346318 -0.060994
H13   H     H_    0.109537 0.067426 0.874086 0.110845
H14   H     H_    0.722108 0.206975 0.743112 -0.146735
H15   H     H_    0.513868 0.140420 0.705181 0.020079
H16   H     H_    0.698481 0.033582 0.791397 0.030478
H17   H     H_    0.952372 0.704082 0.206312 0.079414
H18   H     H_    0.517480 0.054773 0.843794 0.086717
H19   H     H_    0.803015 0.358382 0.119577 0.179091
H20   H     H_    0.681456 0.352641 0.965782 0.152065
H21   H     H_    0.508999 0.637682 0.031654 0.124443
H22   H     H_    0.384536 0.638603 0.880345 0.142257
H23   H     H_    0.085681 0.134343 0.331881 0.109149
H24   H     H_    0.869506 0.467093 0.696062 0.088473
H25   H     H_    0.172397 0.744737 0.219296 -0.111202
H26   H     H_    0.370598 0.730248 0.468197 0.093058
H27   H     H_    0.913515 0.836960 0.099493 0.114041
H28   H     H_    0.359442 0.740680 0.624837 -0.288861
H29   H     H_    0.150893 0.771833 0.610027 0.029701
H30   H     H_    0.034173 0.213891 0.429489 -0.010307
H31   H     H_    0.879482 0.666903 0.695185 -0.115666
H32   H     H_    0.674110 0.625339 0.721702 0.017510
H33   H     H_    0.650691 0.910404 0.106958 0.189678
H34   H     H_    0.953614 0.790188 0.838075 0.139657
H35   H     H_    0.872607 0.662663 0.864556 -0.001283
O1    O     O_2   0.827880 0.435260 0.277750 -0.482832
O2    O     O_2   0.191152 0.121859 0.553160 -0.393421
O3    O     O_3   0.179174 0.143895 0.725234 -0.565690
O4    O     O_3   0.100280 0.438960 0.391170 -0.427361
O5    O     O_3   0.587780 0.631850 0.546230 -0.477671
O6    O     O_2   0.332590 0.233690 0.456160 -0.492923
O7    O     O_3   0.473284 0.213465 0.303978 -0.554074
O8    O     O_2   0.491586 0.451228 0.824849 -0.438385
O9    O     O_3   0.536742 0.256316 0.816380 -0.556477
O10   O     O_3   0.625580 0.634130 0.333250 -0.397208
O11   O     O_2   0.688726 0.538202 0.174551 -0.499462
O12   O     O_3   0.720748 0.776947 0.691100 -0.567929
O13   O     O_3   0.971972 0.268027 0.255708 -0.693812
O14   O     O_3   0.651582 0.732091 0.173880 -0.631291
O15   O     O_2   0.857130 0.766340 0.543890 -0.435572
O16   O     O_3   0.056550 0.691050 0.379010 -0.506418
O17   O     O_2   0.999189 0.879694 0.444966 -0.333445
O18   O     O_3   0.036646 0.855756 0.273850 -0.534246
O19   O     O_2   0.361830 0.564780 0.722310 -0.455188
O20   O     O_3   0.089430 0.561130 0.608830 -0.489416
O21   O     O_3   0.564130 0.365960 0.666760 -0.466488
O22   O     O_3   0.234826 0.733722 0.735622 -0.646811
O23   O     O_3   0.601940 0.368240 0.453770 -0.418293
O24   O     O_3   0.133170 0.309040 0.621000 -0.400893
P1    P     P_3+3 0.998730 0.403530 0.291970 1.027307
P2    P     P_3+3 0.687380 0.751030 0.571310 1.095782
P3    P     P_3+3 0.107992 0.826325 0.382030 1.139615
P4    P     P_3+3 0.190990 0.596560 0.708040 1.017973
P5    P     P_3+3 0.088231 0.173178 0.620752 1.197315
P6    P     P_3+3 0.580221 0.615268 0.213570 1.031038
P7    P     P_3+3 0.507556 0.235315 0.423531 1.102351
P8    P     P_3+3 0.606688 0.378811 0.785293 1.047656

loop_
_geom_bond_atom_site_label_1
_geom_bond_atom_site_label_2
_ccdc_geom_bond_type
O17   P3    D    
C2    C6    A    
C40   O9    S    
Ba1   O5    S    
Ba2   O24   S    
O4    P1    S    
C13   H22   S    
C28   O22   S    
C25   P2    S    
C42   P8    S    
C32   F1    S    
C16   H27   S    
O21   P8    S    
O22   P4    S    
C26   C27   A    
C33   C35   S    
C22   C24   A    
O16   P3    S    
Ba1   P1    S    
C36   C37   S    
Ba2   O19   S    
C34   H7    S    
C16   H9    S    
C13   C14   A    
C15   C18   A    
Ba1   Ba2   S    
C23   H4    S    
C21   C24   A    
C2    C11   A    
O9    P8    S    
C22   C27   A    
C37   H34   S    
Ba1   O15   S    
O5    P2    S    
O19   P4    D    
C19   H24   S    
C8    C18   A    
C14   C15   A    
C6    H20   S    
O7    P7    S    
C24   P3    S    
C21   C25   A    
C7    C8    A    
C35   F3    S    
C12   O14   S    
Ba2   O6    S    
C32   H1    S    
C30   P5    S    
O14   P6    S    
O13   P1    S    
Ba2   O23   S    
C12   Cl1   S    
Ba2   P4    S    
C41   H16   S    
C4    C16   S    
C40   H15   S    
C4    H25   S    
C20   C29   A    
C28   C32   S    
O6    P7    D    
C5    C6    A    
C8    F7    S    
C34   F4    S    
C38   H10   S    
C38   O3    S    
C3    C5    A    
C11   C17   A    
C34   H6    S    
C2    C42   A    
O1    P1    D    
C31   Cl6   S    
C12   H2    S    
C36   H32   S    
C9    C19   A    
O11   P6    D    
C1    H33   S    
C14   H21   S    
Ba1   P2    S    
C36   O12   S    
C37   H35   S    
C3    C7    A    
Ba1   O16   S    
C19   C42   A    
Ba2   O21   S    
C41   F6    S    
C10   C13   A    
Ba1   O1    S    
C38   F5    S    
Ba1   O23   S    
Ba1   O10   S    
C20   F8    S    
C1    C12   S    
C20   C30   A    
C39   H13   S    
O10   P6    S    
C38   C39   S    
C26   C31   A    
C5    H19   S    
C21   H26   S    
C7    P1    S    
C35   H23   S    
C9    P4    S    
Ba1   O20   S    
C29   P7    S    
C28   H29   S    
C37   Cl3   S    
C1    H3    S    
C22   Cl5   S    
C40   H14   S    
O2    P5    D    
O12   P2    S    
C4    O18   S    
C1    H8    S    
O8    P8    D    
Ba1   O4    S    
Ba2   O5    S    
C9    C10   A    
C4    H17   S    
C3    C17   A    
C41   H18   S    
C36   H31   S    
C32   F2    S    
C35   H30   S    
C30   C31   A    
O18   P3    S    
O3    P5    S    
Ba2   O20   S    
C23   O7    S    
C15   C17   A    
C39   Cl4   S    
O24   P5    S    
C18   P6    S    
C33   O13   S    
C23   C34   S    
C33   H12   S    
O20   P4    S    
C16   F9    S    
C10   C11   A    
Ba2   O4    S    
C27   C29   A    
C40   C41   S    
C25   C26   A    
C28   H28   S    
C33   Cl2   S    
O23   P7    S    
C23   H5    S    
O15   P2    D    
C39   H11   S    
