data_mof_unit_47394.cif
_audit_creation_date              2012-12-10T18:23:55-0500
_audit_creation_method            fapswitch 2.2
_symmetry_space_group_name_H-M    P1
_symmetry_Int_Tables_number       1
_space_group_crystal_system       triclinic
_cell_length_a                    22.512539
_cell_length_b                    22.501667
_cell_length_c                    14.674621
_cell_angle_alpha                 89.999724
_cell_angle_beta                  89.928104
_cell_angle_gamma                 89.999936
_cell_volume                      7433.7118579

loop_
_atom_site_label
_atom_site_type_symbol
_atom_type_description
_atom_site_fract_x
_atom_site_fract_y
_atom_site_fract_z
_atom_type_partial_charge
C1    C     C_R   0.419801 0.919840 0.500024 0.814514
C2    C     C_R   0.580199 0.080159 0.499976 0.814532
C3    C     C_R   0.580198 0.919838 0.499976 0.814516
C4    C     C_R   0.419800 0.080158 0.500023 0.814528
C5    C     C_R   0.919798 0.419843 0.500024 0.814530
C6    C     C_R   0.080200 0.580158 0.499977 0.814522
C7    C     C_R   0.080201 0.419842 0.499977 0.814529
C8    C     C_R   0.919800 0.580157 0.500023 0.814523
C9    C     C_1   0.337189 0.162081 0.500009 0.085962
C10   C     C_1   0.662786 0.837891 0.499980 0.085985
C11   C     C_1   0.662801 0.162091 0.499991 0.085953
C12   C     C_1   0.337207 0.837897 0.500019 0.085977
C13   C     C_1   0.837181 0.662071 0.500006 0.085980
C14   C     C_1   0.162811 0.337917 0.499986 0.085988
C15   C     C_1   0.162813 0.662076 0.499995 0.085934
C16   C     C_1   0.837184 0.337922 0.500015 0.085940
C17   C     C_1   0.500237 0.000006 0.194565 0.278822
C18   C     C_1   0.499763 0.000006 0.805435 0.278819
C19   C     C_1   0.000237 0.500006 0.194565 0.278822
C20   C     C_1   0.999762 0.500003 0.805435 0.278822
C21   C     C_3   0.527699 0.048095 0.969134 0.332250
C22   C     C_3   0.472298 0.951930 0.030864 0.332500
C23   C     C_3   0.472367 0.048133 0.030863 0.332251
C24   C     C_3   0.527637 0.951892 0.969138 0.332500
C25   C     C_3   0.027496 0.548207 0.969134 0.332260
C26   C     C_3   0.972500 0.451809 0.030865 0.332504
C27   C     C_3   0.972165 0.548012 0.030863 0.332247
C28   C     C_3   0.027839 0.452004 0.969138 0.332490
C29   C     C_3   0.704407 0.732723 0.551207 0.322894
C30   C     C_3   0.295687 0.267353 0.449102 0.323086
C31   C     C_3   0.295662 0.732655 0.449016 0.322916
C32   C     C_3   0.704217 0.267451 0.550642 0.323096
C33   C     C_3   0.204313 0.232643 0.550883 0.322965
C34   C     C_3   0.795546 0.767219 0.448760 0.323056
C35   C     C_3   0.795765 0.232564 0.449375 0.322965
C36   C     C_3   0.204369 0.767304 0.551019 0.323052
C37   C     C_3   0.226611 0.199398 0.465287 -0.114405
C38   C     C_3   0.773438 0.800651 0.534299 -0.114508
C39   C     C_3   0.773316 0.199467 0.535014 -0.114383
C40   C     C_3   0.226606 0.800608 0.465441 -0.114484
C41   C     C_3   0.726520 0.699291 0.465668 -0.114425
C42   C     C_3   0.273390 0.300598 0.534698 -0.114447
C43   C     C_3   0.273421 0.699351 0.534594 -0.114414
C44   C     C_3   0.726664 0.300549 0.465003 -0.114428
C45   C     C_1   0.374986 0.124650 0.500089 -0.152382
C46   C     C_1   0.625000 0.875333 0.499907 -0.152373
C47   C     C_1   0.625008 0.124656 0.499910 -0.152392
C48   C     C_1   0.374996 0.875337 0.500093 -0.152373
C49   C     C_1   0.874983 0.624645 0.500088 -0.152339
C50   C     C_1   0.125015 0.375350 0.499909 -0.152349
C51   C     C_1   0.125014 0.624648 0.499911 -0.152404
C52   C     C_1   0.874983 0.375353 0.500092 -0.152411
C53   C     C_3   0.268316 0.240423 0.584829 0.322107
C54   C     C_3   0.731468 0.759355 0.415197 0.322386
C55   C     C_3   0.731822 0.240289 0.415136 0.322106
C56   C     C_3   0.268396 0.759490 0.584836 0.322370
C57   C     C_3   0.768485 0.740589 0.584772 0.322125
C58   C     C_3   0.231684 0.259574 0.415158 0.322286
C59   C     C_3   0.231634 0.740471 0.415197 0.322127
C60   C     C_3   0.768160 0.259728 0.584879 0.322271
C61   C     C_3   0.291282 0.207450 0.499687 -0.033079
C62   C     C_3   0.708689 0.792515 0.500290 -0.033101
C63   C     C_3   0.708706 0.207463 0.500317 -0.033070
C64   C     C_3   0.291303 0.792523 0.499707 -0.033101
C65   C     C_3   0.791266 0.707431 0.499684 -0.033085
C66   C     C_3   0.208717 0.292546 0.500303 -0.033112
C67   C     C_3   0.208726 0.707440 0.500321 -0.033073
C68   C     C_3   0.791276 0.292554 0.499696 -0.033101
C69   C     C_3   0.556783 0.999975 0.029987 -0.108902
C70   C     C_3   0.443217 0.000052 0.970012 -0.108902
C71   C     C_3   0.056783 0.500210 0.029987 -0.108902
C72   C     C_3   0.943217 0.499809 0.970013 -0.108904
C73   C     C_3   0.500716 0.000014 0.092544 -0.129463
C74   C     C_3   0.499284 0.000013 0.907456 -0.129462
C75   C     C_3   0.000717 0.500013 0.092544 -0.129463
C76   C     C_3   0.999283 0.500006 0.907456 -0.129464
Cu1   Cu    Cu3+1 0.500000 0.000000 0.590220 1.015554
Cu2   Cu    Cu3+1 0.500000 0.000000 0.409780 1.015558
Cu3   Cu    Cu3+1 0.000000 0.500000 0.590220 1.015554
Cu4   Cu    Cu3+1 1.000000 0.500000 0.409780 1.015552
N1    N     N_1   0.499980 0.000000 0.274190 -0.157810
N2    N     N_1   0.500020 0.000000 0.725810 -0.157810
N3    N     N_1   0.999980 0.500000 0.274190 -0.157810
N4    N     N_1   0.000020 0.500000 0.725810 -0.157810
O1    O     O_R   0.439540 0.939530 0.576170 -0.568842
O2    O     O_R   0.560460 0.060470 0.423830 -0.568831
O3    O     O_R   0.560460 0.939530 0.423830 -0.568857
O4    O     O_R   0.439540 0.060470 0.576170 -0.568850
O5    O     O_R   0.939540 0.439530 0.576170 -0.568870
O6    O     O_R   0.060460 0.560470 0.423830 -0.568877
O7    O     O_R   0.060460 0.439530 0.423830 -0.568816
O8    O     O_R   0.939540 0.560470 0.576170 -0.568821
O9    O     O_R   0.439530 0.939530 0.423800 -0.564709
O10   O     O_R   0.560470 0.060470 0.576200 -0.564767
O11   O     O_R   0.560470 0.939530 0.576200 -0.564688
O12   O     O_R   0.439530 0.060470 0.423800 -0.564743
O13   O     O_R   0.939530 0.439530 0.423800 -0.564754
O14   O     O_R   0.060470 0.560470 0.576200 -0.564719
O15   O     O_R   0.060470 0.439530 0.576200 -0.564739
O16   O     O_R   0.939530 0.560470 0.423800 -0.564708
C77   C     C_3   0.379221 0.000180 0.935443 -0.378525
C78   C     C_3   0.334410 0.999973 0.014154 -0.303102
C79   C     C_3   0.270778 0.000627 0.978563 -0.834417
H1    H     H_    0.262770 0.041281 0.937418 0.262535
H2    H     H_    0.262299 0.960749 0.935888 0.262462
H3    H     H_    0.239300 0.000345 0.036881 0.245665
H4    H     H_    0.340736 0.959615 0.056642 0.251598
H5    H     H_    0.341249 0.039678 0.057885 0.252063
H6    H     H_    0.372513 0.040389 0.892713 0.207265
H7    H     H_    0.372445 0.960232 0.892167 0.206866
C80   C     C_3   0.620779 0.000015 0.064557 -0.378522
C81   C     C_3   0.665590 0.999758 0.985846 -0.303105
C82   C     C_3   0.729224 0.000308 0.021438 -0.834422
H8    H     H_    0.737291 0.040940 0.062605 0.262514
H9    H     H_    0.737643 0.960407 0.064091 0.262487
H10   H     H_    0.760701 0.999993 0.963120 0.245662
H11   H     H_    0.659204 0.959418 0.943338 0.251635
H12   H     H_    0.658811 0.039482 0.942135 0.252025
H13   H     H_    0.627540 0.040211 0.107296 0.207251
H14   H     H_    0.627503 0.960054 0.107825 0.206880
C83   C     C_3   0.879221 0.499665 0.935445 -0.378518
C84   C     C_3   0.834411 0.499270 0.014157 -0.303109
C85   C     C_3   0.770777 0.499640 0.978568 -0.834412
H15   H     H_    0.762591 0.540252 0.937409 0.262464
H16   H     H_    0.762472 0.459719 0.935905 0.262541
H17   H     H_    0.739301 0.499227 0.036887 0.245661
H18   H     H_    0.840915 0.458945 0.056657 0.251600
H19   H     H_    0.841077 0.539010 0.057877 0.252061
H20   H     H_    0.872341 0.539844 0.892712 0.207224
H21   H     H_    0.872614 0.459687 0.892172 0.206909
C86   C     C_3   0.120779 0.500517 0.064554 -0.378520
C87   C     C_3   0.165589 0.500444 0.985842 -0.303108
C88   C     C_3   0.229220 0.501261 0.021431 -0.834412
H22   H     H_    0.237119 0.541928 0.062595 0.262581
H23   H     H_    0.237806 0.461397 0.064087 0.262419
H24   H     H_    0.260698 0.501075 0.963111 0.245662
H25   H     H_    0.159371 0.460076 0.943337 0.251582
H26   H     H_    0.158644 0.540138 0.942127 0.252081
H27   H     H_    0.127373 0.540743 0.107290 0.207281
H28   H     H_    0.127669 0.460586 0.107825 0.206850
C89   C     C_3   0.201603 0.141473 0.426859 -0.389518
C90   C     C_3   0.136670 0.148450 0.397562 -0.284818
C91   C     C_3   0.111601 0.089750 0.362629 -0.855607
H29   H     H_    0.137864 0.073610 0.303455 0.258493
H30   H     H_    0.112582 0.055807 0.417522 0.251229
H31   H     H_    0.064842 0.096188 0.340765 0.255997
H32   H     H_    0.109329 0.163571 0.456222 0.252946
H33   H     H_    0.133320 0.182202 0.342562 0.253538
H34   H     H_    0.229018 0.127901 0.367371 0.203940
H35   H     H_    0.205143 0.106528 0.480091 0.199048
C92   C     C_3   0.798531 0.858631 0.572404 -0.389364
C93   C     C_3   0.863712 0.851856 0.600501 -0.285017
C94   C     C_3   0.888728 0.910513 0.635696 -0.855777
H36   H     H_    0.886862 0.944823 0.581397 0.251116
H37   H     H_    0.863020 0.926037 0.695823 0.258665
H38   H     H_    0.935779 0.904292 0.656200 0.255885
H39   H     H_    0.867658 0.817833 0.655014 0.253848
H40   H     H_    0.890695 0.837198 0.541182 0.252691
H41   H     H_    0.794472 0.893617 0.519325 0.198818
H42   H     H_    0.771517 0.872046 0.632405 0.204154
C95   C     C_3   0.798254 0.141610 0.573789 -0.389460
C96   C     C_3   0.863142 0.148629 0.603289 -0.284990
C97   C     C_3   0.888127 0.090004 0.638661 -0.855423
H43   H     H_    0.861775 0.074038 0.697852 0.258459
H44   H     H_    0.887196 0.055917 0.583978 0.251319
H45   H     H_    0.934861 0.096470 0.660633 0.255972
H46   H     H_    0.890583 0.163591 0.544642 0.252907
H47   H     H_    0.866423 0.182516 0.658103 0.253567
H48   H     H_    0.770743 0.128156 0.633237 0.204005
H49   H     H_    0.794789 0.106565 0.520701 0.198997
C98   C     C_3   0.201569 0.858532 0.427049 -0.389320
C99   C     C_3   0.136428 0.851717 0.398759 -0.285161
C100  C     C_3   0.111462 0.910325 0.363290 -0.855633
H50   H     H_    0.113261 0.944713 0.417477 0.251221
H51   H     H_    0.137248 0.925761 0.303189 0.258624
H52   H     H_    0.064436 0.904079 0.342665 0.255868
H53   H     H_    0.132559 0.817619 0.344344 0.253826
H54   H     H_    0.109362 0.837141 0.458036 0.252695
H55   H     H_    0.205554 0.893595 0.480021 0.198795
H56   H     H_    0.228669 0.871858 0.367092 0.204187
C101  C     C_3   0.701453 0.641266 0.427688 -0.389530
C102  C     C_3   0.636464 0.648150 0.398634 -0.284660
C103  C     C_3   0.611327 0.589336 0.364263 -0.855977
H57   H     H_    0.637492 0.572990 0.305119 0.258573
H58   H     H_    0.612390 0.555580 0.419424 0.251123
H59   H     H_    0.564535 0.595709 0.342525 0.255989
H60   H     H_    0.609236 0.663462 0.457301 0.252919
H61   H     H_    0.633012 0.681724 0.343394 0.253477
H62   H     H_    0.728758 0.627552 0.368158 0.203895
H63   H     H_    0.705104 0.606453 0.481107 0.199094
C104  C     C_3   0.298401 0.358496 0.573218 -0.389388
C105  C     C_3   0.363477 0.351621 0.601825 -0.285099
C106  C     C_3   0.388427 0.410210 0.637398 -0.855482
H64   H     H_    0.386829 0.444575 0.583163 0.251285
H65   H     H_    0.362493 0.425711 0.697311 0.258555
H66   H     H_    0.435383 0.403905 0.658344 0.255917
H67   H     H_    0.367200 0.317530 0.656275 0.253802
H68   H     H_    0.390650 0.337006 0.542685 0.252749
H69   H     H_    0.294555 0.393567 0.520232 0.198838
H70   H     H_    0.271192 0.371842 0.633047 0.204167
C107  C     C_3   0.298432 0.641387 0.572879 -0.389509
C108  C     C_3   0.363382 0.648314 0.602105 -0.284813
C109  C     C_3   0.388450 0.589570 0.636872 -0.855788
H71   H     H_    0.362209 0.573379 0.696036 0.258514
H72   H     H_    0.387433 0.555683 0.581899 0.251205
H73   H     H_    0.435221 0.595972 0.658701 0.255977
H74   H     H_    0.390695 0.663483 0.543443 0.252884
H75   H     H_    0.366773 0.682012 0.657177 0.253527
H76   H     H_    0.271045 0.627776 0.632378 0.203918
H77   H     H_    0.294848 0.606486 0.519587 0.199052
C110  C     C_3   0.701725 0.358385 0.426155 -0.389368
C111  C     C_3   0.636697 0.351471 0.397318 -0.285212
C112  C     C_3   0.611812 0.410006 0.361432 -0.855368
H78   H     H_    0.613332 0.444460 0.415540 0.251402
H79   H     H_    0.637841 0.425405 0.301555 0.258489
H80   H     H_    0.564886 0.403675 0.340339 0.255909
H81   H     H_    0.633062 0.317295 0.342978 0.253792
H82   H     H_    0.609424 0.336950 0.456405 0.252751
H83   H     H_    0.705486 0.393543 0.479018 0.198822
H84   H     H_    0.729037 0.371629 0.366381 0.204165
O17   O     O_3   0.656538 0.716068 0.606344 -0.710700
H85   H     H_    0.666473 0.675767 0.628917 0.334627
O18   O     O_3   0.343671 0.284111 0.394278 -0.710979
H86   H     H_    0.333778 0.324450 0.371821 0.334572
O19   O     O_3   0.343612 0.715918 0.394106 -0.710749
H87   H     H_    0.333714 0.675582 0.371643 0.334592
O20   O     O_3   0.656138 0.284305 0.605202 -0.711031
H88   H     H_    0.665991 0.324683 0.627534 0.334541
O21   O     O_3   0.156320 0.215873 0.605684 -0.710789
H89   H     H_    0.166214 0.175535 0.628140 0.334606
O22   O     O_3   0.843403 0.783859 0.393589 -0.710993
H90   H     H_    0.833466 0.824157 0.371004 0.334581
O23   O     O_3   0.843851 0.215700 0.394838 -0.710835
H91   H     H_    0.833997 0.175322 0.372506 0.334579
O24   O     O_3   0.156430 0.784024 0.605964 -0.711032
H92   H     H_    0.166330 0.824358 0.628437 0.334561
O25   O     O_3   0.712322 0.770931 0.326373 -0.715666
H93   H     H_    0.734884 0.743020 0.287191 0.338712
O26   O     O_3   0.287270 0.228653 0.673690 -0.715627
H94   H     H_    0.264652 0.256504 0.712896 0.338723
O27   O     O_3   0.287408 0.771200 0.673687 -0.715703
H95   H     H_    0.264787 0.743347 0.712888 0.338697
O28   O     O_3   0.713020 0.228369 0.326245 -0.715658
H96   H     H_    0.735709 0.256150 0.287019 0.338700
O29   O     O_3   0.212739 0.271353 0.326294 -0.715703
H97   H     H_    0.235367 0.243510 0.287088 0.338697
O30   O     O_3   0.787644 0.729024 0.673594 -0.715470
H98   H     H_    0.765091 0.756943 0.712775 0.338740
O31   O     O_3   0.786951 0.271659 0.673772 -0.715826
H99   H     H_    0.764251 0.243887 0.712999 0.338697
O32   O     O_3   0.212607 0.728774 0.326349 -0.715582
H100  H     H_    0.235220 0.756633 0.287148 0.338731
O33   O     O_3   0.444463 0.099484 0.063212 -0.713068
H101  H     H_    0.431077 0.121103 0.008091 0.341312
O34   O     O_3   0.555539 0.900541 0.936790 -0.713098
H102  H     H_    0.568919 0.878920 0.991914 0.341251
O35   O     O_3   0.555672 0.099407 0.936781 -0.713121
H103  H     H_    0.569087 0.121009 0.991901 0.341294
O36   O     O_3   0.444326 0.900618 0.063216 -0.713145
H104  H     H_    0.430917 0.879014 0.008094 0.341235
O37   O     O_3   0.944045 0.599245 0.063213 -0.713017
H105  H     H_    0.930568 0.620807 0.008092 0.341345
O38   O     O_3   0.055956 0.400770 0.936789 -0.713221
H106  H     H_    0.069425 0.379205 0.991912 0.341221
O39   O     O_3   0.055254 0.599635 0.936781 -0.712993
H107  H     H_    0.068580 0.621292 0.991901 0.341326
O40   O     O_3   0.944744 0.400380 0.063216 -0.713199
H108  H     H_    0.931425 0.378721 0.008095 0.341201

loop_
_geom_bond_atom_site_label_1
_geom_bond_atom_site_label_2
_ccdc_geom_bond_type
C99   H53   S    
Cu2   O3    S    
C91   H31   S    
C17   C73   S    
C98   C99   S    
C9    C45   T    
C77   C78   S    
C71   C75   S    
C72   C83   S    
C78   C79   S    
C26   C72   S    
C107  C108  S    
C107  H77   S    
Cu3   O14   S    
C11   C47   T    
C34   O22   S    
Cu2   N1    S    
C31   O19   S    
C83   H21   S    
C56   O27   S    
C98   H55   S    
C53   O26   S    
C95   C96   S    
C37   C89   S    
C70   C77   S    
C89   H34   S    
O38   H106  S    
C13   C65   S    
C101  C102  S    
C36   O24   S    
C29   O17   S    
C110  H84   S    
C109  H72   S    
O31   H99   S    
O21   H89   S    
C55   O28   S    
C85   H15   S    
C9    C61   S    
C6    O14   A    
Cu3   O15   S    
C24   C69   S    
C97   H44   S    
O26   H94   S    
C104  H69   S    
O35   H103  S    
C11   C63   S    
C103  H58   S    
C42   C53   S    
Cu3   N4    S    
Cu4   O13   S    
C19   N3    T    
C85   H16   S    
C111  H81   S    
Cu2   O9    S    
C77   H6    S    
C91   H29   S    
C27   O37   S    
C21   O35   S    
Cu1   O10   S    
C35   C68   S    
C20   C76   S    
C80   H13   S    
O27   H95   S    
C2    O2    A    
C31   C59   S    
C84   H18   S    
O20   H88   S    
C102  C103  S    
C14   C50   T    
C86   H28   S    
C59   C67   S    
C4    O12   A    
C101  H62   S    
C42   C104  S    
C58   C66   S    
O18   H86   S    
Cu1   O4    S    
Cu2   O12   S    
C87   C88   S    
C106  H65   S    
C55   C63   S    
C43   C107  S    
C88   H24   S    
O24   H92   S    
C56   C64   S    
C5    C52   S    
C78   H5    S    
C35   O23   S    
C15   C51   T    
C6    C51   S    
C39   C95   S    
O39   H107  S    
C37   C58   S    
C57   O30   S    
C8    O8    A    
C82   H10   S    
C95   H48   S    
Cu2   O2    S    
C100  H51   S    
Cu1   O1    S    
C18   C74   S    
C40   C59   S    
C108  H75   S    
O25   H93   S    
Cu4   O16   S    
C33   C53   S    
C23   C70   S    
C41   C101  S    
C10   C62   S    
C53   C61   S    
C8    C49   S    
C23   C73   S    
Cu4   N3    S    
C33   O21   S    
C31   C64   S    
C34   C65   S    
C107  H76   S    
C81   C82   S    
C89   H35   S    
O19   H87   S    
C4    C45   S    
C112  H79   S    
C1    O1    A    
C109  H73   S    
C93   H40   S    
C36   C67   S    
C90   C91   S    
C108  C109  S    
C29   C57   S    
C3    O3    A    
C104  C105  S    
C112  H78   S    
C90   H33   S    
C36   C40   S    
C97   H45   S    
C104  H70   S    
C32   C63   S    
O32   H100  S    
C103  H59   S    
C57   C65   S    
C85   H17   S    
C41   C65   S    
C54   C62   S    
C77   H7    S    
C100  H50   S    
C35   C55   S    
C21   C74   S    
Cu1   O11   S    
C33   C37   S    
Cu3   Cu4   S    
C21   C69   S    
C80   H14   S    
C54   O25   S    
C92   H41   S    
C7    O15   A    
C24   O34   S    
C35   C39   S    
C103  H57   S    
C70   C74   S    
O17   H85   S    
C36   C56   S    
O34   H102  S    
C38   C57   S    
C101  H63   S    
C25   O39   S    
C110  C111  S    
C32   O20   S    
C2    O10   A    
C92   C93   S    
C106  H66   S    
C15   C67   S    
C33   C66   S    
C26   C75   S    
C14   C66   S    
C72   C76   S    
C79   H2    S    
C102  H61   S    
C105  H67   S    
C111  C112  S    
C94   H38   S    
C69   C73   S    
C60   C68   S    
C83   C84   S    
C13   C49   T    
C31   C43   S    
C23   O33   S    
C25   C71   S    
C95   H49   S    
C1    O9    A    
C5    O13   A    
C34   C54   S    
C105  H68   S    
C108  H74   S    
C21   C23   S    
C59   O32   S    
C88   H22   S    
C2    C47   S    
C22   C24   S    
C98   H56   S    
C44   C68   S    
C28   C71   S    
C94   H37   S    
C60   O31   S    
C32   C60   S    
C10   C46   T    
O36   H104  S    
C28   C76   S    
C78   H4    S    
C38   C92   S    
C79   H1    S    
C39   C63   S    
C99   C100  S    
Cu3   O8    S    
C82   H8    S    
O23   H91   S    
C100  H52   S    
C99   H54   S    
C91   H30   S    
C112  H80   S    
C29   C62   S    
C80   C81   S    
C29   C41   S    
C34   C38   S    
C90   H32   S    
C58   O29   S    
C16   C52   T    
C7    C50   S    
C83   H20   S    
C27   C75   S    
C37   C61   S    
O40   H108  S    
C1    C48   S    
C84   C85   S    
C30   O18   S    
C4    O4    A    
C22   O36   S    
C96   C97   S    
C28   O38   S    
C110  H83   S    
C3    C46   S    
C26   C28   S    
C40   C64   S    
C81   H11   S    
C16   C68   S    
C105  C106  S    
C44   C110  S    
Cu4   O7    S    
C20   N4    T    
C8    O16   A    
C6    O6    A    
C89   C90   S    
C92   H42   S    
C7    O7    A    
C81   H12   S    
C69   C80   S    
C44   C55   S    
C24   C74   S    
O33   H101  S    
C111  H82   S    
Cu1   N2    S    
C12   C64   S    
C39   C60   S    
C30   C58   S    
C19   C75   S    
C18   N2    T    
C12   C48   T    
C93   H39   S    
C79   H3    S    
C17   N1    T    
C102  H60   S    
C84   H19   S    
C86   C87   S    
C41   C54   S    
Cu3   O5    S    
C97   H43   S    
C86   H27   S    
C96   H47   S    
C71   C86   S    
C96   H46   S    
C43   C56   S    
C26   O40   S    
C93   C94   S    
C32   C44   S    
C25   C76   S    
C43   C67   S    
C106  H64   S    
C30   C61   S    
C22   C73   S    
O22   H90   S    
C42   C66   S    
C88   H23   S    
O37   H105  S    
Cu1   Cu2   S    
C30   C42   S    
C3    O11   A    
C87   H25   S    
C109  H71   S    
C82   H9    S    
C94   H36   S    
O29   H97   S    
C87   H26   S    
Cu4   O6    S    
C22   C70   S    
C40   C98   S    
C5    O5    A    
C27   C72   S    
O28   H96   S    
O30   H98   S    
C38   C62   S    
C25   C27   S    
