data_mof_unit_30663.cif
_audit_creation_date              2012-12-10T19:00:47-0500
_audit_creation_method            fapswitch 2.2
_symmetry_space_group_name_H-M    P1
_symmetry_Int_Tables_number       1
_space_group_crystal_system       triclinic
_cell_length_a                    15.084375
_cell_length_b                    10.83679
_cell_length_c                    9.538893
_cell_angle_alpha                 90.456356
_cell_angle_beta                  89.994448
_cell_angle_gamma                 90.284125
_cell_volume                      1559.21799634

loop_
_atom_site_label
_atom_site_type_symbol
_atom_type_description
_atom_site_fract_x
_atom_site_fract_y
_atom_site_fract_z
_atom_type_partial_charge
C1    C     C_R   0.497912 0.262379 0.499434 0.801333
C2    C     C_R   0.907138 0.497282 0.371550 0.109743
C3    C     C_R   0.953762 0.495987 0.755474 -0.211762
C4    C     C_R   0.046194 0.496571 0.755497 -0.210471
C5    C     C_R   0.092893 0.497460 0.628417 0.109605
C6    C     C_R   0.046487 0.497601 0.499978 0.061376
C7    C     C_R   0.092916 0.498320 0.371551 0.109592
C8    C     C_R   0.046242 0.498304 0.244453 -0.210380
C9    C     C_R   0.953811 0.497754 0.244451 -0.211208
C10   C     C_R   0.185263 0.498240 0.627526 -0.246626
C11   C     C_R   0.231674 0.499101 0.500005 -0.071861
C12   C     C_R   0.328579 0.499753 0.500010 0.814598
C13   C     C_R   0.185285 0.499077 0.372470 -0.246384
C14   C     C_R   0.481695 0.065148 0.623667 0.126819
C15   C     C_R   0.488359 0.129460 0.498091 -0.098897
C16   C     C_R   0.482518 0.063376 0.371017 -0.216216
C17   C     C_R   0.483083 0.934662 0.371718 -0.215031
C18   C     C_R   0.489538 0.871077 0.499484 -0.099232
C19   C     C_R   0.482317 0.938095 0.624558 0.133475
C20   C     C_3   0.537825 0.935389 0.754140 -0.489494
C21   C     C_3   0.536632 0.075248 0.753258 -0.452183
C22   C     C_R   0.575401 0.528154 0.074050 0.259817
C23   C     C_R   0.498486 0.737838 0.500255 0.803520
C24   C     C_R   0.428438 0.459308 0.073970 -0.088276
C25   C     C_R   0.428389 0.459453 0.925231 -0.085167
C26   C     C_R   0.575647 0.527236 0.926624 0.257473
C27   C     C_3   0.627359 0.644526 0.921866 -0.513836
C28   C     C_3   0.626357 0.646148 0.080887 -0.497140
C29   C     C_R   0.671426 0.499283 0.499982 0.815603
C30   C     C_R   0.814779 0.497239 0.372481 -0.247834
C31   C     C_R   0.768346 0.497663 0.499963 -0.073248
C32   C     C_R   0.814755 0.496306 0.627423 -0.251317
C33   C     C_R   0.907113 0.496379 0.628368 0.110213
C34   C     C_R   0.953550 0.497108 0.499966 0.062477
Cu1   Cu    Cu3+1 0.500000 0.499980 0.640670 0.940437
Cu2   Cu    Cu3+1 0.500000 0.500020 0.359330 0.939801
H1    H     H_    0.779243 0.496750 0.273797 0.147386
H2    H     H_    0.482961 0.885796 0.272232 0.162475
H3    H     H_    0.501089 0.896089 0.844543 0.197401
H4    H     H_    0.604922 0.896749 0.734749 0.198041
H5    H     H_    0.499065 0.115946 0.842464 0.197905
H6    H     H_    0.602880 0.117316 0.733910 0.200857
H7    H     H_    0.370042 0.427626 0.128819 0.138075
H8    H     H_    0.369945 0.427936 0.869839 0.138153
H9    H     H_    0.694695 0.631563 0.877254 0.189430
H10   H     H_    0.588838 0.720192 0.875238 0.215051
H11   H     H_    0.693214 0.634278 0.127410 0.189696
H12   H     H_    0.779199 0.495032 0.726072 0.147347
H13   H     H_    0.587145 0.723452 0.126029 0.212461
H14   H     H_    0.918776 0.495443 0.854715 0.135113
H15   H     H_    0.081137 0.496401 0.854762 0.134929
H16   H     H_    0.220860 0.498174 0.726269 0.147425
H17   H     H_    0.220898 0.499680 0.273735 0.147547
H18   H     H_    0.081204 0.498798 0.145196 0.134918
H19   H     H_    0.918845 0.497901 0.145199 0.135130
N1    N     N_R   0.500570 0.500930 0.147930 -0.185218
N2    N     N_R   0.500570 0.500890 0.852020 -0.184008
O1    O     O_R   0.500000 0.319640 0.618810 -0.579723
O2    O     O_R   0.500010 0.319680 0.381230 -0.584733
O3    O     O_R   0.370250 0.499950 0.618800 -0.593829
O4    O     O_R   0.370260 0.499990 0.381220 -0.593628
O5    O     O_R   0.499990 0.680320 0.618770 -0.576013
O6    O     O_R   0.500000 0.680360 0.381190 -0.584483
O7    O     O_R   0.629740 0.500010 0.618780 -0.587413
O8    O     O_R   0.629750 0.500050 0.381200 -0.585500
H20   H     H_    0.482230 0.110398 0.271246 0.165890

loop_
_geom_bond_atom_site_label_1
_geom_bond_atom_site_label_2
_ccdc_geom_bond_type
C7    C13   A    
C11   C12   S    
C28   H11   S    
C6    C7    A    
C1    C15   S    
C24   N1    A    
Cu2   O6    S    
C11   C13   A    
C28   H13   S    
C19   C20   S    
C2    C30   A    
Cu1   N2    S    
Cu2   O2    S    
C10   H16   S    
C32   C33   A    
C27   H9    S    
C23   O6    A    
C17   C18   A    
C29   O7    A    
C5    C10   A    
C29   C31   S    
C22   C28   S    
C1    O1    A    
C24   C25   A    
C12   O4    A    
C32   H12   S    
C2    C34   A    
C26   C27   S    
Cu1   O7    S    
C25   N2    A    
Cu1   O1    S    
C29   O8    A    
C5    C6    A    
C14   C21   S    
Cu2   N1    S    
C3    H14   S    
C33   C34   A    
Cu1   O5    S    
C13   H17   S    
C17   H2    S    
C1    O2    A    
Cu2   O4    S    
C22   C26   A    
C30   C31   A    
C20   H4    S    
C26   N2    A    
C21   H5    S    
C9    H19   S    
C16   H20   S    
C15   C16   A    
C3    C33   A    
C4    H15   S    
C18   C23   S    
C12   O3    A    
C6    C34   A    
C7    C8    A    
C27   H10   S    
C20   C21   S    
C25   H8    S    
C30   H1    S    
C18   C19   A    
C10   C11   A    
C8    H18   S    
C27   C28   S    
C24   H7    S    
C20   H3    S    
C14   C15   A    
Cu1   O3    S    
C22   N1    A    
C21   H6    S    
Cu2   O8    S    
C2    C9    A    
C4    C5    A    
C14   C19   A    
C23   O5    A    
C3    C4    A    
C31   C32   A    
C16   C17   A    
C8    C9    A    
Cu1   Cu2   S    
