data_mof_unit_38684.cif
_audit_creation_date              2012-12-11T19:49:35-0500
_audit_creation_method            fapswitch 2.2
_symmetry_space_group_name_H-M    P1
_symmetry_Int_Tables_number       1
_space_group_crystal_system       triclinic
_cell_length_a                    8.289105
_cell_length_b                    15.189084
_cell_length_c                    18.738974
_cell_angle_alpha                 102.356946
_cell_angle_beta                  90.208473
_cell_angle_gamma                 100.141373
_cell_volume                      2266.55015823

loop_
_atom_site_label
_atom_site_type_symbol
_atom_type_description
_atom_site_fract_x
_atom_site_fract_y
_atom_site_fract_z
_atom_type_partial_charge
Ba1   Ba    Ba6+2 0.853520 0.540910 0.466490 1.708339
Ba2   Ba    Ba6+2 0.336320 0.459170 0.533520 1.688982
C1    C     C_3   0.656527 0.839279 0.233248 0.253843
C2    C     C_R   0.898321 0.402994 0.092921 0.040421
C3    C     C_R   0.736862 0.362734 0.070410 -0.087493
C4    C     C_3   0.127791 0.828201 0.271590 0.728211
C5    C     C_R   0.671846 0.371448 0.004498 -0.102291
C6    C     C_R   0.769104 0.417260 0.956795 0.024693
C7    C     C_R   0.935108 0.453071 0.976989 0.003561
C8    C     C_R   0.702428 0.427478 0.890066 -0.020882
C9    C     C_R   0.806434 0.461338 0.837116 -0.044169
C10   C     C_R   0.973614 0.500309 0.859172 -0.012453
C11   C     C_R   0.035434 0.497150 0.929744 -0.006320
C12   C     C_3   0.603678 0.755405 0.265883 0.292939
C13   C     C_R   0.754076 0.457797 0.763277 -0.018047
C14   C     C_R   0.866281 0.490754 0.715046 -0.290135
C15   C     C_R   0.023444 0.539247 0.737973 0.030438
C16   C     C_3   0.130668 0.930821 0.275538 -0.226383
C17   C     C_R   0.077131 0.547260 0.812761 -0.053270
C18   C     C_R   0.161625 0.488374 0.069480 -0.021000
C19   C     C_R   0.220712 0.489181 0.141055 0.003319
C20   C     C_R   0.114528 0.448744 0.189353 -0.049582
C21   C     C_R   0.957906 0.401011 0.162388 -0.065784
C22   C     C_R   0.228300 0.601307 0.844391 -0.020052
C23   C     C_3   0.511617 0.215554 0.303416 0.807040
C24   C     C_R   0.297242 0.587007 0.909010 0.038975
C25   C     C_R   0.199062 0.537149 0.953067 0.027476
C26   C     C_R   0.262538 0.532002 0.022442 0.023942
C27   C     C_R   0.460921 0.626793 0.932841 -0.083141
C28   C     C_3   0.287960 0.751198 0.643057 0.336902
C29   C     C_R   0.525066 0.618276 0.999469 -0.106537
C30   C     C_R   0.426067 0.572603 0.045431 0.037921
C31   C     C_R   0.384238 0.532192 0.164586 -0.049144
C32   C     C_R   0.487084 0.569924 0.114844 -0.130501
C33   C     C_R   0.436709 0.539642 0.238156 -0.016363
C34   C     C_3   0.520350 0.130109 0.244198 -0.283117
C35   C     C_R   0.325070 0.506981 0.286562 -0.168308
C36   C     C_R   0.167441 0.458773 0.263307 -0.022864
C37   C     C_R   0.841906 0.178422 0.570662 -0.037767
C38   C     C_R   0.774950 0.084321 0.563726 -0.044001
C39   C     C_R   0.651412 0.892281 0.536978 -0.048293
C40   C     C_3   0.404064 0.829418 0.692837 0.345087
C41   C     C_R   0.795245 0.931882 0.580564 -0.083386
C42   C     C_R   0.858773 0.025441 0.591546 -0.102123
C43   C     C_R   0.592015 0.796226 0.520138 0.011912
C44   C     C_R   0.457250 0.759940 0.471975 -0.238820
C45   C     C_3   0.069235 0.277322 0.737177 0.343719
C46   C     C_R   0.594284 0.202226 0.512201 0.056653
C47   C     C_R   0.529979 0.106334 0.500551 -0.041546
C48   C     C_R   0.620642 0.047562 0.526336 -0.000882
C49   C     C_R   0.381349 0.066211 0.460275 -0.044727
C50   C     C_R   0.322358 0.972123 0.446759 -0.111111
C51   C     C_R   0.415649 0.912525 0.466532 -0.035856
C52   C     C_3   0.076451 0.239773 0.304439 0.670900
C53   C     C_R   0.562539 0.950763 0.509950 0.023564
C54   C     C_R   0.367653 0.815793 0.444731 0.002437
C55   C     C_R   0.748175 0.236138 0.547338 -0.280753
C56   C     C_3   0.079714 0.244104 0.807701 -0.305452
C57   C     C_3   0.111213 0.220598 0.222349 -0.181810
C58   C     C_3   0.735809 0.673831 0.687353 0.278485
C59   C     C_3   0.749612 0.703368 0.770776 -0.303341
C60   C     C_3   0.395086 0.974562 0.759901 0.229458
C61   C     C_3   0.974538 0.163964 0.395638 0.194044
C62   C     C_1   0.962198 0.181774 0.175633 0.343631
C63   C     C_3   0.666023 0.971707 0.322100 0.085289
C64   C     C_1   0.878976 0.784022 0.795057 0.353952
C65   C     C_3   0.513033 0.330968 0.241703 0.213661
C66   C     C_3   0.697776 0.179803 0.874919 0.133409
C67   C     C_3   0.559746 0.237382 0.708345 0.432856
C68   C     C_3   0.073139 0.691645 0.182879 0.278910
C69   C     C_1   0.525755 0.408601 0.882119 0.332720
C70   C     C_1   0.275420 0.692956 0.833766 0.253017
C71   C     C_1   0.138922 0.953198 0.202930 0.325924
C72   C     C_1   0.199331 0.795104 0.597040 0.254688
C73   C     C_3   0.586243 0.179339 0.762427 0.293206
C74   C     C_R   0.998751 0.447921 0.046300 0.003578
H1    H     H_    0.583961 0.777226 0.325166 0.039340
H2    H     H_    0.631289 0.720250 0.791544 0.078889
H3    H     H_    0.487972 0.718244 0.235822 0.002704
H4    H     H_    0.626187 0.819683 0.173477 0.053752
H5    H     H_    0.383321 0.219027 0.310075 -0.131718
H6    H     H_    0.441877 0.069765 0.258081 0.084306
H7    H     H_    0.477170 0.136383 0.189791 0.069724
H8    H     H_    0.648206 0.117803 0.240857 0.148199
H9    H     H_    0.791590 0.861638 0.238572 0.095039
H10   H     H_    0.240294 0.972146 0.308055 0.023999
H11   H     H_    0.142574 0.347419 0.744246 0.091041
H12   H     H_    0.481450 0.801197 0.727052 0.075102
H13   H     H_    0.939043 0.279718 0.726088 -0.025404
H14   H     H_    0.206828 0.235744 0.819124 0.145318
H15   H     H_    0.041023 0.293882 0.853956 0.102005
H16   H     H_    0.998926 0.176311 0.802205 0.110269
H17   H     H_    0.681097 0.267583 0.691333 -0.109620
H18   H     H_    0.491127 0.192144 0.659157 -0.012945
H19   H     H_    0.640582 0.120456 0.732984 -0.054342
H20   H     H_    0.463843 0.155797 0.782754 0.001100
H21   H     H_    0.659084 0.325604 0.104333 0.064916
H22   H     H_    0.544883 0.339897 0.990824 0.078406
H23   H     H_    0.486643 0.868032 0.658781 -0.113157
H24   H     H_    0.826435 0.483461 0.658699 0.052921
H25   H     H_    0.878196 0.364034 0.195662 0.112208
H26   H     H_    0.540502 0.664095 0.899475 0.065668
H27   H     H_    0.651286 0.649554 0.015845 0.077653
H28   H     H_    0.613353 0.600987 0.130544 0.094710
H29   H     H_    0.258462 0.820658 0.264459 0.007013
H30   H     H_    0.364781 0.515262 0.343059 0.060265
H31   H     H_    0.862644 0.891076 0.605590 0.132068
H32   H     H_    0.973367 0.051184 0.622955 0.113387
H33   H     H_    0.202383 0.946544 0.420788 0.078812
H34   H     H_    0.187604 0.276159 0.337866 -0.049231
H35   H     H_    0.308800 0.106292 0.437265 0.115288
H36   H     H_    0.416660 0.686349 0.457575 0.079803
H37   H     H_    0.802405 0.307041 0.549865 0.059858
H38   H     H_    0.021032 0.952499 0.302475 0.072541
H39   H     H_    0.356507 0.703238 0.608390 -0.111489
H40   H     H_    0.326808 0.013156 0.802876 0.069868
H41   H     H_    0.400442 0.007036 0.711941 0.011252
H42   H     H_    0.520178 0.977112 0.783047 0.007677
H43   H     H_    0.840364 0.160272 0.395983 0.053833
H44   H     H_    0.034067 0.229051 0.432650 0.074919
H45   H     H_    0.196017 0.170983 0.210705 0.050008
H46   H     H_    0.002037 0.105726 0.417556 0.036047
H47   H     H_    0.771186 0.012029 0.299976 0.097489
H48   H     H_    0.710004 0.936812 0.362927 0.031090
H49   H     H_    0.590445 0.020213 0.350699 0.095193
H50   H     H_    0.412415 0.355354 0.273893 -0.085435
H51   H     H_    0.463862 0.282071 0.190290 -0.024531
H52   H     H_    0.590750 0.389543 0.225909 0.084488
H53   H     H_    0.731406 0.111830 0.852233 0.031799
H54   H     H_    0.578284 0.171207 0.901748 0.044053
H55   H     H_    0.793119 0.217425 0.917508 0.082894
H56   H     H_    0.170402 0.283576 0.205927 -0.073397
H57   H     H_    0.203339 0.699960 0.167189 -0.014181
H58   H     H_    0.996506 0.656838 0.132733 0.040262
H59   H     H_    0.049588 0.646661 0.222557 0.119035
H60   H     H_    0.852742 0.655656 0.666337 0.029062
H61   H     H_    0.636424 0.612880 0.672394 0.058284
H62   H     H_    0.777046 0.647195 0.795170 0.016600
N1    N     N_1   0.846046 0.151441 0.137902 -0.308395
N2    N     N_1   0.980414 0.847865 0.814303 -0.230790
N3    N     N_1   0.383999 0.392630 0.878571 -0.300464
N4    N     N_1   0.313673 0.768849 0.830981 -0.240968
N5    N     N_1   0.145372 0.970798 0.145784 -0.280073
N6    N     N_1   0.135108 0.834514 0.562547 -0.317180
O1    O     O_2   0.871960 0.437280 0.322960 -0.395273
O2    O     O_2   0.170824 0.178273 0.542253 -0.502381
O3    O     O_3   0.132457 0.217086 0.681396 -0.584370
O4    O     O_3   0.121410 0.444460 0.412450 -0.495439
O5    O     O_3   0.580430 0.613240 0.540320 -0.485679
O6    O     O_2   0.337390 0.273050 0.457610 -0.497137
O7    O     O_3   0.576030 0.201734 0.367514 -0.677575
O8    O     O_2   0.419671 0.469108 0.753516 -0.483705
O9    O     O_3   0.463575 0.301664 0.740142 -0.581522
O10   O     O_3   0.661450 0.607570 0.372550 -0.460385
O11   O     O_2   0.774016 0.536301 0.245642 -0.498482
O12   O     O_3   0.699665 0.746468 0.658877 -0.660064
O13   O     O_3   0.954943 0.293604 0.319279 -0.601847
O14   O     O_3   0.725273 0.700962 0.256591 -0.581027
O15   O     O_2   0.852310 0.726980 0.542430 -0.469552
O16   O     O_3   0.084010 0.657370 0.410280 -0.424145
O17   O     O_2   0.275636 0.697742 0.318015 -0.603448
O18   O     O_3   0.308993 0.884603 0.739118 -0.601700
O19   O     O_3   0.025560 0.153847 0.323082 -0.691749
O20   O     O_3   0.569909 0.909360 0.264498 -0.677506
O21   O     O_3   0.608250 0.292670 0.284672 -0.613391
O22   O     O_3   0.693488 0.231287 0.820759 -0.658910
O23   O     O_3   0.060372 0.805239 0.336602 -0.601302
O24   O     O_3   0.026088 0.776787 0.210369 -0.656810
O25   O     O_2   0.317750 0.562750 0.677090 -0.475784
O26   O     O_3   0.068300 0.555620 0.587560 -0.489290
O27   O     O_3   0.528270 0.392500 0.627460 -0.483209
O28   O     O_3   0.177791 0.709262 0.687590 -0.623810
O29   O     O_3   0.609290 0.386840 0.459690 -0.439792
O30   O     O_3   0.105700 0.342700 0.589730 -0.474573
P1    P     P_3+3 0.039430 0.410940 0.333230 1.003055
P2    P     P_3+3 0.676770 0.715000 0.563590 0.962537
P3    P     P_3+3 0.191376 0.752405 0.381570 0.934340
P4    P     P_3+3 0.150290 0.589140 0.666780 0.986728
P5    P     P_3+3 0.060674 0.228307 0.596660 0.944282
P6    P     P_3+3 0.646427 0.595097 0.277384 0.982605
P7    P     P_3+3 0.526493 0.269895 0.450298 0.994090
P8    P     P_3+3 0.544288 0.408225 0.721936 0.974986

loop_
_geom_bond_atom_site_label_1
_geom_bond_atom_site_label_2
_ccdc_geom_bond_type
C15   P4    S    
Ba2   O6    S    
Ba1   P2    S    
C57   H45   S    
C5    H22   S    
O10   P6    S    
C1    H9    S    
C45   H13   S    
O27   P8    S    
Ba1   O1    S    
C16   H38   S    
C73   H19   S    
C46   C55   A    
C21   H25   S    
C43   C44   A    
O11   P6    D    
C61   O19   S    
C10   C11   A    
C18   C74   A    
C57   C62   S    
C16   H10   S    
C54   P3    S    
O26   P4    S    
C33   C35   A    
C22   C24   A    
C44   H36   S    
Ba2   O29   S    
C46   P7    S    
C28   C72   S    
C59   H62   S    
C63   H48   S    
C19   C31   A    
C34   H7    S    
Ba2   O4    S    
C13   C14   A    
C20   C36   A    
C13   P8    S    
Ba1   O26   S    
C52   H34   S    
C63   H49   S    
Ba1   Ba2   S    
C12   H1    S    
C7    C11   A    
C39   C53   A    
C60   H41   S    
O14   P6    S    
C15   C17   A    
C9    C13   A    
C59   C64   S    
O12   P2    S    
O1    P1    D    
C34   H6    S    
C6    C7    A    
C47   C49   A    
C27   H26   S    
C68   H57   S    
Ba1   O5    S    
C7    C74   A    
C52   O19   S    
C56   H15   S    
C58   H60   S    
C58   H61   S    
C69   N3    T    
C8    C69   S    
C65   O21   S    
Ba2   O5    S    
C51   C53   A    
O29   P7    S    
C19   C20   A    
C23   H5    S    
C39   C41   A    
Ba1   O10   S    
C66   O22   S    
C1    H4    S    
C10   C17   A    
C73   H20   S    
O7    P7    S    
O6    P7    D    
C4    O24   S    
C52   C57   S    
C42   H32   S    
C45   H11   S    
C4    C16   S    
C45   O3    S    
C57   H56   S    
O4    P1    S    
C60   H42   S    
C49   C50   A    
Ba1   O15   S    
C67   H18   S    
C65   H50   S    
C37   C38   A    
C3    C5    A    
C2    C21   A    
C14   C15   A    
C55   H37   S    
C18   C26   A    
C23   O21   S    
C32   H28   S    
C58   C59   S    
C29   H27   S    
C66   H55   S    
C70   N4    T    
C41   C42   A    
C58   O12   S    
C60   H40   S    
C35   C36   A    
C68   O24   S    
C61   H43   S    
C29   C30   A    
C26   C30   A    
C59   H2    S    
C9    C10   A    
Ba1   O29   S    
C31   C32   A    
C24   C25   A    
C41   H31   S    
C12   H3    S    
O9    P8    S    
C66   H54   S    
C56   H14   S    
C28   O28   S    
C1    C12   S    
C1    O20   S    
O13   P1    S    
C46   C47   A    
O23   P3    S    
Ba2   O26   S    
C16   C71   S    
O15   P2    D    
C68   H59   S    
C43   P2    S    
C40   H12   S    
O8    P8    D    
C65   H51   S    
O25   P4    D    
C61   H46   S    
C50   C51   A    
C22   C70   S    
C71   N5    T    
C51   C54   A    
O28   P4    S    
C33   P6    S    
C72   N6    T    
C4    O23   S    
Ba1   P1    S    
C49   H35   S    
C23   C34   S    
Ba1   O16   S    
C14   H24   S    
C3    H21   S    
C2    C3    A    
C12   O14   S    
C37   P5    S    
C28   H39   S    
C40   O18   S    
Ba2   O27   S    
C67   H17   S    
C48   C53   A    
C23   O7    S    
O5    P2    S    
C17   C22   A    
C35   H30   S    
C27   C29   A    
C40   H23   S    
Ba2   O30   S    
C52   O13   S    
C61   H44   S    
C36   P1    S    
C60   O18   S    
C56   H16   S    
C50   H33   S    
C34   H8    S    
C38   C48   A    
C63   O20   S    
C31   C33   A    
C4    H29   S    
O2    P5    D    
C67   C73   S    
C73   O22   S    
C28   C40   S    
C63   H47   S    
C66   H53   S    
C67   O9    S    
O16   P3    S    
C2    C74   A    
C5    C6    A    
C8    C9    A    
Ba2   O25   S    
O3    P5    S    
C38   C42   A    
C64   N2    T    
C18   C19   A    
C24   C27   A    
C6    C8    A    
C47   C48   A    
C44   C54   A    
C25   C26   A    
C68   H58   S    
C39   C43   A    
C20   C21   A    
C11   C25   A    
Ba1   O4    S    
Ba2   P4    S    
C65   H52   S    
O17   P3    D    
O30   P5    S    
C30   C32   A    
C45   C56   S    
C62   N1    T    
C37   C55   A    
