data_mof_unit_25370.cif
_audit_creation_date              2012-12-11T17:23:09-0500
_audit_creation_method            fapswitch 2.2
_symmetry_space_group_name_H-M    P1
_symmetry_Int_Tables_number       1
_space_group_crystal_system       triclinic
_cell_length_a                    22.417828
_cell_length_b                    7.096593
_cell_length_c                    19.399732
_cell_angle_alpha                 89.998762
_cell_angle_beta                  99.563086
_cell_angle_gamma                 89.999692
_cell_volume                      3043.41770921

loop_
_atom_site_label
_atom_site_type_symbol
_atom_type_description
_atom_site_fract_x
_atom_site_fract_y
_atom_site_fract_z
_atom_type_partial_charge
O1    O     O_R   0.443980 0.494320 0.557430 -0.533633
O2    O     O_R   0.556020 0.994320 0.442570 -0.533631
O3    O     O_R   0.441210 0.822520 0.414610 -0.537321
O4    O     O_R   0.558790 0.322520 0.585390 -0.537319
C1    C     C_R   0.426683 0.655381 0.388786 0.690831
C2    C     C_R   0.573317 0.155376 0.611214 0.690831
O5    O     O_R   0.436920 0.823940 0.555180 -0.536770
O6    O     O_R   0.563080 0.323940 0.444820 -0.536771
O7    O     O_R   0.551700 0.995760 0.584140 -0.534753
O8    O     O_R   0.448300 0.495760 0.415860 -0.534752
C3    C     C_R   0.421636 0.655402 0.574884 0.719290
C4    C     C_R   0.578364 0.155403 0.425116 0.719288
O9    O     O_3   0.537660 0.661290 0.509340 -0.370426
O10   O     O_3   0.462340 0.161290 0.490660 -0.370427
V1    V     V_3+5 0.493010 0.935560 0.498270 1.425318
V2    V     V_3+5 0.506990 0.435560 0.501730 1.425317
H1    H     H_    0.681735 0.833270 0.265171 0.109610
H2    H     H_    0.318261 0.333263 0.734827 0.109610
C5    C     C_R   0.753926 0.931512 0.212565 0.007341
C6    C     C_R   0.246071 0.431509 0.787434 0.007345
C7    C     C_R   0.792388 0.086107 0.203717 0.106721
C8    C     C_R   0.207611 0.586108 0.796282 0.106720
C9    C     C_R   0.786643 0.253791 0.240648 -0.192011
C10   C     C_R   0.213358 0.753794 0.759352 -0.192015
H3    H     H_    0.815564 0.373044 0.234789 0.143826
H4    H     H_    0.184438 0.873050 0.765211 0.143829
C11   C     C_R   0.743802 0.270149 0.285465 -0.165068
C12   C     C_R   0.256200 0.770152 0.714535 -0.165067
H5    H     H_    0.740373 0.401386 0.313073 0.115255
H6    H     H_    0.259631 0.901391 0.686928 0.115256
C13   C     C_R   0.705824 0.118662 0.294580 0.145261
C14   C     C_R   0.294175 0.618661 0.705419 0.145260
C15   C     C_R   0.711159 0.950494 0.258070 -0.245059
C16   C     C_R   0.288838 0.450490 0.741929 -0.245061
C17   C     C_1   0.837921 0.077866 0.157869 0.042013
C18   C     C_1   0.162079 0.577869 0.842131 0.042015
C19   C     C_1   0.661290 0.134825 0.341192 -0.050901
C20   C     C_1   0.338710 0.634822 0.658808 -0.050901
C21   C     C_1   0.623770 0.145768 0.379727 -0.190079
C22   C     C_1   0.376230 0.645765 0.620273 -0.190079
C23   C     C_1   0.876004 0.070862 0.119941 -0.136223
C24   C     C_1   0.123995 0.570865 0.880059 -0.136220
C25   C     C_R   0.632857 0.171475 0.804247 -0.155220
C26   C     C_R   0.367138 0.671604 0.195755 -0.155222
H7    H     H_    0.545652 0.195134 0.739989 0.106615
H8    H     H_    0.454342 0.695271 0.260013 0.106617
H9    H     H_    0.715005 0.164112 0.919371 0.133104
H10   H     H_    0.284988 0.664292 0.080632 0.133103
H11   H     H_    0.614341 0.191209 0.851920 0.116092
H12   H     H_    0.385652 0.691397 0.148083 0.116092
C27   C     C_R   0.615711 0.147933 0.678089 -0.037341
C28   C     C_R   0.384288 0.647952 0.321911 -0.037344
C29   C     C_R   0.910235 0.045919 0.760424 -0.161738
C30   C     C_R   0.089769 0.545825 0.239575 -0.161734
C31   C     C_R   0.873665 0.046731 0.695128 -0.119168
C32   C     C_R   0.126339 0.546604 0.304870 -0.119169
C33   C     C_R   0.811321 0.071157 0.688972 -0.155821
C34   C     C_R   0.188682 0.571066 0.311027 -0.155821
C35   C     C_R   0.783558 0.095981 0.748719 0.077480
C36   C     C_R   0.216442 0.595960 0.251281 0.077480
C37   C     C_R   0.821622 0.096233 0.815881 0.064488
C38   C     C_R   0.178378 0.596252 0.184120 0.064489
C39   C     C_R   0.719417 0.120330 0.744040 0.074036
C40   C     C_R   0.280583 0.620343 0.255960 0.074035
C41   C     C_R   0.695266 0.145499 0.806694 0.133127
C42   C     C_R   0.304731 0.645587 0.193307 0.133129
C43   C     C_R   0.733388 0.145179 0.871560 -0.188171
C44   C     C_R   0.266607 0.645303 0.128442 -0.188174
C45   C     C_R   0.795435 0.120730 0.876197 -0.181758
C46   C     C_R   0.204561 0.620819 0.123805 -0.181762
C47   C     C_R   0.678132 0.121205 0.679652 -0.213691
C48   C     C_R   0.321869 0.621180 0.320347 -0.213692
C49   C     C_R   0.593576 0.173448 0.740566 -0.166268
C50   C     C_R   0.406420 0.673547 0.259435 -0.166265
C51   C     C_R   0.885229 0.070735 0.821157 -0.080251
C52   C     C_R   0.114772 0.570715 0.178843 -0.080253
H13   H     H_    0.692853 0.103127 0.629946 0.092771
H14   H     H_    0.307150 0.603044 0.370053 0.092774
H15   H     H_    0.958532 0.025494 0.763653 0.107614
H16   H     H_    0.041473 0.525367 0.236346 0.107613
H17   H     H_    0.786168 0.069774 0.636618 0.108076
H18   H     H_    0.213836 0.569653 0.363380 0.108076
H19   H     H_    0.893852 0.027609 0.648637 0.119822
H20   H     H_    0.106155 0.527427 0.351360 0.119821
H21   H     H_    0.822852 0.121429 0.927715 0.114637
H22   H     H_    0.177143 0.621547 0.072287 0.114641
O11   O     O_R   0.051730 0.724670 0.084120 -0.535318
O12   O     O_R   0.948270 0.224670 0.915880 -0.535317
O13   O     O_R   0.063080 0.393540 0.944820 -0.525694
O14   O     O_R   0.936920 0.893540 0.055180 -0.525696
C53   C     C_R   0.078223 0.562066 0.924955 0.703343
C54   C     C_R   0.921777 0.062065 0.075045 0.703340
O15   O     O_R   0.058800 0.395030 0.085390 -0.536715
O16   O     O_R   0.941200 0.895030 0.914610 -0.536714
O17   O     O_R   0.943980 0.223310 0.057440 -0.536610
O18   O     O_R   0.056020 0.723310 0.942560 -0.536612
C55   C     C_R   0.072984 0.563525 0.111229 0.677496
C56   C     C_R   0.927016 0.063529 0.888771 0.677498
O19   O     O_3   0.962360 0.556290 0.990650 -0.367765
O20   O     O_3   0.037640 0.056290 0.009350 -0.367765
V3    V     V_3+5 0.006980 0.281990 0.001730 1.464735
V4    V     V_3+5 0.993020 0.781990 0.998270 1.464730
C57   C     C_2   0.756084 0.747977 0.176076 0.331759
H23   H     H_    0.724827 0.636702 0.184455 0.052495
O21   O     O_2   0.792131 0.717289 0.136696 -0.529378
C58   C     C_2   0.243911 0.247972 0.823922 0.331756
H24   H     H_    0.275170 0.136698 0.815546 0.052492
O22   O     O_2   0.207860 0.217280 0.863299 -0.529378

loop_
_geom_bond_atom_site_label_1
_geom_bond_atom_site_label_2
_ccdc_geom_bond_type
C25   C49   A    
C42   C44   A    
C39   C41   A    
O18   V4    S    
C11   H5    S    
C18   C24   T    
O1    C3    A    
H8    C50   S    
C40   C48   A    
O2    C4    A    
C2    O7    A    
O12   V3    S    
C51   C56   S    
C45   H21   S    
C37   C51   A    
O5    C3    A    
C27   C47   A    
C36   C38   A    
C5    C7    A    
C10   H4    S    
C28   C50   A    
C34   H18   S    
C33   C35   A    
C58   H24   S    
O16   C56   A    
C37   C45   A    
C38   C46   A    
H7    C49   S    
C24   C53   S    
O14   V4    S    
C48   H14   S    
C53   O18   A    
C26   C42   A    
C41   C43   A    
C13   C15   A    
C1    C28   S    
C14   C20   S    
C2    C27   S    
O13   C53   A    
C6    C58   S    
C25   C41   A    
C6    C16   A    
O5    V1    S    
O6    V2    S    
C38   C52   A    
C29   C51   A    
H1    C15   S    
H9    C43   S    
C32   H20   S    
C30   H16   S    
C29   C31   A    
C30   C32   A    
C35   C37   A    
C11   C13   A    
C10   C12   A    
C12   C14   A    
O4    C2    A    
C5    C15   A    
O15   V3    S    
C25   H11   S    
C52   C55   S    
C5    C57   S    
C54   O17   A    
C13   C19   S    
C43   C45   A    
C14   C16   A    
O4    V2    S    
C28   C48   A    
O11   V4    S    
O14   C54   A    
O6    C4    A    
C23   C54   S    
O20   V4    S    
C57   O21   D    
O1    V2    S    
H10   C44   S    
C26   C50   A    
O2    V1    S    
H2    C16   S    
C30   C52   A    
O19   V3    S    
C39   C47   A    
C9    C11   A    
C7    C9    A    
C8    C10   A    
C31   H19   S    
C46   H22   S    
O15   C55   A    
C47   H13   S    
O3    V1    S    
C26   H12   S    
O13   V3    S    
C27   C49   A    
C6    C8    A    
O3    C1    A    
C7    C17   S    
C8    C18   S    
C35   C39   A    
C36   C40   A    
C29   H15   S    
C4    C21   S    
C31   C33   A    
O7    V1    S    
C1    O8    A    
C19   C21   T    
O8    V2    S    
C20   C22   T    
C58   O22   D    
C12   H6    S    
O20   V3    S    
C32   C34   A    
C33   H17   S    
C9    H3    S    
C3    C22   S    
C17   C23   T    
O19   V4    S    
O16   V4    S    
C44   C46   A    
O9    V2    S    
C57   H23   S    
O10   V1    S    
C34   C36   A    
O12   C56   A    
O17   V3    S    
C40   C42   A    
O11   C55   A    
