data_mof_unit_35452.cif
_audit_creation_date              2013-03-05T15:47:58-0500
_audit_creation_method            fapswitch 2.2
_symmetry_space_group_name_H-M    P1
_symmetry_Int_Tables_number       1
_space_group_crystal_system       triclinic
_cell_length_a                    26.876166
_cell_length_b                    7.099153
_cell_length_c                    12.02426
_cell_angle_alpha                 89.939244
_cell_angle_beta                  103.925127
_cell_angle_gamma                 89.794743
_cell_volume                      2226.7619716

loop_
_atom_site_label
_atom_site_type_symbol
_atom_site_description
_atom_site_fract_x
_atom_site_fract_y
_atom_site_fract_z
_atom_type_partial_charge
O1    O     O_R   0.437360 0.505910 0.042120 -0.602400
O2    O     O_R   0.562640 0.005910 0.957880 -0.580583
O3    O     O_R   0.542480 0.176660 0.157100 -0.565036
O4    O     O_R   0.457520 0.676660 0.842900 -0.590734
C1    C     C_R   0.555721 0.344842 0.199191 1.050745
C2    C     C_R   0.444287 0.845542 0.801044 1.034472
O5    O     O_R   0.436520 0.176250 0.054800 -0.570521
O6    O     O_R   0.563480 0.676250 0.945200 -0.587786
O7    O     O_R   0.455920 0.005040 0.854840 -0.545529
O8    O     O_R   0.544080 0.505040 0.145160 -0.575894
C3    C     C_R   0.417378 0.345402 0.062370 1.072538
C4    C     C_R   0.582627 0.844431 0.937247 1.052734
O9    O     O_3   0.506490 0.338900 0.934520 -0.276019
O10   O     O_3   0.493510 0.838900 0.065480 -0.285139
V1    V     V_3+5 0.498800 0.064400 0.012150 1.328987
V2    V     V_3+5 0.501200 0.564400 0.987850 1.299684
C5    C     C_R   0.681613 0.930168 0.770217 -0.164140
C6    C     C_R   0.319169 0.477526 0.222407 -0.159436
H1    H     H_    0.601113 0.972473 0.741027 0.207782
H2    H     H_    0.400563 0.498464 0.252904 0.184193
H3    H     H_    0.773580 0.934407 0.728811 0.163345
H4    H     H_    0.226816 0.524017 0.257860 0.150817
H5    H     H_    0.682029 0.978503 0.684894 0.155946
H6    H     H_    0.319030 0.536838 0.305151 0.149133
C7    C     C_R   0.632737 0.852818 0.908095 -0.264697
C8    C     C_R   0.367701 0.360037 0.092469 -0.266682
C9    C     C_R   0.870435 0.818670 0.210720 -0.324799
C10   C     C_R   0.129701 0.310568 0.790421 -0.321055
C11   C     C_R   0.825654 0.785183 0.246801 0.356141
C12   C     C_R   0.174821 0.285995 0.754107 0.359034
C13   C     C_R   0.778495 0.785657 0.165358 -0.152712
C14   C     C_R   0.221949 0.293165 0.835366 -0.147287
C15   C     C_R   0.774881 0.813725 0.046817 0.082379
C16   C     C_R   0.225392 0.333499 0.952443 0.093177
C17   C     C_R   0.821324 0.847883 0.012546 0.112436
C18   C     C_R   0.178870 0.373003 0.985207 0.108831
C19   C     C_R   0.726739 0.824013 0.962352 -0.001122
C20   C     C_R   0.273504 0.351962 0.035844 -0.004742
C21   C     C_R   0.727232 0.883082 0.849445 0.149441
C22   C     C_R   0.273207 0.433864 0.143797 0.143678
C23   C     C_R   0.773322 0.899270 0.816478 -0.211253
C24   C     C_R   0.227058 0.469436 0.173855 -0.200055
C25   C     C_R   0.819686 0.881116 0.896443 -0.231940
C26   C     C_R   0.180639 0.435014 0.097060 -0.215512
C27   C     C_R   0.677821 0.786543 0.985074 0.311157
C28   C     C_R   0.322105 0.296599 0.017043 0.292933
C29   C     C_R   0.635306 0.925850 0.801855 -0.188971
C30   C     C_R   0.365720 0.451535 0.193943 -0.145825
C31   C     C_R   0.868684 0.851854 0.095475 -0.197198
C32   C     C_R   0.131292 0.354187 0.904317 -0.207147
H7    H     H_    0.907124 0.818171 0.272526 0.169869
H8    H     H_    0.092955 0.298520 0.729482 0.170616
H9    H     H_    0.745149 0.773775 0.198614 0.234272
H10   H     H_    0.255491 0.280535 0.802807 0.236302
H11   H     H_    0.854286 0.902306 0.866994 0.138644
H12   H     H_    0.146037 0.465066 0.124956 0.137781
C33   C     C_R   0.092293 0.855742 0.310856 -0.128801
C34   C     C_R   0.907802 0.357984 0.688341 -0.151562
C35   C     C_R   0.411400 0.857455 0.684189 -0.312759
C36   C     C_R   0.588179 0.354159 0.316940 -0.314569
C37   C     C_R   0.110551 0.825272 0.516426 -0.052507
C38   C     C_R   0.888938 0.253848 0.492012 -0.059950
C39   C     C_R   0.074820 0.850972 0.411813 0.297841
C40   C     C_R   0.924829 0.287540 0.594900 0.288497
C41   C     C_R   0.144701 0.839302 0.316155 -0.304233
C42   C     C_R   0.855719 0.400954 0.675871 -0.256637
C43   C     C_R   0.181957 0.837984 0.421461 0.163175
C44   C     C_R   0.817927 0.342488 0.578344 0.156742
C45   C     C_R   0.163289 0.814677 0.521441 0.112384
C46   C     C_R   0.836248 0.276671 0.483900 0.090717
C47   C     C_R   0.236593 0.850037 0.432009 0.009935
C48   C     C_R   0.763204 0.348645 0.569353 0.019233
C49   C     C_R   0.270304 0.808802 0.542087 -0.101679
C50   C     C_R   0.729230 0.312218 0.459037 -0.105595
C51   C     C_R   0.248745 0.742555 0.631891 0.377209
C52   C     C_R   0.749755 0.231877 0.371133 0.371766
C53   C     C_R   0.196706 0.765074 0.624443 -0.257945
C54   C     C_R   0.802261 0.224858 0.382630 -0.240236
C55   C     C_R   0.259657 0.907461 0.340936 0.279070
C56   C     C_R   0.740090 0.376144 0.664680 0.272983
C57   C     C_R   0.313020 0.904464 0.357856 -0.223716
C58   C     C_R   0.686647 0.391416 0.645551 -0.209792
C59   C     C_R   0.345257 0.872219 0.464933 0.036737
C60   C     C_R   0.654452 0.376564 0.536582 0.041201
C61   C     C_R   0.324424 0.837079 0.559723 0.138513
C62   C     C_R   0.675341 0.346137 0.441560 0.134178
C63   C     C_R   0.398437 0.889777 0.478886 -0.192695
C64   C     C_R   0.601022 0.385823 0.522606 -0.199019
C65   C     C_R   0.431804 0.883614 0.587882 0.389798
C66   C     C_R   0.567389 0.366109 0.414028 0.383637
C67   C     C_R   0.358389 0.843682 0.669795 -0.074366
C68   C     C_R   0.641424 0.354955 0.331537 -0.076305
H13   H     H_    0.181551 0.726146 0.697100 0.158859
H14   H     H_    0.816777 0.166320 0.313331 0.154712
H15   H     H_    0.344565 0.846536 0.746753 0.197447
H16   H     H_    0.655691 0.363310 0.255221 0.201204
H17   H     H_    0.330021 0.939213 0.287160 0.162281
H18   H     H_    0.669580 0.411642 0.717874 0.159759
H19   H     H_    0.097198 0.810170 0.594219 0.111346
H20   H     H_    0.901980 0.201915 0.418990 0.118646
H21   H     H_    0.154461 0.815748 0.236177 0.142278
H22   H     H_    0.846368 0.480555 0.743848 0.152802
H23   H     H_    0.413896 0.917838 0.405134 0.183731
H24   H     H_    0.585433 0.401434 0.597295 0.181772
O11   O     O_R   0.955980 0.206520 0.854760 -0.594377
O12   O     O_R   0.044020 0.706520 0.145240 -0.596420
O13   O     O_R   0.063490 0.536770 0.945200 -0.597194
O14   O     O_R   0.936510 0.036770 0.054800 -0.594584
C69   C     C_R   0.082499 0.367705 0.937761 0.952987
C70   C     C_R   0.917558 0.867636 0.062504 0.947578
O15   O     O_R   0.957530 0.536190 0.842880 -0.590209
O16   O     O_R   0.042470 0.036190 0.157120 -0.586535
O17   O     O_R   0.937350 0.707210 0.042130 -0.590666
O18   O     O_R   0.062650 0.207210 0.957870 -0.589456
C71   C     C_R   0.942721 0.368285 0.802863 0.948428
C72   C     C_R   0.056675 0.867064 0.197542 0.950364
O19   O     O_3   0.993540 0.373870 0.065440 -0.280365
O20   O     O_3   0.006460 0.873870 0.934560 -0.284046
V3    V     V_3+5 0.001200 0.648440 0.987860 1.175977
V4    V     V_3+5 0.998800 0.148440 0.012140 1.177813
N1    N     N_R   0.485343 0.919716 0.599887 0.225640
O21   O     O_R   0.508788 0.038974 0.676583 -0.438830
O22   O     O_R   0.507828 0.864452 0.521012 -0.361174
N2    N     N_R   0.512923 0.360245 0.404408 0.233976
O23   O     O_R   0.483247 0.259448 0.325394 -0.452115
O24   O     O_R   0.493630 0.435523 0.483449 -0.357569
C73   C     C_3   0.018453 0.859643 0.407992 -1.005379
H25   H     H_    0.011317 0.855139 0.495194 0.268487
H26   H     H_    0.001715 0.992096 0.365536 0.243240
H27   H     H_    0.998788 0.737661 0.358845 0.247325
C74   C     C_3   0.980947 0.252929 0.603236 -0.983669
H28   H     H_    0.987979 0.209007 0.519806 0.264943
H29   H     H_    0.002713 0.384589 0.629910 0.241524
H30   H     H_    0.995575 0.140435 0.667051 0.251925
N3    N     N_R   0.277715 0.631760 0.725085 0.212604
O25   O     O_R   0.272044 0.657151 0.828409 -0.398854
O26   O     O_R   0.308218 0.499318 0.705986 -0.370516
N4    N     N_R   0.718691 0.126399 0.278603 0.215710
O27   O     O_R   0.724908 0.145048 0.175204 -0.398905
O28   O     O_R   0.687822 0.997669 0.299625 -0.364427
C75   C     C_3   0.231310 0.988837 0.227100 -0.947363
H31   H     H_    0.217351 0.875103 0.164384 0.249449
H32   H     H_    0.200414 0.086265 0.237568 0.264015
H33   H     H_    0.257069 0.073663 0.187949 0.254026
C76   C     C_3   0.768078 0.363943 0.789756 -0.988776
H34   H     H_    0.800248 0.262184 0.803815 0.249615
H35   H     H_    0.781191 0.505271 0.822836 0.260962
H36   H     H_    0.742671 0.311291 0.843427 0.275851
N5    N     N_R   0.672806 0.658528 0.073952 0.205655
O29   O     O_R   0.645487 0.702635 0.145997 -0.382739
O30   O     O_R   0.694131 0.492921 0.079736 -0.395722
N6    N     N_R   0.325919 0.157232 0.933284 0.207260
O31   O     O_R   0.352802 0.188333 0.858496 -0.387771
O32   O     O_R   0.303132 0.996108 0.933550 -0.387192
N7    N     N_R   0.827907 0.754371 0.366520 0.228101
O33   O     O_R   0.871675 0.754686 0.442068 -0.424154
O34   O     O_R   0.786255 0.726715 0.401351 -0.400752
N8    N     N_R   0.172893 0.258912 0.634324 0.227748
O35   O     O_R   0.129522 0.271035 0.557875 -0.425128
O36   O     O_R   0.214718 0.232271 0.599842 -0.395257

loop_
_geom_bond_atom_site_label_1
_geom_bond_atom_site_label_2
_geom_bond_distance
_ccdc_geom_bond_type
C63   H23   1.084571 S    
C59   C63   1.404417 A    
O12   V3    2.008077 S    
C9    C11   1.395133 A    
O13   C69   1.314294 A    
C45   C53   1.387799 A    
O14   V4    2.028847 S    
C42   C44   1.417717 A    
O1    C3    1.308745 A    
C41   H21   1.069120 S    
C74   H30   1.110133 S    
O2    C4    1.313239 A    
C2    O7    1.305762 A    
C47   C55   1.441255 A    
C76   H34   1.105839 S    
C61   C67   1.416391 A    
O3    V1    2.018885 S    
N3    O25   1.300273 A    
C21   C23   1.393572 A    
H4    C24   1.083718 S    
O5    C3    1.316543 A    
C31   C70   1.465188 S    
C5    H5    1.084096 S    
C50   C52   1.423531 A    
C6    H6    1.081611 S    
C46   C54   1.385804 A    
C20   C22   1.424659 A    
C52   C54   1.385127 A    
N5    O30   1.300512 A    
C35   C65   1.407880 A    
C15   C17   1.426937 A    
C51   N3    1.433313 S    
N7    O34   1.301621 A    
C28   N6    1.433463 S    
C68   H16   1.077965 S    
C38   C46   1.404628 A    
O15   V3    2.019017 S    
C5    C21   1.398830 A    
C14   H10   1.069273 S    
C37   C39   1.398071 A    
C42   H22   1.072108 S    
O20   V3    1.742109 S    
C38   C40   1.395049 A    
C64   H24   1.084149 S    
O17   V3    2.019685 S    
C10   C32   1.395021 A    
C34   C42   1.403852 A    
C41   C43   1.412676 A    
C17   C31   1.415879 A    
C13   C15   1.418962 A    
O11   V4    2.005559 S    
C17   C25   1.405772 A    
C7    C29   1.395272 A    
C27   N5    1.433290 S    
C8    C30   1.395060 A    
C11   N7    1.442589 S    
O5    V1    2.024787 S    
O6    V2    2.029060 S    
N8    O36   1.301626 A    
C23   C25   1.384114 A    
C37   H19   1.084842 S    
C24   C26   1.384553 A    
O18   V4    2.021938 S    
O13   V3    2.024581 S    
C76   H35   1.106778 S    
C9    H7    1.082546 S    
C33   C39   1.403466 A    
C33   C72   1.466546 S    
C36   C68   1.399233 A    
C34   C40   1.403183 A    
C20   C28   1.431927 A    
C58   H18   1.085838 S    
C60   C64   1.406331 A    
C56   C58   1.402700 A    
O19   V4    1.742427 S    
O16   V4    2.014233 S    
C3    C8    1.468358 S    
C74   H29   1.110382 S    
C32   C69   1.464106 S    
C15   C19   1.441405 A    
C48   C56   1.442288 A    
O12   C72   1.308245 A    
C44   C48   1.449007 A    
C43   C45   1.419453 A    
C75   H32   1.109126 S    
C14   C16   1.417993 A    
O4    V2    2.014101 S    
C73   H26   1.110214 S    
C26   H12   1.082466 S    
C40   C74   1.506559 S    
C12   N8    1.441813 S    
O6    C4    1.314269 A    
C52   N4    1.433454 S    
H1    C29   1.078337 S    
O1    V2    2.021276 S    
C35   C67   1.397036 A    
C13   H9    1.069180 S    
O2    V1    2.019035 S    
C51   C53   1.388448 A    
C70   O17   1.303455 A    
C49   C61   1.433411 A    
N1    O21   1.300040 A    
H2    C30   1.083401 S    
N4    O28   1.301249 A    
C69   O18   1.306554 A    
H3    C23   1.084633 S    
C48   C50   1.442092 A    
C56   C76   1.513252 S    
C59   C61   1.407965 A    
N6    O32   1.299775 A    
C58   C60   1.389937 A    
C63   C65   1.399181 A    
N8    O35   1.301731 A    
C38   H20   1.085177 S    
C75   H33   1.105782 S    
O4    C2    1.314040 A    
C49   C51   1.423015 A    
C19   C27   1.431482 A    
C73   H25   1.110863 S    
C7    C27   1.414730 A    
O16   C72   1.315188 A    
C76   H36   1.111709 S    
C18   C32   1.414884 A    
C53   H13   1.084942 S    
N2    O24   1.301536 A    
C37   C45   1.405851 A    
N3    O26   1.301687 A    
C64   C66   1.405156 A    
C1    C36   1.475164 S    
C16   C20   1.439508 A    
C66   N2    1.441153 S    
C2    C35   1.471109 S    
O11   C71   1.312902 A    
C5    C29   1.386609 A    
C33   C41   1.399017 A    
O3    C1    1.313758 A    
C6    C30   1.386013 A    
C57   C59   1.386306 A    
O15   C71   1.312711 A    
C25   H11   1.082649 S    
C36   C66   1.412830 A    
C50   C62   1.432026 A    
C55   C57   1.399321 A    
C4    C7    1.472402 S    
O19   V3    2.191681 S    
O7    V1    2.009877 S    
C73   H27   1.110195 S    
C10   C12   1.394697 A    
C11   C13   1.402864 A    
C62   C68   1.415635 A    
N5    O29   1.301033 A    
C12   C14   1.402314 A    
C10   H8    1.082594 S    
C34   C71   1.470048 S    
C55   C75   1.510296 S    
C65   N1    1.435178 S    
C54   H14   1.084090 S    
C22   C24   1.395159 A    
C57   H17   1.086062 S    
C16   C18   1.425486 A    
O14   C70   1.317793 A    
C43   C47   1.445993 A    
O20   V4    2.192128 S    
N1    O22   1.301365 A    
C18   C26   1.405548 A    
N4    O27   1.300392 A    
C8    C28   1.413143 A    
C67   H15   1.077141 S    
C9    C31   1.394919 A    
C1    O8    1.308208 A    
C6    C22   1.398886 A    
N6    O31   1.301113 A    
C19   C21   1.423605 A    
O9    V2    1.743157 S    
C47   C49   1.441740 A    
N7    O33   1.301775 A    
C44   C46   1.420918 A    
O10   V1    1.742843 S    
C60   C62   1.405600 A    
O8    V2    2.007302 S    
C75   H31   1.108446 S    
C39   C73   1.505564 S    
C74   H28   1.109410 S    
N2    O23   1.300626 A    
