data_mof_unit_63241.cif
_audit_creation_date              2012-12-10T19:32:58-0500
_audit_creation_method            fapswitch 2.2
_symmetry_space_group_name_H-M    P1
_symmetry_Int_Tables_number       1
_space_group_crystal_system       triclinic
_cell_length_a                    21.636726
_cell_length_b                    21.641013
_cell_length_c                    22.107404
_cell_angle_alpha                 119.320078
_cell_angle_beta                  119.496614
_cell_angle_gamma                 89.703828
_cell_volume                      7466.36609205

loop_
_atom_site_label
_atom_site_type_symbol
_atom_type_description
_atom_site_fract_x
_atom_site_fract_y
_atom_site_fract_z
_atom_type_partial_charge
Br1   Br    Br    0.664934 0.265006 0.100264 -0.272586
Br2   Br    Br    0.259327 0.333997 0.366917 -0.337349
Br3   Br    Br    0.197099 0.659388 0.508894 -0.385217
Br4   Br    Br    0.706285 0.402553 0.087298 -0.356704
Br5   Br    Br    0.910047 0.215639 0.104524 -0.306957
Br6   Br    Br    0.756475 0.158228 0.082939 -0.199888
Br7   Br    Br    0.675148 0.404352 0.669712 -0.330593
Br8   Br    Br    0.670398 0.252927 0.671866 -0.313789
Br9   Br    Br    0.558150 0.293089 0.731211 -0.408413
Br10  Br    Br    0.335525 0.925107 0.095625 -0.360804
Br11  Br    Br    0.762975 0.325398 0.911811 -0.368948
Br12  Br    Br    0.744316 0.348936 0.341790 -0.353206
Br13  Br    Br    0.098942 0.341874 0.351821 -0.317509
C1    C     C_R   0.499865 0.119855 0.500137 0.986495
C2    C     C_R   0.497432 0.183936 0.497549 -0.176062
C3    C     C_R   0.466328 0.178119 0.421317 0.420854
C4    C     C_R   0.581040 0.081217 0.662056 0.896286
C5    C     C_R   0.466424 0.243232 0.422793 -0.214194
C6    C     C_R   0.497954 0.312949 0.499147 -0.115503
C7    C     C_R   0.520886 0.315913 0.571721 -0.025069
C8    C     C_3   0.588468 0.362591 0.660222 0.088990
C9    C     C_3   0.585819 0.291065 0.659167 0.399779
C10   C     C_3   0.298672 0.704157 0.048755 0.171081
C11   C     C_3   0.324486 0.819099 0.047561 0.111252
C12   C     C_3   0.720458 0.226561 0.048815 0.412388
C13   C     C_3   0.271052 0.774956 0.950724 -0.361444
C14   C     C_1   0.127043 0.624585 0.750824 -0.092084
C15   C     C_3   0.296156 0.786688 0.082186 0.026707
C16   C     C_R   0.499974 0.879763 0.499414 0.857886
C17   C     C_3   0.259557 0.657832 0.950351 0.192305
C18   C     C_3   0.215144 0.703895 0.917066 0.056975
C19   C     C_3   0.164990 0.728727 0.950656 -0.482585
C20   C     C_3   0.213192 0.783368 0.046999 -0.432027
C21   C     C_1   0.166667 0.660413 0.825712 0.037657
C22   C     C_1   0.339169 0.834428 0.173829 0.111941
C23   C     C_3   0.788472 0.289672 0.082695 -0.102728
C24   C     C_1   0.374926 0.873290 0.248853 -0.041268
C25   C     C_R   0.522243 0.818601 0.572101 0.081118
C26   C     C_R   0.501814 0.814346 0.499659 -0.067124
C27   C     C_R   0.493621 0.748777 0.431516 -0.177579
C28   C     C_R   0.418949 0.918618 0.337834 0.931048
C29   C     C_R   0.494205 0.684495 0.431590 -0.181763
C30   C     C_R   0.504879 0.687041 0.500877 -0.109953
C31   C     C_R   0.524020 0.755544 0.572837 0.169947
C32   C     C_3   0.492128 0.777401 0.624239 -0.443887
C33   C     C_3   0.490206 0.847100 0.623299 -0.419339
C34   C     C_3   0.836308 0.253646 0.047583 0.070891
C35   C     C_R   0.879249 0.499140 0.498166 0.913530
C36   C     C_R   0.919135 0.419027 0.337913 0.903195
C37   C     C_R   0.119142 0.498720 0.497779 0.961757
C38   C     C_R   0.081095 0.580892 0.662066 0.906410
C39   C     C_R   0.620587 0.500377 0.500177 0.898523
C40   C     C_3   0.665453 0.186694 0.951146 0.171956
C41   C     C_R   0.500735 0.379530 0.500072 0.936426
C42   C     C_R   0.379792 0.497262 0.499948 0.929270
C43   C     C_R   0.500230 0.620530 0.499998 0.857242
C44   C     C_R   0.815521 0.556243 0.565539 0.001989
C45   C     C_3   0.783879 0.194884 0.952128 -0.387090
C46   C     C_R   0.813126 0.497717 0.497375 -0.154435
C47   C     C_R   0.749656 0.434001 0.434781 0.264017
C48   C     C_R   0.686250 0.434529 0.436550 -0.182935
C49   C     C_R   0.686988 0.497495 0.501054 -0.218044
C50   C     C_R   0.753222 0.555995 0.567935 0.150318
C51   C     C_3   0.767667 0.637828 0.604511 0.284873
C52   C     C_3   0.715378 0.290859 0.950325 0.030769
C53   C     C_3   0.836671 0.637833 0.601994 -0.502612
C54   C     C_R   0.248383 0.557148 0.559723 0.004070
C55   C     C_R   0.183853 0.496187 0.495478 -0.237583
C56   C     C_1   0.835582 0.336568 0.174151 0.138583
C57   C     C_R   0.186827 0.428547 0.438793 0.230026
C58   C     C_R   0.253157 0.426316 0.441989 0.226242
C59   C     C_R   0.314519 0.492172 0.500883 -0.195850
C60   C     C_R   0.312908 0.554472 0.562601 0.019433
C61   C     C_3   0.336961 0.634350 0.594069 -0.528149
C62   C     C_3   0.264910 0.638161 0.590115 0.611528
C63   C     C_3   0.760417 0.339525 0.047861 -0.026026
C64   C     C_1   0.873988 0.374622 0.249105 -0.032663
C65   C     C_3   0.705668 0.206649 0.917242 -0.096485
C66   C     C_1   0.661657 0.161956 0.825764 0.157569
C67   C     C_1   0.625256 0.125249 0.750822 -0.031187
C68   C     C_R   0.519220 0.252215 0.570510 -0.072345
H1    H     H_    0.873030 0.297871 0.056997 0.173620
H2    H     H_    0.127535 0.679024 0.932448 0.201926
H3    H     H_    0.262078 0.678682 0.057859 0.109117
H4    H     H_    0.217876 0.605934 0.922483 0.105647
H5    H     H_    0.128640 0.756347 0.922502 0.232226
H6    H     H_    0.483236 0.746557 0.377188 0.164361
H7    H     H_    0.484049 0.632869 0.377019 0.186492
H8    H     H_    0.435697 0.738968 0.589543 0.202856
H9    H     H_    0.532655 0.789254 0.687544 0.235124
H10   H     H_    0.432647 0.849102 0.588064 0.235939
H11   H     H_    0.529739 0.899165 0.686008 0.235067
H12   H     H_    0.444748 0.239720 0.365037 0.219263
H13   H     H_    0.636079 0.387024 0.386527 0.206247
H14   H     H_    0.723986 0.650977 0.562163 0.071897
H15   H     H_    0.659179 0.298379 0.923861 0.208016
H16   H     H_    0.832610 0.649996 0.557000 0.198457
H17   H     H_    0.890766 0.668945 0.664466 0.248164
H18   H     H_    0.388957 0.666884 0.658403 0.245530
H19   H     H_    0.338854 0.641035 0.548204 0.181898
H20   H     H_    0.810384 0.381814 0.072851 0.198577
H21   H     H_    0.778419 0.138090 0.939049 0.276383
H22   H     H_    0.809291 0.199294 0.920643 0.221489
H23   H     H_    0.575196 0.405269 0.702854 0.165336
H24   H     H_    0.641811 0.984155 0.850101 0.388519
H25   H     H_    0.473341 0.002079 0.277803 0.395965
H26   H     H_    0.368805 0.536271 0.894388 0.404086
H27   H     H_    0.453719 0.724680 0.239464 0.379979
H28   H     H_    0.850950 0.684720 0.817623 0.396744
H29   H     H_    0.211678 0.733377 0.738615 0.377354
H30   H     H_    0.618937 0.211392 0.940184 0.138906
H31   H     H_    0.380992 0.814265 0.064637 0.209243
H32   H     H_    0.303902 0.760974 0.922512 0.236691
H33   H     H_    0.239257 0.809720 0.931553 0.219493
H34   H     H_    0.192188 0.764876 0.074310 0.198320
H35   H     H_    0.207173 0.839661 0.064439 0.259968
O1    O     O_R   0.448270 0.091610 0.500010 -0.598078
O2    O     O_R   0.557050 0.465350 0.430680 -0.626011
O3    O     O_R   0.534700 0.443070 0.569360 -0.600318
O4    O     O_R   0.551720 0.091610 0.499980 -0.558574
O5    O     O_R   0.465400 0.373710 0.430650 -0.616007
O6    O     O_R   0.443050 0.534650 0.569320 -0.616961
O7    O     O_R   0.373740 0.465290 0.430600 -0.585465
O8    O     O_R   0.534700 0.626290 0.569350 -0.596686
O9    O     O_R   0.465390 0.556930 0.430640 -0.622451
O10   O     O_R   0.509700 0.061430 0.622870 -0.591526
O11   O     O_R   0.613150 0.061430 0.622840 -0.602699
O12   O     O_R   0.908540 0.448310 0.500030 -0.590744
O13   O     O_R   0.448280 0.908390 0.500020 -0.619414
O14   O     O_R   0.551730 0.908390 0.499990 -0.618843
O15   O     O_R   0.386850 0.938570 0.377160 -0.601862
O16   O     O_R   0.490300 0.938570 0.377130 -0.598553
O17   O     O_R   0.908570 0.551750 0.500020 -0.628237
O18   O     O_2   0.588168 0.076627 0.937341 -0.171878
O19   O     O_2   0.550942 0.063281 0.807021 -0.305853
O20   O     O_3   0.673300 0.036172 0.882650 -0.531309
O21   O     O_2   0.366516 0.042174 0.306910 -0.305030
O22   O     O_2   0.402517 0.102638 0.254864 -0.214540
O23   O     O_R   0.938770 0.490290 0.377140 -0.614221
O24   O     O_3   0.497873 0.051347 0.331864 -0.522031
O25   O     O_2   0.282537 0.604586 0.824333 -0.266209
O26   O     O_2   0.393126 0.684291 0.966752 -0.218082
O27   O     O_3   0.333254 0.548310 0.911161 -0.458795
O28   O     O_2   0.388320 0.616807 0.071098 -0.176284
O29   O     O_2   0.451285 0.745177 0.129319 -0.242933
O30   O     O_3   0.401652 0.722838 0.204510 -0.594560
O31   O     O_2   0.832398 0.769459 0.753369 -0.254295
O32   O     O_2   0.718308 0.687127 0.705356 -0.264416
O33   O     O_3   0.841380 0.653249 0.761107 -0.520661
O34   O     O_R   0.938740 0.386860 0.377150 -0.570097
O35   O     O_2   0.321523 0.670286 0.745534 -0.252003
O36   O     O_2   0.327025 0.775648 0.731841 -0.231312
O37   O     O_3   0.198650 0.701581 0.680546 -0.514021
O38   O     O_R   0.091820 0.551690 0.499970 -0.568623
O39   O     O_R   0.091790 0.448250 0.499980 -0.589944
O40   O     O_R   0.061630 0.613140 0.622850 -0.588017
O41   O     O_R   0.061600 0.509710 0.622860 -0.606760
O42   O     O_R   0.626360 0.534710 0.569400 -0.554105
S1    S     S_3+6 0.616736 0.088264 0.892781 0.073325
S2    S     S_3+6 0.430134 0.091609 0.324888 0.065400
S3    S     S_3+6 0.319279 0.625348 0.912564 0.100739
S4    S     S_3+6 0.388076 0.696153 0.112377 0.080791
S5    S     S_3+6 0.789449 0.689795 0.708865 0.065559
S6    S     S_3+6 0.280787 0.698509 0.691251 0.081365
Zn1   Zn    Zn3+2 0.430930 0.000000 0.500020 1.090826
Zn2   Zn    Zn3+2 0.569070 0.000000 0.499980 1.105867
Zn3   Zn    Zn3+2 0.000200 0.569060 0.500000 1.103632
Zn4   Zn    Zn3+2 0.000160 0.430940 0.500000 1.125930
Zn5   Zn    Zn3+2 0.546320 0.546310 0.592620 1.113385
Zn6   Zn    Zn3+2 0.453780 0.453690 0.407380 1.071337

loop_
_geom_bond_atom_site_label_1
_geom_bond_atom_site_label_2
_ccdc_geom_bond_type
C46   C47   A    
O25   S3    D    
C3    S2    S    
C60   C61   S    
C56   C64   T    
C6    C7    A    
C11   H31   S    
C44   C53   S    
O10   Zn1   S    
O26   S3    D    
O4    Zn2   S    
C2    C68   A    
C32   C33   S    
C23   C56   S    
O30   S4    S    
C52   C63   S    
C36   O34   A    
C43   O8    A    
C53   H16   S    
C22   C24   T    
C12   C40   S    
C41   O3    A    
O17   Zn3   S    
C25   C26   A    
C4    O10   A    
C44   C46   A    
Br6   C12   S    
C33   H11   S    
Br13  C57   S    
O2    Zn6   S    
C2    C3    A    
C23   C34   S    
C5    C6    A    
C34   H1    S    
C23   C63   S    
C25   C33   S    
C8    H23   S    
C52   H15   S    
C16   O13   A    
O8    Zn5   S    
C16   O14   A    
C15   C22   S    
O1    Zn1   S    
Br8   C9    S    
C57   C58   A    
O33   S5    S    
Br3   C62   S    
C10   C17   S    
O39   Zn4   S    
C42   C59   S    
C10   S4    S    
C40   H30   S    
C27   C29   A    
O5    Zn6   S    
C42   O6    A    
O34   Zn4   S    
C13   C18   S    
C8    C9    S    
Br1   C12   S    
O20   S1    S    
C51   S5    S    
O41   Zn4   S    
C14   C38   S    
C44   C50   A    
H27   O30   S    
C14   C21   T    
C39   O42   A    
C42   O7    A    
C38   O40   A    
C40   S1    S    
C20   H34   S    
C61   C62   S    
O37   S6    S    
C54   C55   A    
C9    C68   S    
C35   O17   A    
O19   S1    D    
C10   H3    S    
C26   C27   A    
C28   O15   A    
C65   C66   S    
C4    O11   A    
C61   H19   S    
C33   H10   S    
O40   Zn3   S    
Br10  C11   S    
C43   O9    A    
C38   O41   A    
C4    C67   S    
C66   C67   T    
C47   C48   A    
C51   C53   S    
H28   O33   S    
C30   C31   A    
C13   H33   S    
C25   C31   A    
C49   C50   A    
C32   H9    S    
C35   O12   A    
Br5   C34   S    
O14   Zn2   S    
H25   O24   S    
C18   C19   S    
C37   O39   A    
C1    O1    A    
C19   H5    S    
C16   C26   S    
C18   C21   S    
C10   C15   S    
C17   H4    S    
O23   Zn3   S    
O9    Zn6   S    
O36   S6    D    
O3    Zn5   S    
H24   O20   S    
C54   C60   A    
C6    C41   S    
C55   C57   A    
C41   O5    A    
C15   C20   S    
C1    O4    A    
C36   O23   A    
O38   Zn3   S    
C29   H7    S    
C29   C30   A    
H26   O27   S    
Br2   C58   S    
C32   H8    S    
C31   C32   S    
C27   H6    S    
C35   C46   S    
C63   H20   S    
C19   H2    S    
C20   H35   S    
C52   C65   S    
O21   S2    D    
O28   S4    D    
C48   H13   S    
O32   S5    D    
C11   C15   S    
C51   H14   S    
C11   C13   S    
C59   C60   A    
O6    Zn5   S    
C28   O16   A    
O42   Zn5   S    
C61   H18   S    
O13   Zn1   S    
C19   C20   S    
C53   H17   S    
C40   C65   S    
C13   H32   S    
C58   C59   A    
H29   O37   S    
C39   C49   S    
O24   S2    S    
C34   C45   S    
Br7   C8    S    
C17   C18   S    
C37   O38   A    
O11   Zn2   S    
C45   H21   S    
C36   C64   S    
O18   S1    D    
C24   C28   S    
C48   C49   A    
Br9   C9    S    
Br4   C63   S    
O7    Zn6   S    
C45   C65   S    
C12   C23   S    
C50   C51   S    
Br12  C47   S    
O22   S2    D    
C30   C43   S    
O16   Zn2   S    
C54   C62   S    
C7    C8    S    
O15   Zn1   S    
C3    C5    A    
O35   S6    D    
O29   S4    D    
O12   Zn4   S    
C5    H12   S    
C1    C2    S    
C62   S6    S    
O31   S5    D    
C45   H22   S    
C17   S3    S    
C7    C68   A    
C37   C55   S    
O27   S3    S    
Br11  C52   S    
C39   O2    A    
