data_mof_unit_23213.cif
_audit_creation_date              2012-12-11T14:51:41-0500
_audit_creation_method            fapswitch 2.2
_symmetry_space_group_name_H-M    P1
_symmetry_Int_Tables_number       1
_space_group_crystal_system       triclinic
_cell_length_a                    6.92979
_cell_length_b                    16.709817
_cell_length_c                    16.969888
_cell_angle_alpha                 101.249451
_cell_angle_beta                  91.872664
_cell_angle_gamma                 89.286308
_cell_volume                      1926.21670267

loop_
_atom_site_label
_atom_site_type_symbol
_atom_type_description
_atom_site_fract_x
_atom_site_fract_y
_atom_site_fract_z
_atom_type_partial_charge
O1    O     O_R   0.506340 0.439070 0.579550 -0.521758
O2    O     O_R   0.170010 0.404890 0.412100 -0.522796
O3    O     O_R   0.005010 0.560930 0.420450 -0.534247
C1    C     C_R   0.338817 0.382101 0.383107 0.806042
O4    O     O_R   0.176280 0.429360 0.578400 -0.537385
O5    O     O_R   0.011320 0.585570 0.587940 -0.542392
C2    C     C_R   0.349447 0.415399 0.606675 0.797958
O6    O     O_R   0.500030 0.414430 0.412060 -0.551793
O7    O     O_3   0.340950 0.551220 0.502940 -0.377351
V1    V     V_3+5 0.064020 0.490500 0.499460 1.561330
O8    O     O_R   0.681910 0.595110 0.587900 -0.537961
C3    C     C_R   0.852442 0.617883 0.616743 0.749930
O9    O     O_R   0.675640 0.570640 0.421600 -0.517517
C4    C     C_R   0.840814 0.587064 0.395166 0.772097
V2    V     V_3+5 0.564670 0.509500 0.500540 1.559502
O10   O     O_3   0.837610 0.448780 0.497060 -0.372357
C5    C     C_R   0.929751 0.859969 0.165733 -0.079333
C6    C     C_R   0.835758 0.640213 0.333418 -0.169565
C7    C     C_R   0.662497 0.683787 0.219408 -0.110678
C8    C     C_R   0.683138 0.630058 0.274779 0.283169
C9    C     C_R   0.976108 0.701338 0.333233 0.238935
C10   C     C_R   0.962386 0.751463 0.275026 0.087596
C11   C     C_R   0.801895 0.745528 0.219953 0.011986
C12   C     C_R   0.784466 0.802645 0.167816 -0.120329
C13   C     C_R   0.090390 0.862514 0.218503 -0.195192
C14   C     C_R   0.105052 0.810245 0.273140 -0.104535
H1    H     H_    0.661103 0.802494 0.127242 0.186275
H2    H     H_    0.205080 0.905906 0.218087 0.120700
H3    H     H_    0.230541 0.815776 0.313541 0.169652
C15   C     C_3   0.802992 0.816685 0.730475 -0.002787
C16   C     C_3   0.975252 0.768252 0.688790 -0.069989
C17   C     C_3   0.869180 0.687178 0.687486 -0.135929
C18   C     C_3   0.699444 0.735624 0.729841 0.250950
C19   C     C_3   0.790307 0.731006 0.812867 -0.108397
C20   C     C_3   0.962488 0.682971 0.770738 -0.047080
C21   C     C_3   0.070959 0.764004 0.772042 -0.225305
C22   C     C_3   0.896731 0.811956 0.813567 -0.103523
H4    H     H_    0.223610 0.776859 0.791346 0.179154
C23   C     C_3   0.554513 0.284447 0.274931 -0.158243
C24   C     C_3   0.500123 0.193650 0.272994 -0.234945
H5    H     H_    0.595578 0.147130 0.292964 0.140840
H6    H     H_    0.697122 0.312528 0.294075 0.168214
C25   C     C_3   0.407985 0.188417 0.187497 -0.119656
C26   C     C_3   0.459874 0.278017 0.190237 0.383324
C27   C     C_3   0.264726 0.307463 0.226612 -0.115159
C28   C     C_3   0.210610 0.217564 0.224702 -0.147117
C29   C     C_3   0.303752 0.223571 0.309091 0.315688
C30   C     C_3   0.355767 0.313017 0.311841 -0.113760
C31   C     C_R   0.388611 0.136775 0.832043 -0.078468
C32   C     C_R   0.379109 0.365217 0.670261 -0.127194
C33   C     C_R   0.588345 0.322756 0.775032 0.252725
C34   C     C_R   0.547642 0.376055 0.720783 0.268869
C35   C     C_R   0.253516 0.301248 0.674727 -0.248260
C36   C     C_R   0.298794 0.243915 0.724256 0.073186
C37   C     C_R   0.468563 0.255225 0.774685 0.055926
C38   C     C_R   0.512871 0.200660 0.827010 -0.151043
C39   C     C_R   0.222240 0.125469 0.781632 -0.204711
C40   C     C_R   0.177485 0.176474 0.726881 0.021968
H7    H     H_    0.639859 0.209619 0.866613 0.177880
H8    H     H_    0.126148 0.075390 0.784419 0.139285
H9    H     H_    0.123368 0.296141 0.637500 0.196864
O11   O     O_R   0.266070 0.085680 0.087850 -0.560239
O12   O     O_R   0.590090 0.070660 0.921580 -0.528468
O13   O     O_R   0.754780 0.914400 0.912080 -0.511660
C41   C     C_R   0.417111 0.085785 0.894394 0.751629
O14   O     O_R   0.596110 0.095130 0.087880 -0.515599
O15   O     O_R   0.760850 0.939050 0.079570 -0.542203
C42   C     C_R   0.426929 0.118416 0.116677 0.727792
O16   O     O_R   0.260010 0.061030 0.920360 -0.547863
O17   O     O_3   0.425070 0.948840 0.997010 -0.365560
V3    V     V_3+5 0.702100 0.009490 0.000550 1.561419
O18   O     O_R   0.090200 0.929250 0.078500 -0.548735
C43   C     C_R   0.924976 0.913219 0.104950 0.701580
O19   O     O_R   0.084180 0.904770 0.912200 -0.553415
C44   C     C_R   0.913602 0.881773 0.883642 0.813721
V4    V     V_3+5 0.201420 0.990350 0.999580 1.480283
O20   O     O_3   0.928580 0.051150 0.002990 -0.366217
C45   C     C_2   0.682360 0.706397 0.879379 0.384473
H10   H     H_    0.609995 0.647924 0.868885 0.071509
O21   O     O_2   0.675470 0.751307 0.945169 -0.512830
C46   C     C_2   0.057207 0.610968 0.796854 0.350228
H11   H     H_    0.115780 0.617124 0.857769 0.075209
O22   O     O_2   0.069839 0.545691 0.750334 -0.535421
O23   O     O_3   0.543221 0.306409 0.127036 -0.618638
H12   H     H_    0.570076 0.364944 0.148065 0.300536
C47   C     C_2   0.138365 0.369631 0.197176 0.419291
H13   H     H_    0.085971 0.358301 0.135109 0.101138
O24   O     O_2   0.094242 0.432889 0.242272 -0.534454
C48   C     C_2   0.017672 0.179383 0.200761 0.452736
H14   H     H_    0.984611 0.120703 0.215170 0.005326
O25   O     O_2   0.898853 0.213170 0.163725 -0.517392
O26   O     O_3   0.219308 0.195634 0.372317 -0.627964
H15   H     H_    0.209478 0.135669 0.354437 0.289462
O27   O     O_3   0.742873 0.335839 0.829576 -0.650467
H16   H     H_    0.770521 0.395015 0.843254 0.313798
C49   C     C_2   0.001579 0.155747 0.674907 0.405371
H17   H     H_    0.879692 0.128194 0.697935 0.078651
O28   O     O_2   0.994738 0.163819 0.604932 -0.514163
O29   O     O_3   0.670729 0.439299 0.716254 -0.635706
H18   H     H_    0.804919 0.421280 0.725459 0.317428
C50   C     C_2   0.491600 0.675141 0.163203 0.363086
H19   H     H_    0.349221 0.667691 0.185526 0.078441
O30   O     O_2   0.509508 0.671568 0.091269 -0.503560
O31   O     O_3   0.558021 0.565527 0.272634 -0.625496
H20   H     H_    0.494490 0.550359 0.218840 0.293501
O32   O     O_3   0.125019 0.715514 0.390353 -0.629678
H21   H     H_    0.079434 0.703744 0.441509 0.289286
C51   C     C_2   0.085369 0.787164 0.620212 0.361045
H22   H     H_    0.203962 0.747792 0.596404 0.094787
O33   O     O_2   0.042959 0.846361 0.590880 -0.522600
C52   C     C_2   0.707108 0.888786 0.704848 0.439713
H23   H     H_    0.637723 0.881595 0.645696 0.091387
O34   O     O_2   0.706715 0.955416 0.749668 -0.553276
O35   O     O_3   0.505309 0.721693 0.707067 -0.664903
H24   H     H_    0.475874 0.667256 0.718495 0.290388

loop_
_geom_bond_atom_site_label_1
_geom_bond_atom_site_label_2
_ccdc_geom_bond_type
C24   C29   S    
O14   C42   A    
C37   C38   A    
O12   C41   A    
C50   H19   S    
C19   C22   S    
C29   O26   S    
C4    C6    S    
O2    C1    A    
C52   H23   S    
C12   H1    S    
O18   V4    S    
C46   H11   S    
C20   C46   S    
C28   C48   S    
C35   C36   A    
C13   H2    S    
C18   O35   S    
O19   V4    S    
C21   C22   S    
C16   C21   S    
O5    C3    A    
C15   C16   S    
C47   O24   D    
O32   H21   S    
V2    O10   S    
C6    C9    A    
C31   C39   A    
C51   H22   S    
O16   V4    S    
C19   C20   S    
C16   C51   S    
O13   V3    S    
C40   C49   S    
C28   C29   S    
C35   H9    S    
C24   C25   S    
O29   H18   S    
C25   C42   S    
C49   O28   D    
C32   C34   A    
C11   C12   A    
O17   V3    S    
O15   C43   A    
C48   O25   D    
O7    V1    S    
O15   V3    S    
C9    O32   S    
C1    O6    A    
C22   C44   S    
C50   O30   D    
O9    C4    A    
C3    C17   S    
C5    C43   S    
O11   V4    S    
O8    V2    S    
O31   H20   S    
C46   O22   D    
O35   H24   S    
C23   H6    S    
C5    C12   A    
O19   C44   A    
C33   C34   A    
C32   C35   A    
C29   C30   S    
V4    O20   S    
C23   C24   S    
O4    C2    A    
C45   H10   S    
C39   H8    S    
C33   C37   A    
C13   C14   A    
C27   C28   S    
C15   C22   S    
C20   C21   S    
C7    C11   A    
C25   C26   S    
C17   C20   S    
O14   V3    S    
C49   H17   S    
C18   C19   S    
C45   O21   D    
C52   O34   D    
O23   H12   S    
O3    C4    A    
C31   C41   S    
O1    V2    S    
C24   H5    S    
O12   V3    S    
O6    V2    S    
O9    V2    S    
O17   V4    S    
O2    V1    S    
V3    O20   S    
C26   C27   S    
C47   H13   S    
C1    C30   S    
C36   C40   A    
C27   C30   S    
C36   C37   A    
C15   C18   S    
O1    C2    A    
C16   C17   S    
C2    C32   S    
O18   C43   A    
C26   O23   S    
O5    V1    S    
O8    C3    A    
C23   C26   S    
C8    O31   S    
C31   C38   A    
C34   O29   S    
C38   H7    S    
O11   C42   A    
C15   C52   S    
C5    C13   A    
C17   C18   S    
C7    C8    A    
C21   H4    S    
C27   C47   S    
O7    V2    S    
O4    V1    S    
O3    V1    S    
V1    O10   S    
C19   C45   S    
C7    C50   S    
C39   C40   A    
C41   O16   A    
O26   H15   S    
O13   C44   A    
C51   O33   D    
C6    C8    A    
O27   H16   S    
C25   C28   S    
C33   O27   S    
C14   H3    S    
C10   C14   A    
C10   C11   A    
C48   H14   S    
C9    C10   A    
C23   C30   S    
