data_mof_unit_26867.cif
_audit_creation_date              2012-12-11T21:15:01-0500
_audit_creation_method            fapswitch 2.2
_symmetry_space_group_name_H-M    P1
_symmetry_Int_Tables_number       1
_space_group_crystal_system       triclinic
_cell_length_a                    8.223781
_cell_length_b                    18.788275
_cell_length_c                    26.999451
_cell_angle_alpha                 99.560096
_cell_angle_beta                  92.588378
_cell_angle_gamma                 88.168605
_cell_volume                      4108.30224421

loop_
_atom_site_label
_atom_site_type_symbol
_atom_type_description
_atom_site_fract_x
_atom_site_fract_y
_atom_site_fract_z
_atom_type_partial_charge
Ba1   Ba    Ba6+2 0.160810 0.465630 0.521640 1.833627
Ba2   Ba    Ba6+2 0.649380 0.534380 0.478400 1.819884
C1    C     C_3   0.459558 0.265394 0.696109 -0.299379
C2    C     C_R   0.080615 0.095587 0.454336 0.037512
C3    C     C_R   0.229392 0.072166 0.432876 -0.055869
C4    C     C_3   0.927823 0.272151 0.647280 0.276426
C5    C     C_R   0.292142 0.002727 0.435272 -0.086241
C6    C     C_R   0.205560 0.954696 0.458184 0.040817
C7    C     C_R   0.056225 0.977532 0.479997 0.050484
C8    C     C_R   0.265122 0.884019 0.458750 -0.102167
C9    C     C_R   0.175273 0.834075 0.479403 -0.001839
C10   C     C_R   0.026229 0.857221 0.502258 0.040597
C11   C     C_R   0.968058 0.929332 0.502740 0.033517
C12   C     C_3   0.459023 0.296453 0.647655 0.354180
C13   C     C_R   0.227417 0.761060 0.476776 0.036453
C14   C     C_R   0.130164 0.712414 0.495049 -0.167951
C15   C     C_R   0.986784 0.734469 0.519439 0.061041
C16   C     C_3   0.000588 0.196010 0.643735 1.110079
C17   C     C_R   0.934676 0.808357 0.524298 -0.020112
C18   C     C_R   0.847007 0.072305 0.501153 0.062660
C19   C     C_R   0.788715 0.144347 0.501397 0.052371
C20   C     C_R   0.878354 0.192681 0.478264 -0.003848
C21   C     C_R   0.018240 0.165530 0.452241 0.001713
C22   C     C_R   0.792816 0.834875 0.549480 -0.014609
C23   C     C_3   0.471815 0.313518 0.398684 0.383031
C24   C     C_R   0.732190 0.905329 0.548292 -0.042613
C25   C     C_R   0.819644 0.952855 0.524876 0.010190
C26   C     C_R   0.758755 0.024120 0.523940 -0.023770
C27   C     C_R   0.583143 0.928607 0.569542 -0.118858
C28   C     C_3   0.849004 0.624421 0.633651 0.253434
C29   C     C_R   0.521182 0.998365 0.567903 0.608132
C30   C     C_R   0.609052 0.046909 0.545620 -0.022525
C31   C     C_R   0.640138 0.167596 0.524373 -0.053048
C32   C     C_R   0.550297 0.117792 0.545117 -0.043318
C33   C     C_R   0.586693 0.240243 0.526181 -0.045451
C34   C     C_3   0.483426 0.232109 0.382365 0.663533
C35   C     C_R   0.682239 0.288592 0.506850 -0.276006
C36   C     C_R   0.825563 0.266475 0.482418 0.042378
C37   C     C_R   0.285896 0.443138 0.172726 0.628065
C38   C     C_R   0.168000 0.561936 0.174448 0.587533
C39   C     C_2   0.024765 0.520277 0.268710 -0.101427
C40   C     C_3   0.866730 0.645360 0.690517 0.403824
C41   C     C_3   0.990937 0.515608 0.322975 -0.124241
C42   C     C_1   0.279241 0.489297 0.335483 -0.056910
C43   C     C_2   0.312681 0.491456 0.288264 -0.159569
C44   C     C_2   0.177746 0.506908 0.251650 0.205756
C45   C     C_3   0.821583 0.722317 0.371289 0.873167
C46   C     C_R   0.290993 0.500142 0.097844 -0.081722
C47   C     C_R   0.327172 0.440476 0.122278 -0.049138
C48   C     C_R   0.400764 0.378549 0.095468 -0.049982
C49   C     C_R   0.208310 0.560785 0.123921 -0.025966
C50   C     C_2   0.147037 0.521430 0.355007 0.320128
C51   C     C_2   0.648098 0.467615 0.636351 0.366752
C52   C     C_3   0.980205 0.366292 0.365202 0.426474
C53   C     C_R   0.480266 0.438624 0.972961 -0.145426
C54   C     C_R   0.333893 0.555033 0.970777 0.070304
C55   C     C_R   0.428027 0.495456 0.946583 -0.010133
C56   C     C_3   0.790244 0.791927 0.350251 -0.274016
C57   C     C_R   0.591938 0.385729 0.949573 0.525055
C58   C     C_R   0.628439 0.382250 0.899461 0.636546
C59   C     C_R   0.565292 0.434428 0.871445 -0.198108
C60   C     C_R   0.471891 0.492952 0.895631 -0.161239
C61   C     C_R   0.422920 0.548978 0.868932 0.005143
C62   C     C_R   0.469553 0.546153 0.818712 0.629260
C63   C     C_R   0.596816 0.429899 0.820043 0.640079
C64   C     C_3   0.004522 0.336044 0.309893 1.206078
C65   C     C_2   0.735452 0.449559 0.723952 -0.023836
C66   C     C_3   0.750723 0.423799 0.668582 -0.143729
C67   C     C_3   0.332709 0.693980 0.352605 0.249252
C68   C     C_1   0.519784 0.506120 0.655229 -0.001264
C69   C     C_2   0.477084 0.507822 0.702598 -0.167561
C70   C     C_2   0.593539 0.481281 0.740938 0.221162
C71   C     C_R   0.423532 0.437849 0.022002 0.059262
C72   C     C_R   0.336442 0.498798 0.047164 0.057597
C73   C     C_R   0.293182 0.557971 0.022066 0.025885
C74   C     C_R   0.444691 0.376695 0.046171 -0.020267
C75   C     C_R   0.168488 0.619227 0.099067 -0.047170
C76   C     C_3   0.330285 0.686956 0.594852 0.288538
C77   C     C_R   0.284568 0.609848 0.942586 -0.086916
C78   C     C_3   0.346451 0.709244 0.299376 -0.389943
C79   C     C_R   0.329094 0.607018 0.893081 -0.037400
C80   C     C_R   0.209437 0.617928 0.049376 -0.099264
C81   C     C_3   0.328125 0.767997 0.613206 -0.355052
C82   C     C_R   0.994851 0.048616 0.478734 0.042147
F1    F     F_    0.848448 0.586245 0.713645 -0.739436
F2    F     F_    0.080940 0.177254 0.599441 -0.660962
F3    F     F_    0.155414 0.563518 0.401053 -0.713571
F4    F     F_    0.660016 0.448467 0.585879 -0.719644
F5    F     F_    0.099042 0.273237 0.305707 -0.641990
F6    F     F_    0.855282 0.321260 0.285299 -0.636667
F7    F     F_    0.589669 0.215241 0.343621 -0.607989
F8    F     F_    0.877243 0.147747 0.644313 -0.716549
F9    F     F_    0.947716 0.732826 0.406667 -0.764420
F10   F     F_    0.375569 0.018404 0.588450 -0.675002
F11   F     F_    0.733826 0.329090 0.879311 -0.592733
F12   F     F_    0.679674 0.340533 0.975521 -0.657990
H1    H     H_    0.413231 0.353506 0.655081 0.025105
H2    H     H_    0.586074 0.294254 0.635166 -0.087910
H3    H     H_    0.595676 0.333580 0.409845 -0.035334
H4    H     H_    0.361366 0.211101 0.369422 0.039526
H5    H     H_    0.498957 0.207395 0.689049 0.167169
H6    H     H_    0.756384 0.836282 0.381097 0.081825
H7    H     H_    0.901975 0.806812 0.332970 0.118912
H8    H     H_    0.688810 0.785022 0.321303 0.076226
H9    H     H_    0.377460 0.637662 0.353120 0.087690
H10   H     H_    0.263422 0.673835 0.273709 0.147816
H11   H     H_    0.859882 0.275354 0.611049 -0.020639
H12   H     H_    0.098398 0.383971 0.383317 -0.190819
H13   H     H_    0.312263 0.766521 0.297570 0.148136
H14   H     H_    0.298183 0.107811 0.414576 0.067906
H15   H     H_    0.169241 0.656330 0.491416 0.093253
H16   H     H_    0.380587 0.868290 0.442036 0.100640
H17   H     H_    0.083429 0.198749 0.431228 0.090547
H18   H     H_    0.725267 0.800938 0.569305 0.091820
H19   H     H_    0.434800 0.133775 0.561579 0.184300
H20   H     H_    0.842731 0.280875 0.678638 -0.057759
H21   H     H_    0.640047 0.344021 0.508668 0.120815
H22   H     H_    0.435961 0.481419 0.276009 0.142353
H23   H     H_    0.066993 0.375171 0.291491 -0.210548
H24   H     H_    0.423301 0.330506 0.112378 0.157116
H25   H     H_    0.488827 0.325166 0.027218 0.178063
H26   H     H_    0.923500 0.528181 0.242830 0.124057
H27   H     H_    0.287988 0.650678 0.873514 0.128544
H28   H     H_    0.355182 0.526046 0.713292 0.157566
H29   H     H_    0.175170 0.665625 0.033740 0.079245
H30   H     H_    0.087040 0.192673 0.676101 -0.007404
H31   H     H_    0.934107 0.578610 0.621440 0.084333
H32   H     H_    0.773227 0.687173 0.703896 0.057785
H33   H     H_    0.989490 0.667312 0.701188 0.063598
H34   H     H_    0.203917 0.669390 0.586035 -0.021908
H35   H     H_    0.891907 0.412519 0.368464 -0.090014
H36   H     H_    0.546041 0.295291 0.724101 0.134467
H37   H     H_    0.392868 0.324968 0.431505 -0.093554
H38   H     H_    0.528547 0.205880 0.414451 -0.226887
H39   H     H_    0.711096 0.710002 0.389643 0.056617
H40   H     H_    0.202609 0.699663 0.362444 0.123421
H41   H     H_    0.473351 0.697782 0.287007 0.127934
H42   H     H_    0.407648 0.986262 0.418584 0.076926
H43   H     H_    0.513322 0.892510 0.587104 0.092523
H44   H     H_    0.830479 0.433921 0.749513 0.133101
H45   H     H_    0.403478 0.675059 0.560737 0.036244
H46   H     H_    0.104946 0.666743 0.118075 0.129461
H47   H     H_    0.209537 0.655814 0.957446 0.073927
H48   H     H_    0.722589 0.608477 0.622847 -0.006923
H49   H     H_    0.335624 0.270536 0.711363 0.128574
H50   H     H_    0.249676 0.781481 0.646059 0.141567
H51   H     H_    0.279823 0.797276 0.583053 0.039204
H52   H     H_    0.453652 0.785994 0.624498 0.121751
N1    N     N_R   0.210166 0.504080 0.198726 -0.425022
N2    N     N_R   0.553229 0.486201 0.793993 -0.429126
O1    O     O_2   0.106080 0.324280 0.466820 -0.483669
O2    O     O_2   0.660022 0.562975 0.331381 -0.529778
O3    O     O_3   0.864051 0.666568 0.332331 -0.632297
O4    O     O_3   0.859130 0.413620 0.470620 -0.459591
O5    O     O_3   0.459240 0.537930 0.559910 -0.421406
O6    O     O_2   0.583120 0.462390 0.379940 -0.465333
O7    O     O_3   0.405543 0.345425 0.358566 -0.594668
O8    O     O_2   0.568475 0.756730 0.474961 -0.512923
O9    O     O_3   0.427433 0.743085 0.385674 -0.630921
O10   O     O_2   0.316457 0.390817 0.193441 -0.532482
O11   O     O_2   0.660780 0.374705 0.798266 -0.546815
O12   O     O_3   0.398526 0.652629 0.633172 -0.628489
O13   O     O_2   0.096706 0.614767 0.196909 -0.598054
O14   O     O_2   0.437076 0.597597 0.797383 -0.572709
O15   O     O_3   0.376230 0.370290 0.556910 -0.447196
O16   O     O_2   0.247541 0.243876 0.519725 -0.458710
O17   O     O_3   0.918409 0.311836 0.387454 -0.599166
O18   O     O_3   0.356116 0.255440 0.611811 -0.531366
O19   O     O_2   0.227190 0.537650 0.620070 -0.485162
O20   O     O_3   0.971110 0.406970 0.583250 -0.409847
O21   O     O_2   0.082989 0.464532 0.674540 -0.458205
O22   O     O_3   0.051009 0.323619 0.657220 -0.621493
O23   O     O_2   0.704230 0.675760 0.533200 -0.473863
O24   O     O_3   0.951180 0.586390 0.529420 -0.467058
O25   O     O_3   0.434080 0.629720 0.443130 -0.430535
O26   O     O_3   0.885067 0.685036 0.612809 -0.698066
O27   O     O_3   0.351080 0.462080 0.440130 -0.424149
O28   O     O_3   0.839200 0.593040 0.416790 -0.395570
P1    P     P_3+3 0.929380 0.335110 0.452880 1.039273
P2    P     P_3+3 0.398530 0.559060 0.613740 1.054494
P3    P     P_3+3 0.964643 0.406922 0.647604 1.056224
P4    P     P_3+3 0.880940 0.664900 0.547160 0.993396
P5    P     P_3+3 0.835492 0.582726 0.350900 1.063611
P6    P     P_3+3 0.392382 0.276778 0.552885 1.030260
P7    P     P_3+3 0.400887 0.439264 0.376954 1.062279
P8    P     P_3+3 0.414899 0.723238 0.446445 0.958547

loop_
_geom_bond_atom_site_label_1
_geom_bond_atom_site_label_2
_ccdc_geom_bond_type
C43   H22   S    
O17   P1    S    
C22   H18   S    
Ba2   O5    S    
C53   C57   A    
C37   O10   D    
C71   C72   A    
C52   O17   S    
C62   O14   D    
O24   P4    S    
C28   H48   S    
C55   C60   A    
C64   F6    S    
C4    O22   S    
C43   C44   S    
C42   C43   D    
O26   P4    S    
C52   H35   S    
C24   C25   A    
C35   C36   A    
C54   C77   A    
C79   H27   S    
C48   H24   S    
C74   H25   S    
O9    P8    S    
C33   C35   A    
O7    P7    S    
C65   C70   D    
Ba2   O23   S    
C67   O9    S    
Ba1   P2    S    
C41   C50   S    
C19   C31   A    
C3    H14   S    
C13   C14   A    
C20   C36   A    
C78   H10   S    
Ba1   O20   S    
O27   P7    S    
C54   C55   A    
Ba1   Ba2   S    
Ba2   P4    S    
Ba1   O19   S    
C63   N2    Am   
Ba1   O5    S    
C51   C66   S    
C7    C11   A    
C75   H46   S    
C31   C33   A    
Ba1   O27   S    
C15   P4    S    
C23   H3    S    
C46   C49   A    
C77   H47   S    
O3    P5    S    
C14   C15   A    
O18   P6    S    
C78   H13   S    
C4    H11   S    
C8    H16   S    
C68   C69   D    
C56   H6    S    
Ba2   O27   S    
C40   H33   S    
C23   H37   S    
O19   P2    D    
O12   P2    S    
O28   P5    S    
C40   H32   S    
C42   P7    S    
C42   C50   D    
C57   C58   A    
Ba2   O4    S    
C54   C73   A    
C19   C20   A    
C39   C41   S    
C59   C60   A    
O22   P3    S    
C9    C13   A    
C4    C16   S    
C51   C68   D    
O8    P8    D    
C28   O26   S    
C12   H2    S    
C64   F5    S    
C27   H43   S    
C13   P8    S    
C66   P3    S    
C72   C73   A    
C1    H36   S    
C46   C72   A    
C69   H28   S    
C26   C30   A    
O16   P6    D    
C38   O13   D    
C76   H45   S    
C3    C5    A    
C2    C21   A    
C67   H9    S    
C6    C7    A    
C18   C26   A    
C32   H19   S    
O6    P7    D    
C65   C66   S    
C62   N2    Am   
C58   C59   A    
C30   C32   A    
C39   H26   S    
C49   C75   A    
C80   H29   S    
C60   C61   A    
C48   C74   A    
Ba2   O25   S    
C21   H17   S    
C81   H50   S    
O1    P1    D    
C29   C30   A    
C2    C82   A    
Ba1   O15   S    
C39   C44   D    
C31   C32   A    
C45   F9    S    
C34   H4    S    
C40   F1    S    
C16   F2    S    
C18   C19   A    
O2    P5    D    
C65   H44   S    
C4    H20   S    
C1    C12   S    
C81   H51   S    
C34   F7    S    
C46   C47   A    
C37   C47   A    
C61   C79   A    
O23   P4    D    
C76   O12   S    
C67   H40   S    
C70   N2    S    
C64   H23   S    
C18   C82   A    
O20   P3    S    
C23   O7    S    
C71   C74   A    
C56   H8    S    
C57   F12   S    
C12   O18   S    
C29   F10   S    
O5    P2    S    
C12   H1    S    
C77   C79   A    
C81   H52   S    
C28   H31   S    
Ba2   O6    S    
C36   P1    S    
C45   H39   S    
C23   C34   S    
O15   P6    S    
O21   P3    D    
C50   F3    S    
C28   C40   S    
C22   C24   A    
C2    C3    A    
C34   H38   S    
C76   C81   S    
C5    H42   S    
C9    C10   A    
C73   C80   A    
C1    H49   S    
C52   C64   S    
C38   C49   A    
C45   O3    S    
C37   N1    Am   
C52   H12   S    
C16   F8    S    
C53   C55   A    
C17   C22   A    
C33   P6    S    
Ba1   O24   S    
C27   C29   A    
Ba2   O24   S    
C45   C56   S    
Ba1   P1    S    
C68   P2    S    
C75   C80   A    
C1    H5    S    
C10   C17   A    
C41   P5    S    
C15   C17   A    
C38   N1    Am   
Ba1   O1    S    
C51   F4    S    
C76   H34   S    
Ba1   O4    S    
C5    C6    A    
C8    C9    A    
C7    C82   A    
C61   C62   A    
C53   C71   A    
C58   F11   S    
C59   C63   A    
C69   C70   S    
C44   N1    S    
C35   H21   S    
C10   C11   A    
C24   C27   A    
C6    C8    A    
C47   C48   A    
C63   O11   D    
C25   C26   A    
C20   C21   A    
C11   C25   A    
C67   C78   S    
C56   H7    S    
Ba2   O28   S    
O4    P1    S    
C16   H30   S    
C78   H41   S    
C14   H15   S    
O25   P8    S    
