data_mof_unit_20999.cif
_audit_creation_date              2012-12-11T14:19:25-0500
_audit_creation_method            fapswitch 2.2
_symmetry_space_group_name_H-M    P1
_symmetry_Int_Tables_number       1
_space_group_crystal_system       triclinic
_cell_length_a                    19.437929
_cell_length_b                    7.244576
_cell_length_c                    17.712471
_cell_angle_alpha                 89.999949
_cell_angle_beta                  107.795319
_cell_angle_gamma                 90.0
_cell_volume                      2374.92270198

loop_
_atom_site_label
_atom_site_type_symbol
_atom_type_description
_atom_site_fract_x
_atom_site_fract_y
_atom_site_fract_z
_atom_type_partial_charge
O1    O     O_R   0.414820 0.494320 0.416790 -0.547179
O2    O     O_R   0.585180 0.994320 0.583210 -0.547175
O3    O     O_R   0.560270 0.819500 0.430140 -0.545657
O4    O     O_R   0.439730 0.319500 0.569860 -0.545657
C1    C     C_R   0.580231 0.655082 0.413556 0.735251
C2    C     C_R   0.419768 0.155082 0.586443 0.735250
O5    O     O_R   0.413840 0.823740 0.407440 -0.540637
O6    O     O_R   0.586160 0.323740 0.592560 -0.540639
O7    O     O_R   0.437710 0.998590 0.560350 -0.512108
O8    O     O_R   0.562290 0.498590 0.439650 -0.512108
C3    C     C_R   0.387333 0.655034 0.385632 0.719663
C4    C     C_R   0.612668 0.155034 0.614368 0.719661
O9    O     O_3   0.508000 0.662290 0.550200 -0.376060
O10   O     O_3   0.492000 0.162290 0.449800 -0.376058
V1    V     V_3+5 0.498520 0.935380 0.490690 1.435662
V2    V     V_3+5 0.501480 0.435380 0.509310 1.435658
C5    C     C_2   0.784403 0.271529 0.789662 -0.131966
C6    C     C_2   0.215597 0.771529 0.210338 -0.131970
C7    C     C_2   0.819879 0.113326 0.817723 -0.309895
C8    C     C_2   0.180121 0.613326 0.182277 -0.309896
C9    C     C_2   0.716054 0.284367 0.722189 -0.132951
C10   C     C_2   0.283946 0.784367 0.277811 -0.132957
C11   C     C_2   0.680235 0.138715 0.681292 -0.305267
C12   C     C_2   0.319766 0.638715 0.318707 -0.305273
C13   C     C_R   0.325520 0.295871 0.637767 -0.278779
C14   C     C_R   0.674480 0.795870 0.362233 -0.278782
C15   C     C_R   0.371883 0.146529 0.637885 -0.160882
C16   C     C_R   0.628117 0.646529 0.362114 -0.160884
C17   C     C_R   0.372006 0.991819 0.686984 0.371651
C18   C     C_R   0.627993 0.491819 0.313015 0.371656
C19   C     C_R   0.321745 0.982881 0.730583 -0.010797
C20   C     C_R   0.678255 0.482880 0.269417 -0.010796
C21   C     C_R   0.275570 0.134403 0.729459 0.000911
C22   C     C_R   0.724430 0.634402 0.270541 0.000913
C23   C     C_R   0.277817 0.291281 0.683191 0.085628
C24   C     C_R   0.722183 0.791280 0.316809 0.085629
C25   C     C_R   0.316748 0.825742 0.775477 -0.182862
C26   C     C_R   0.683252 0.325741 0.224524 -0.182866
C27   C     C_R   0.268691 0.820858 0.820111 -0.203521
C28   C     C_R   0.731310 0.320857 0.179890 -0.203520
C29   C     C_R   0.223623 0.971564 0.820195 0.095634
C30   C     C_R   0.776377 0.471563 0.179805 0.095634
C31   C     C_R   0.226862 0.129133 0.774712 0.082263
C32   C     C_R   0.773138 0.629132 0.225289 0.082263
C33   C     C_R   0.181481 0.281519 0.774511 0.087740
C34   C     C_R   0.818520 0.781518 0.225489 0.087740
C35   C     C_R   0.183945 0.435995 0.727681 -0.196735
C36   C     C_R   0.816056 0.935994 0.272319 -0.196734
C37   C     C_R   0.231458 0.440516 0.682211 -0.162089
C38   C     C_R   0.768543 0.940515 0.317790 -0.162089
C39   C     C_R   0.175313 0.966891 0.864947 -0.221843
C40   C     C_R   0.824687 0.466890 0.135054 -0.221843
C41   C     C_R   0.130680 0.119147 0.866188 -0.076578
C42   C     C_R   0.869320 0.619146 0.133812 -0.076578
C43   C     C_R   0.134323 0.276490 0.820905 -0.221562
C44   C     C_R   0.865677 0.776489 0.179095 -0.221561
H1    H     H_    0.173346 0.845259 0.899907 0.128799
H2    H     H_    0.826654 0.345258 0.100094 0.128800
H3    H     H_    0.099795 0.394022 0.820902 0.132002
H4    H     H_    0.900205 0.894021 0.179098 0.132002
H5    H     H_    0.232226 0.561570 0.646537 0.137719
H6    H     H_    0.767774 0.061569 0.353464 0.137720
O11   O     O_R   0.937810 0.773680 0.060480 -0.537542
O12   O     O_R   0.062190 0.273680 0.939520 -0.537542
O13   O     O_R   0.086190 0.439740 0.092580 -0.541691
O14   O     O_R   0.913810 0.939740 0.907420 -0.541692
C45   C     C_R   0.112615 0.608271 0.114592 0.735538
C46   C     C_R   0.887385 0.108271 0.885408 0.735538
O15   O     O_R   0.939760 0.444210 0.069890 -0.543154
O16   O     O_R   0.060240 0.944210 0.930110 -0.543154
O17   O     O_R   0.914790 0.269640 0.916760 -0.536486
O18   O     O_R   0.085210 0.769640 0.083240 -0.536486
C47   C     C_R   0.919151 0.612409 0.084903 0.700317
C48   C     C_R   0.080849 0.112409 0.915097 0.700318
O19   O     O_3   0.992050 0.601530 0.949880 -0.379445
O20   O     O_3   0.007950 0.101530 0.050120 -0.379445
V3    V     V_3+5 0.001480 0.328340 0.009300 1.397082
V4    V     V_3+5 0.998520 0.828340 0.990700 1.397081
H7    H     H_    0.806128 0.401599 0.817271 0.141825
H8    H     H_    0.193872 0.901599 0.182729 0.141827
H9    H     H_    0.149186 0.553709 0.726313 0.135176
H10   H     H_    0.850814 0.053708 0.273688 0.135176
H11   H     H_    0.799443 0.981561 0.791542 0.128952
H12   H     H_    0.200556 0.481561 0.208458 0.128956
H13   H     H_    0.694651 0.422231 0.706089 0.138217
H14   H     H_    0.305348 0.922231 0.293912 0.138219
H15   H     H_    0.700322 0.999919 0.696448 0.132061
H16   H     H_    0.299680 0.499919 0.303549 0.132066
H17   H     H_    0.325749 0.415616 0.601106 0.160036
H18   H     H_    0.674250 0.915616 0.398893 0.160036
O21   O     O_3   0.419936 0.847910 0.690140 -0.564921
C49   C     C_3   0.475548 0.847983 0.764005 0.050658
H19   H     H_    0.483101 0.703390 0.785942 0.136381
H20   H     H_    0.463328 0.931914 0.811278 0.105091
C50   C     C_3   0.546349 0.915440 0.753054 -0.269625
H21   H     H_    0.560085 0.827931 0.708210 0.215583
H22   H     H_    0.539702 0.060437 0.731661 0.169558
C51   C     C_3   0.608150 0.906424 0.830766 -0.863086
H23   H     H_    0.596111 0.995172 0.876298 0.234324
H24   H     H_    0.658820 0.956120 0.821151 0.240294
H25   H     H_    0.616530 0.762039 0.852792 0.229934
O22   O     O_3   0.580065 0.347907 0.309863 -0.564921
C52   C     C_3   0.524453 0.347970 0.235998 0.050664
H26   H     H_    0.516889 0.203366 0.214074 0.136398
H27   H     H_    0.536679 0.431857 0.188718 0.105088
C53   C     C_3   0.453657 0.415486 0.246941 -0.269669
H28   H     H_    0.439920 0.328039 0.291803 0.215604
H29   H     H_    0.460309 0.560505 0.268307 0.169545
C54   C     C_3   0.391853 0.406408 0.169235 -0.863075
H30   H     H_    0.403898 0.495055 0.123675 0.234322
H31   H     H_    0.341189 0.456185 0.178838 0.240302
H32   H     H_    0.383457 0.261993 0.147248 0.229930
H33   H     H_    0.349707 0.705016 0.776175 0.155173
H34   H     H_    0.650293 0.205016 0.223825 0.155173
H35   H     H_    0.266634 0.698350 0.854470 0.134200
H36   H     H_    0.733367 0.198349 0.145531 0.134200

loop_
_geom_bond_atom_site_label_1
_geom_bond_atom_site_label_2
_ccdc_geom_bond_type
O14   C46   A    
C10   H14   S    
C43   H3    S    
O16   V4    S    
O12   V3    S    
C8    C45   S    
O15   V3    S    
C50   H21   S    
O1    C3    A    
O17   V3    S    
O2    C4    A    
C2    O7    A    
C50   C51   S    
O3    V1    S    
C27   C29   A    
O5    C3    A    
C4    C11   S    
C54   H31   S    
C26   H34   S    
C25   H33   S    
C53   H28   S    
C1    C16   S    
C3    C12   S    
C5    H7    S    
C15   C17   A    
C45   O18   A    
C33   C35   A    
C53   C54   S    
O18   V4    S    
C5    C7    D    
C41   C48   S    
C40   C42   A    
O13   C45   A    
C23   C37   A    
C19   C21   A    
O15   C47   A    
C39   H1    S    
C20   C26   A    
C18   C20   A    
C22   C24   A    
C36   C38   A    
O6    V2    S    
C11   H15   S    
C29   C31   A    
C30   C32   A    
C7    H11   S    
C14   C16   A    
C32   C34   A    
C9    H13   S    
C41   C43   A    
O14   V4    S    
C42   C44   A    
C37   H5    S    
C21   C31   A    
C22   C32   A    
O20   V3    S    
C35   C37   A    
C54   H32   S    
O21   C49   S    
O5    V1    S    
O11   C47   A    
C49   C50   S    
C5    C9    S    
C19   C25   A    
C39   C41   A    
C20   C22   A    
O4    V2    S    
O16   C48   A    
C25   C27   A    
C42   C47   S    
C12   H16   S    
C2    C15   S    
O6    C4    A    
C18   O22   S    
C49   H20   S    
C7    C46   S    
C52   H27   S    
O1    V2    S    
O2    V1    S    
C31   C33   A    
C40   H2    S    
C13   C23   A    
C14   C24   A    
C27   H35   S    
C9    C11   D    
C38   H6    S    
C10   C12   D    
O4    C2    A    
C14   H18   S    
C17   O21   S    
C24   C38   A    
O13   V3    S    
C6    C10   S    
C13   H17   S    
O3    C1    A    
C50   H22   S    
C13   C15   A    
C51   H25   S    
C51   H24   S    
C8    H12   S    
O7    V1    S    
C16   C18   A    
C17   C19   A    
O8    V2    S    
C54   H30   S    
C26   C28   A    
C28   H36   S    
C53   H29   S    
C46   O17   A    
C28   C30   A    
C49   H19   S    
C21   C23   A    
C36   H10   S    
C52   C53   S    
C6    C8    D    
C35   H9    S    
O22   C52   S    
O19   V4    S    
C34   C36   A    
C44   H4    S    
C1    O8    A    
C33   C43   A    
C6    H8    S    
C51   H23   S    
O9    V2    S    
C34   C44   A    
C52   H26   S    
O12   C48   A    
O10   V1    S    
C29   C39   A    
C30   C40   A    
O11   V4    S    
