data_mof_unit_8351.cif
_audit_creation_date              2013-03-05T16:57:31-0500
_audit_creation_method            fapswitch 2.2
_symmetry_space_group_name_H-M    P1
_symmetry_Int_Tables_number       1
_space_group_crystal_system       triclinic
_cell_length_a                    17.540986
_cell_length_b                    16.925556
_cell_length_c                    10.581383
_cell_angle_alpha                 89.978852
_cell_angle_beta                  94.464486
_cell_angle_gamma                 88.562217
_cell_volume                      3130.99011198

loop_
_atom_site_label
_atom_site_type_symbol
_atom_site_description
_atom_site_fract_x
_atom_site_fract_y
_atom_site_fract_z
_atom_type_partial_charge
O1    O     O_R   0.389110 0.566570 0.499990 -0.634287
O2    O     O_R   0.610890 0.433430 0.500010 -0.634326
O3    O     O_R   0.610890 0.566570 0.500010 -0.619758
O4    O     O_R   0.389110 0.433430 0.499990 -0.619762
C1    C     C_R   0.354643 0.501073 0.515978 0.911427
C2    C     C_R   0.645345 0.498926 0.483972 0.911553
O5    O     O_R   0.499980 0.566530 0.313950 -0.599825
O6    O     O_R   0.500020 0.433470 0.686050 -0.599803
O7    O     O_R   0.500020 0.566530 0.686050 -0.632958
O8    O     O_R   0.499980 0.433470 0.313950 -0.632967
C3    C     C_R   0.500872 0.500145 0.257398 0.991627
C4    C     C_R   0.499137 0.499855 0.742606 0.991746
Zn1   Zn    Zn3+2 0.500000 0.588860 0.500000 0.935592
Zn2   Zn    Zn3+2 0.500000 0.411140 0.500000 0.935589
C5    C     C_3   0.501194 0.575220 0.039038 0.451811
C6    C     C_3   0.498834 0.424788 0.960967 0.451877
C7    C     C_3   0.562814 0.534489 0.964752 0.423717
C8    C     C_3   0.437223 0.465519 0.035260 0.423694
C9    C     C_3   0.436086 0.540313 0.952195 -0.057582
C10   C     C_3   0.563945 0.459687 0.047812 -0.057596
C11   C     C_3   0.498095 0.499418 0.877112 -0.311837
C12   C     C_3   0.501934 0.500586 0.122898 -0.311797
C13   C     C_R   0.843447 0.569805 0.446012 0.178165
C14   C     C_R   0.156468 0.430202 0.553261 0.178141
C15   C     C_R   0.151106 0.574681 0.528897 0.177798
C16   C     C_R   0.848863 0.425341 0.470595 0.177824
C17   C     C_R   0.763227 0.567843 0.427533 0.133696
C18   C     C_R   0.236679 0.432142 0.571992 0.133796
C19   C     C_R   0.231259 0.576067 0.548616 0.145811
C20   C     C_R   0.768701 0.423931 0.451114 0.145796
C21   C     C_R   0.726192 0.496532 0.452175 -0.183979
C22   C     C_R   0.273761 0.503461 0.547588 -0.183932
C23   C     C_R   0.884983 0.498561 0.471004 0.013447
C24   C     C_R   0.114966 0.501466 0.528262 0.013439
C25   C     C_1   0.966083 0.499834 0.491116 -0.002054
C26   C     C_1   0.033870 0.500219 0.508035 -0.002053
C27   C     C_R   0.449751 0.835190 0.414634 0.096133
C28   C     C_R   0.550236 0.164811 0.585391 0.096151
C29   C     C_R   0.552587 0.832613 0.581002 0.098458
C30   C     C_R   0.447436 0.167385 0.418960 0.098453
C31   C     C_R   0.450083 0.750451 0.416413 0.265269
C32   C     C_R   0.549907 0.249550 0.583603 0.265273
C33   C     C_R   0.551357 0.747937 0.581132 0.225582
C34   C     C_R   0.448658 0.252061 0.418843 0.225559
N1    N     N_R   0.500000 0.707230 0.500000 -0.128243
N2    N     N_R   0.500000 0.292770 0.500000 -0.128249
C35   C     C_R   0.500604 0.876233 0.498722 0.031357
C36   C     C_R   0.499399 0.123766 0.501276 0.031365
C37   C     C_1   0.500151 0.963839 0.499563 0.003188
C38   C     C_1   0.499854 0.036160 0.500437 0.003187
C39   C     C_3   0.365527 0.583938 0.892049 -0.869485
H1    H     H_    0.333596 0.544629 0.824084 0.231258
H2    H     H_    0.328273 0.603314 0.966836 0.256644
H3    H     H_    0.382980 0.636244 0.839673 0.237070
C40   C     C_3   0.634483 0.416037 0.107981 -0.869299
H4    H     H_    0.666369 0.455298 0.176074 0.231245
H5    H     H_    0.617014 0.363689 0.160239 0.236993
H6    H     H_    0.671784 0.396723 0.033223 0.256698
O9    O     O_3   0.506002 0.651282 0.093243 -0.597312
C41   C     C_3   0.495167 0.709944 0.998581 -0.308780
H7    H     H_    0.434332 0.730188 0.989853 0.170289
H8    H     H_    0.512487 0.690656 0.904337 0.187279
H9    H     H_    0.530115 0.761393 0.028318 0.182525
O10   O     O_3   0.493982 0.348729 0.906763 -0.597209
C42   C     C_3   0.504809 0.290061 0.001416 -0.308089
H10   H     H_    0.487556 0.309367 0.095689 0.187210
H11   H     H_    0.565629 0.269762 0.010066 0.170067
H12   H     H_    0.469803 0.238644 0.971723 0.182522
O11   O     O_3   0.624463 0.570609 0.911057 -0.613474
C43   C     C_3   0.677719 0.597293 0.007031 -0.298211
H13   H     H_    0.716186 0.547892 0.042767 0.181435
H14   H     H_    0.650408 0.626657 0.086466 0.191741
H15   H     H_    0.713884 0.641706 0.965243 0.180281
O12   O     O_3   0.375582 0.429338 0.088878 -0.613537
C44   C     C_3   0.322220 0.402919 0.992850 -0.297478
H16   H     H_    0.349406 0.374241 0.912711 0.191257
H17   H     H_    0.283454 0.452329 0.958168 0.181370
H18   H     H_    0.286408 0.358025 0.034212 0.180165
C45   C     C_3   0.885667 0.646878 0.441597 -0.907433
H19   H     H_    0.847497 0.700069 0.435945 0.247961
H20   H     H_    0.923656 0.653369 0.529694 0.240548
H21   H     H_    0.920751 0.646693 0.358695 0.237872
C46   C     C_3   0.114223 0.353134 0.557458 -0.907412
H22   H     H_    0.152381 0.299934 0.563100 0.247959
H23   H     H_    0.079082 0.353273 0.640287 0.237869
H24   H     H_    0.076293 0.346703 0.469282 0.240548
C47   C     C_3   0.103054 0.650206 0.507215 -0.905770
H25   H     H_    0.136973 0.703619 0.495513 0.246771
H26   H     H_    0.065386 0.645037 0.418474 0.240291
H27   H     H_    0.067218 0.659917 0.588043 0.238688
C48   C     C_3   0.896942 0.349836 0.492302 -0.905743
H28   H     H_    0.863049 0.296422 0.504168 0.246769
H29   H     H_    0.932717 0.340080 0.411410 0.238700
H30   H     H_    0.934666 0.355066 0.580967 0.240278
C49   C     C_3   0.718951 0.638251 0.367633 -0.849576
H31   H     H_    0.750498 0.663702 0.290873 0.222046
H32   H     H_    0.663349 0.621151 0.319678 0.254539
H33   H     H_    0.709656 0.684188 0.439895 0.251414
C50   C     C_3   0.280873 0.361687 0.631906 -0.849599
H34   H     H_    0.249253 0.336246 0.708587 0.222119
H35   H     H_    0.290172 0.315759 0.559635 0.251350
H36   H     H_    0.336468 0.378720 0.679953 0.254458
C51   C     C_3   0.268512 0.653488 0.585228 -0.859487
H37   H     H_    0.234494 0.685542 0.654123 0.232331
H38   H     H_    0.325593 0.645628 0.635896 0.256635
H39   H     H_    0.272060 0.690948 0.500422 0.242177
C52   C     C_3   0.731433 0.346480 0.414731 -0.859464
H40   H     H_    0.765404 0.314366 0.345837 0.232315
H41   H     H_    0.727943 0.309092 0.499635 0.242190
H42   H     H_    0.674327 0.354299 0.364131 0.256665
C53   C     C_3   0.396277 0.884108 0.323325 -0.910111
H43   H     H_    0.358855 0.849844 0.256114 0.240418
H44   H     H_    0.358499 0.922409 0.378055 0.242448
H45   H     H_    0.430553 0.922189 0.265083 0.242461
C54   C     C_3   0.603691 0.115895 0.676731 -0.910113
H46   H     H_    0.641095 0.150160 0.743968 0.240417
H47   H     H_    0.569401 0.077811 0.734947 0.242457
H48   H     H_    0.641485 0.077595 0.622028 0.242451
C55   C     C_3   0.609008 0.878788 0.667121 -0.913458
H49   H     H_    0.651153 0.842588 0.726364 0.242295
H50   H     H_    0.642548 0.917433 0.608573 0.243954
H51   H     H_    0.577118 0.916378 0.732131 0.240780
C56   C     C_3   0.391043 0.121207 0.332793 -0.913467
H52   H     H_    0.348925 0.157405 0.273492 0.242292
H53   H     H_    0.422959 0.083608 0.267828 0.240772
H54   H     H_    0.357475 0.082570 0.391307 0.243965
C57   C     C_3   0.394873 0.710058 0.322595 -0.759318
H55   H     H_    0.335530 0.730512 0.335563 0.186271
H56   H     H_    0.408321 0.724647 0.224887 0.250252
H57   H     H_    0.394971 0.646099 0.329448 0.291054
C58   C     C_3   0.605118 0.289943 0.677420 -0.759340
H58   H     H_    0.591660 0.275369 0.775128 0.250246
H59   H     H_    0.664459 0.269475 0.664468 0.186277
H60   H     H_    0.605031 0.353901 0.670547 0.291058
C59   C     C_3   0.608726 0.704976 0.672039 -0.759269
H61   H     H_    0.667598 0.716595 0.646570 0.207009
H62   H     H_    0.602368 0.725556 0.770125 0.210537
H63   H     H_    0.603594 0.641374 0.675377 0.311306
C60   C     C_3   0.391299 0.295020 0.327915 -0.759154
H64   H     H_    0.397694 0.274464 0.229829 0.210560
H65   H     H_    0.332422 0.283366 0.353315 0.206960
H66   H     H_    0.396402 0.358627 0.324625 0.311289

loop_
_geom_bond_atom_site_label_1
_geom_bond_atom_site_label_2
_geom_bond_distance
_ccdc_geom_bond_type
C59   H63   1.083300 S    
C40   H4    1.108981 S    
C7    O11   1.412279 S    
C6    C11   1.542598 S    
C20   C52   1.515979 S    
C31   C57   1.508267 S    
C17   C49   1.517034 S    
C49   H31   1.110479 S    
C47   H25   1.106808 S    
C58   H60   1.084895 S    
C49   H33   1.108719 S    
C56   H52   1.104415 S    
Zn2   N2    2.003478 S    
C5    C9    1.539041 S    
C41   H9    1.109092 S    
O1    C1    1.293256 A    
C9    C11   1.546151 S    
C14   C46   1.518597 S    
C28   C32   1.434227 A    
C19   C22   1.421760 A    
C20   C21   1.421771 A    
C60   H66   1.083302 S    
C56   H53   1.110534 S    
C54   H46   1.104404 S    
C15   C47   1.520778 S    
C7    C10   1.539789 S    
C19   C51   1.515963 S    
C41   H8    1.111650 S    
C8    C9    1.539716 S    
C32   N2    1.389569 A    
C37   C38   1.223993 T    
O7    Zn1   2.004451 S    
C51   H38   1.103336 S    
C5    C12   1.542682 S    
C46   H22   1.107188 S    
C54   H47   1.110660 S    
C52   H40   1.110687 S    
C43   H13   1.108670 S    
C13   C17   1.406742 A    
C27   C35   1.406402 A    
C59   H61   1.109594 S    
C28   C36   1.406400 A    
O3    Zn1   1.972044 S    
O6    C4    1.273544 A    
C15   C24   1.405797 A    
C1    C22   1.482341 S    
C42   H12   1.109101 S    
C36   C38   1.482634 S    
C2    C21   1.482344 S    
O9    C41   1.409045 S    
C8    O12   1.412246 S    
C59   H62   1.107837 S    
C27   C31   1.434226 A    
C52   H41   1.105170 S    
O2    C2    1.293220 A    
C10   C40   1.520941 S    
O7    C4    1.278171 A    
C34   N2    1.390840 A    
C55   H50   1.110639 S    
C15   C19   1.406002 A    
C60   H64   1.107821 S    
O12   C44   1.407780 S    
C17   C21   1.418550 A    
C39   H1    1.109009 S    
C18   C22   1.418542 A    
C13   C23   1.407312 A    
O8    Zn2   2.004452 S    
C48   H28   1.106805 S    
C45   H20   1.110010 S    
C56   H54   1.110640 S    
C29   C33   1.433900 A    
C42   H11   1.109484 S    
C16   C48   1.520774 S    
C4    C11   1.424824 S    
C14   C24   1.407320 A    
C41   H7    1.109475 S    
C39   H2    1.109400 S    
C25   C26   1.188783 T    
C51   H39   1.105164 S    
O5    C3    1.273526 A    
C44   H16   1.110733 S    
C57   H56   1.107362 S    
C48   H29   1.110058 S    
C33   N1    1.390833 A    
C16   C23   1.405804 A    
C50   H34   1.110486 S    
C30   C34   1.433903 A    
C6    C10   1.539036 S    
C54   H48   1.110501 S    
C46   H24   1.110010 S    
C43   H15   1.109223 S    
C53   H44   1.110500 S    
C33   C59   1.509548 S    
C44   H17   1.108535 S    
C32   C58   1.508262 S    
C18   C50   1.517037 S    
C50   H35   1.108695 S    
C10   C12   1.546196 S    
C16   C20   1.405987 A    
C34   C60   1.509552 S    
C40   H5    1.106484 S    
C52   H42   1.103352 S    
C40   H6    1.109395 S    
O1    Zn1   1.990634 S    
C58   H58   1.107354 S    
C29   C35   1.405939 A    
C55   H51   1.110533 S    
C30   C36   1.405938 A    
C30   C56   1.523018 S    
O6    Zn2   2.004728 S    
C53   H43   1.104403 S    
C46   H23   1.110035 S    
C8    C12   1.539813 S    
C5    O9    1.411349 S    
O3    C2    1.298579 A    
C14   C18   1.406726 A    
O4    C1    1.298559 A    
C58   H59   1.107437 S    
C45   H21   1.110046 S    
C55   H49   1.104417 S    
C49   H32   1.108938 S    
C5    C7    1.535163 S    
C35   C37   1.482632 S    
C3    C12   1.424784 S    
C39   H3    1.106490 S    
O10   C42   1.409041 S    
C47   H26   1.110100 S    
C57   H57   1.084894 S    
C48   H30   1.110081 S    
Zn1   N1    2.003478 S    
C28   C54   1.522551 S    
C60   H65   1.109578 S    
C29   C55   1.523016 S    
C23   C25   1.422625 S    
C53   H45   1.110660 S    
C24   C26   1.422627 S    
O4    Zn2   1.972048 S    
O11   C43   1.407760 S    
O2    Zn2   1.990631 S    
C44   H18   1.109066 S    
C7    C11   1.539941 S    
C27   C53   1.522552 S    
O8    C3    1.278174 A    
C45   H19   1.107188 S    
C9    C39   1.520922 S    
O5    Zn1   2.004729 S    
C50   H36   1.108892 S    
C6    C8    1.535072 S    
C42   H10   1.111636 S    
C47   H27   1.110062 S    
C51   H37   1.110688 S    
C31   N1    1.389571 A    
C43   H14   1.110885 S    
C6    O10   1.411354 S    
C13   C45   1.518602 S    
C57   H55   1.107431 S    
