data_mof_unit_14335.cif
_audit_creation_date              2013-03-05T16:48:17-0500
_audit_creation_method            fapswitch 2.2
_symmetry_space_group_name_H-M    P1
_symmetry_Int_Tables_number       1
_space_group_crystal_system       monoclinic
_cell_length_a                    23.455861
_cell_length_b                    8.928252
_cell_length_c                    8.098587
_cell_angle_alpha                 90.040572
_cell_angle_beta                  90.0
_cell_angle_gamma                 90.0
_cell_volume                      1696.00435143

loop_
_atom_site_label
_atom_site_type_symbol
_atom_site_description
_atom_site_fract_x
_atom_site_fract_y
_atom_site_fract_z
_atom_type_partial_charge
O1    O     O_R   0.500000 0.285350 0.636850 -0.614445
O2    O     O_R   0.500000 0.714650 0.363150 -0.614444
O3    O     O_R   0.500000 0.714650 0.636850 -0.612996
O4    O     O_R   0.500000 0.285350 0.363150 -0.612996
H1    H     H_    0.948204 0.126516 0.427205 0.191117
H2    H     H_    0.051796 0.873482 0.572795 0.191117
H3    H     H_    0.948204 0.873482 0.572795 0.191117
H4    H     H_    0.051796 0.126516 0.427205 0.191117
C1    C     C_R   0.500000 0.217972 0.499963 0.944716
C2    C     C_R   0.500000 0.782027 0.500037 0.944716
O5    O     O_R   0.416160 0.500000 0.636910 -0.622872
O6    O     O_R   0.583840 0.500000 0.363090 -0.622872
O7    O     O_R   0.583840 0.500000 0.636910 -0.622872
O8    O     O_R   0.416160 0.500000 0.363090 -0.622872
C3    C     C_R   0.208092 0.499999 0.500000 0.237954
C4    C     C_R   0.791908 0.499999 0.500000 0.237955
C5    C     C_R   0.388989 0.500000 0.500000 0.892497
C6    C     C_R   0.611011 0.500000 0.500000 0.892497
Zn1   Zn    Zn3+2 0.500000 0.500000 0.682780 0.998405
Zn2   Zn    Zn3+2 0.500000 0.500000 0.317220 0.998405
C7    C     C_R   0.296993 0.517758 0.351278 -0.176086
C8    C     C_R   0.703007 0.482245 0.648723 -0.176086
C9    C     C_R   0.296993 0.482241 0.648722 -0.176086
C10   C     C_R   0.703007 0.517754 0.351277 -0.176086
H5    H     H_    0.319552 0.532027 0.235578 0.181177
H6    H     H_    0.680448 0.467979 0.764423 0.181177
H7    H     H_    0.319552 0.467973 0.764422 0.181177
H8    H     H_    0.680448 0.532020 0.235577 0.181177
C11   C     C_R   0.326822 0.500000 0.500000 -0.139879
C12   C     C_R   0.673177 0.500000 0.500000 -0.139879
C13   C     C_R   0.880691 0.632142 0.524823 0.481069
C14   C     C_R   0.119309 0.367856 0.475176 0.481069
C15   C     C_R   0.880691 0.367856 0.475176 0.481069
C16   C     C_R   0.119309 0.632142 0.524824 0.481069
N1    N     N_R   0.852582 0.499999 0.500000 -0.363819
N2    N     N_R   0.147418 0.499999 0.500000 -0.363819
C17   C     C_R   0.940192 0.365029 0.474191 -0.008830
C18   C     C_R   0.059807 0.634969 0.525810 -0.008830
C19   C     C_R   0.940192 0.634969 0.525809 -0.008830
C20   C     C_R   0.059808 0.365029 0.474190 -0.008831
C21   C     C_R   0.970060 0.499999 0.500000 -0.023545
C22   C     C_R   0.029940 0.499999 0.500000 -0.023545
C23   C     C_R   0.970330 0.231285 0.448055 -0.168453
C24   C     C_R   0.029670 0.768713 0.551945 -0.168453
C25   C     C_R   0.970330 0.768713 0.551945 -0.168453
C26   C     C_R   0.029670 0.231285 0.448055 -0.168453
C27   C     C_1   0.500000 0.065195 0.499947 -0.180687
C28   C     C_1   0.500000 0.934805 0.500053 -0.180687
C29   C     C_R   0.237775 0.518261 0.350467 0.137594
C30   C     C_R   0.762225 0.481741 0.649534 0.137594
C31   C     C_R   0.237775 0.481737 0.649533 0.137594
C32   C     C_R   0.762225 0.518258 0.350466 0.137593
N3    N     N_1   0.500000 0.500000 0.073640 -0.033514
N4    N     N_1   0.500000 0.500000 0.926360 -0.033514
O9    O     O_2   0.850968 0.759853 0.548361 -0.539326
O10   O     O_2   0.149032 0.240146 0.451637 -0.539326
O11   O     O_2   0.850968 0.240145 0.451639 -0.539326
O12   O     O_2   0.149032 0.759853 0.548363 -0.539326
N5    N     N_3   0.208371 0.537810 0.197029 -0.445991
H9    H     H_    0.182354 0.444443 0.177361 0.209897
H10   H     H_    0.182216 0.632194 0.206828 0.208360
N6    N     N_3   0.791629 0.462196 0.802971 -0.445991
H11   H     H_    0.817784 0.367812 0.793175 0.208359
H12   H     H_    0.817646 0.555563 0.822638 0.209898
N7    N     N_3   0.208371 0.462189 0.802971 -0.445991
H13   H     H_    0.182354 0.555555 0.822640 0.209897
H14   H     H_    0.182217 0.367805 0.793172 0.208360
N8    N     N_3   0.791629 0.537802 0.197028 -0.445991
H15   H     H_    0.817784 0.632186 0.206825 0.208359
H16   H     H_    0.817646 0.444435 0.177362 0.209898

loop_
_geom_bond_atom_site_label_1
_geom_bond_atom_site_label_2
_geom_bond_distance
_ccdc_geom_bond_type
C10   C32   1.389039 A    
N6    H12   1.045220 S    
C9    C11   1.402011 A    
C18   C24   1.403578 A    
N6    H11   1.045315 S    
C6    C12   1.458166 S    
C3    C31   1.406469 A    
C5    C11   1.458166 S    
C21   C22   1.404525 A    
C9    C31   1.389039 A    
C27   C28   1.164151 T    
C32   N8    1.431971 S    
C8    C30   1.389039 A    
C19   C25   1.403577 A    
C31   N7    1.431971 S    
O3    Zn1   1.952471 S    
O6    Zn2   2.001319 S    
C7    C29   1.389039 A    
H1    C23   1.082871 S    
N8    H15   1.045315 S    
N5    H9    1.045223 S    
C19   C21   1.409354 A    
O3    C2    1.261140 A    
H2    C24   1.082871 S    
N3    N4    1.192759 T    
C20   C26   1.403579 A    
O8    C5    1.278893 A    
O5    Zn1   2.001321 S    
C4    C30   1.406468 A    
O7    C6    1.278892 A    
C17   C21   1.409354 A    
C14   N2    1.366289 A    
Zn1   N4    1.972654 S    
C20   C22   1.409355 A    
C15   N1    1.366287 A    
C16   N2    1.366288 A    
C13   C19   1.395900 A    
C1    C27   1.364038 S    
C9    H7    1.083687 S    
C3    C29   1.406469 A    
C4    N1    1.423152 S    
C2    C28   1.364038 S    
C30   N6    1.431971 S    
C23   C26   1.391866 A    
C13   N1    1.366289 A    
C17   C23   1.403578 A    
O1    Zn1   1.951955 S    
C10   C12   1.402009 A    
N5    H10   1.045315 S    
O7    Zn1   2.001319 S    
O2    Zn2   1.951954 S    
O4    Zn2   1.952472 S    
C18   C22   1.409354 A    
H3    C25   1.082870 S    
C3    N2    1.423152 S    
C14   C20   1.395898 A    
O1    C1    1.260914 A    
C24   C25   1.391866 A    
O8    Zn2   2.001321 S    
N8    H16   1.045222 S    
N7    H13   1.045223 S    
C8    H6    1.083686 S    
O6    C6    1.278893 A    
C16   O12   1.349896 S    
C7    H5    1.083687 S    
O5    C5    1.278892 A    
C15   O11   1.349896 S    
C8    C12   1.402010 A    
H4    C26   1.082871 S    
C13   O9    1.349895 S    
O4    C1    1.261140 A    
C16   C18   1.395900 A    
C7    C11   1.402011 A    
C14   O10   1.349897 S    
O2    C2    1.260914 A    
C15   C17   1.395900 A    
C4    C32   1.406468 A    
C10   H8    1.083685 S    
Zn2   N3    1.972654 S    
N7    H14   1.045317 S    
C29   N5    1.431972 S    
