data_mof_unit_50683.cif
_audit_creation_date              2012-12-11T15:12:44-0500
_audit_creation_method            fapswitch 2.2
_symmetry_space_group_name_H-M    P1
_symmetry_Int_Tables_number       1
_space_group_crystal_system       triclinic
_cell_length_a                    22.239883
_cell_length_b                    7.006998
_cell_length_c                    19.40287
_cell_angle_alpha                 89.998757
_cell_angle_beta                  99.294025
_cell_angle_gamma                 90.00023
_cell_volume                      2983.94999309

loop_
_atom_site_label
_atom_site_type_symbol
_atom_type_description
_atom_site_fract_x
_atom_site_fract_y
_atom_site_fract_z
_atom_type_partial_charge
O1    O     O_R   0.448420 0.506120 0.415750 -0.531879
O2    O     O_R   0.551580 0.006120 0.584250 -0.531891
O3    O     O_R   0.436490 0.174470 0.555610 -0.535037
O4    O     O_R   0.563510 0.674470 0.444390 -0.535023
C1    C     C_R   0.421485 0.343755 0.575937 0.733882
C2    C     C_R   0.578514 0.843758 0.424062 0.733901
O5    O     O_R   0.441310 0.176330 0.414520 -0.535380
O6    O     O_R   0.558690 0.676330 0.585480 -0.535371
O7    O     O_R   0.556430 0.007110 0.442150 -0.516656
O8    O     O_R   0.443570 0.507110 0.557850 -0.516651
C3    C     C_R   0.427531 0.344832 0.387960 0.779409
C4    C     C_R   0.572467 0.844829 0.612041 0.779382
O9    O     O_3   0.537770 0.339560 0.509230 -0.375046
O10   O     O_3   0.462230 0.839560 0.490770 -0.375053
V1    V     V_3+5 0.492990 0.064280 0.498290 1.618755
V2    V     V_3+5 0.507010 0.564280 0.501710 1.618789
C5    C     C_R   0.867907 0.941994 0.695376 -0.118358
C6    C     C_R   0.132093 0.442093 0.304623 -0.118361
H1    H     H_    0.955732 0.968681 0.759098 0.115312
H2    H     H_    0.044272 0.468829 0.240896 0.115315
H3    H     H_    0.784774 0.942053 0.581411 0.215288
H4    H     H_    0.215226 0.442178 0.418588 0.215280
H5    H     H_    0.886599 0.958008 0.647447 0.153791
H6    H     H_    0.113403 0.458178 0.352549 0.153796
C7    C     C_R   0.884471 0.938512 0.821604 -0.044570
C8    C     C_R   0.115529 0.438504 0.178396 -0.044577
C9    C     C_R   0.587838 0.821090 0.741841 0.385159
C10   C     C_R   0.412151 0.321067 0.258163 0.385609
C11   C     C_R   0.626039 0.785448 0.804833 -0.157388
C12   C     C_R   0.373949 0.285302 0.195184 -0.157008
C13   C     C_R   0.689634 0.784809 0.809738 -0.085952
C14   C     C_R   0.310355 0.284633 0.190286 -0.086262
C15   C     C_R   0.716703 0.848888 0.751963 0.001267
C16   C     C_R   0.283290 0.348804 0.248050 0.001285
C17   C     C_R   0.677690 0.868118 0.685740 -0.012793
C18   C     C_R   0.322305 0.368098 0.314267 -0.012810
C19   C     C_R   0.780839 0.888865 0.756243 0.081255
C20   C     C_R   0.219156 0.388813 0.243765 0.081282
C21   C     C_R   0.805074 0.914828 0.693472 0.100858
C22   C     C_R   0.194923 0.414864 0.306531 0.100842
C23   C     C_R   0.766472 0.918505 0.629181 -0.101362
C24   C     C_R   0.233527 0.418572 0.370822 -0.101350
C25   C     C_R   0.703851 0.900760 0.625429 -0.126699
C26   C     C_R   0.296147 0.400799 0.374575 -0.126663
C27   C     C_R   0.821469 0.914944 0.820252 -0.229718
C28   C     C_R   0.178528 0.414856 0.179752 -0.229703
C29   C     C_R   0.907342 0.949865 0.758868 -0.163098
C30   C     C_R   0.092659 0.449951 0.241130 -0.163099
C31   C     C_R   0.613271 0.850233 0.680684 -0.211204
C32   C     C_R   0.386724 0.350233 0.319320 -0.211407
H7    H     H_    0.805176 0.924510 0.869558 0.114272
H8    H     H_    0.194823 0.424337 0.130445 0.114266
H9    H     H_    0.605756 0.744120 0.849706 0.197183
H10   H     H_    0.394237 0.243915 0.150321 0.197670
H11   H     H_    0.676043 0.911916 0.574367 0.122756
H12   H     H_    0.323958 0.411997 0.425633 0.122756
C33   C     C_3   0.821727 0.823079 0.277104 -0.435006
C34   C     C_3   0.178269 0.323098 0.722893 -0.435028
C35   C     C_3   0.768698 0.118237 0.229702 -0.424003
C36   C     C_3   0.231305 0.618242 0.770297 -0.423991
C37   C     C_3   0.720394 0.093705 0.279934 0.328392
C38   C     C_3   0.279607 0.593706 0.720063 0.328308
H13   H     H_    0.857153 0.919566 0.305206 0.194047
H14   H     H_    0.142847 0.419598 0.694790 0.194032
H15   H     H_    0.747090 0.194195 0.181744 0.148288
H16   H     H_    0.252916 0.694186 0.818256 0.148335
H17   H     H_    0.808117 0.206227 0.253466 0.201578
H18   H     H_    0.191888 0.706246 0.746535 0.201566
H19   H     H_    0.676421 0.147078 0.250529 0.114962
H20   H     H_    0.323582 0.647070 0.749467 0.115198
C39   C     C_1   0.624367 0.849345 0.378803 0.009268
C40   C     C_1   0.375631 0.349339 0.621195 0.009291
C41   C     C_3   0.791762 0.920841 0.208425 0.074239
C42   C     C_3   0.208236 0.420847 0.791573 0.074247
C43   C     C_3   0.773115 0.775044 0.323444 0.357516
C44   C     C_3   0.226882 0.275054 0.676554 0.357520
C45   C     C_3   0.710747 0.878275 0.295668 -0.031249
C46   C     C_3   0.289251 0.378275 0.704329 -0.031323
C47   C     C_3   0.686943 0.784824 0.223441 -0.533256
C48   C     C_3   0.313053 0.284815 0.776557 -0.533161
C49   C     C_3   0.734846 0.804763 0.173023 -0.146584
C50   C     C_3   0.265151 0.304754 0.826975 -0.146645
C51   C     C_1   0.663130 0.856241 0.341281 0.176089
C52   C     C_1   0.336868 0.356238 0.658717 0.176238
C53   C     C_1   0.837565 0.939285 0.160246 0.006351
C54   C     C_1   0.162434 0.439294 0.839752 0.006352
C55   C     C_1   0.875388 0.944932 0.121457 -0.153720
C56   C     C_1   0.124612 0.444939 0.878541 -0.153719
H21   H     H_    0.712976 0.885892 0.126176 0.189479
H22   H     H_    0.287021 0.385873 0.873823 0.189505
H23   H     H_    0.675267 0.632384 0.230545 0.229328
H24   H     H_    0.324728 0.132374 0.769454 0.229352
H25   H     H_    0.845965 0.690501 0.265889 0.143688
H26   H     H_    0.154028 0.190524 0.734107 0.143688
H27   H     H_    0.764220 0.621931 0.314928 0.163068
H28   H     H_    0.235774 0.121938 0.685072 0.163084
H29   H     H_    0.643540 0.853818 0.199166 0.203908
H30   H     H_    0.356457 0.353803 0.800832 0.204067
O11   O     O_R   0.056480 0.288780 0.942210 -0.533967
O12   O     O_R   0.943520 0.788780 0.057790 -0.533970
O13   O     O_R   0.058700 0.616820 0.085490 -0.537753
O14   O     O_R   0.941300 0.116820 0.914510 -0.537756
C57   C     C_R   0.073089 0.448335 0.111613 0.695416
C58   C     C_R   0.926912 0.948338 0.888386 0.695411
O15   O     O_R   0.063520 0.618570 0.944410 -0.535632
O16   O     O_R   0.936480 0.118570 0.055590 -0.535633
O17   O     O_R   0.948420 0.787670 0.915740 -0.536442
O18   O     O_R   0.051580 0.287670 0.084260 -0.536443
C59   C     C_R   0.078892 0.450583 0.924194 0.723145
C60   C     C_R   0.921107 0.950581 0.075805 0.723144
O19   O     O_3   0.962260 0.453430 0.990800 -0.366979
O20   O     O_3   0.037740 0.953430 0.009200 -0.366975
V3    V     V_3+5 0.007000 0.728750 0.001710 1.460547
V4    V     V_3+5 0.993000 0.228750 0.998290 1.460540
S1    S     S_3+6 0.733173 0.245507 0.356463 0.043263
O21   O     O_2   0.723161 0.143991 0.421863 -0.289494
O22   O     O_2   0.796841 0.323242 0.367568 -0.285581
O23   O     O_3   0.682333 0.424281 0.343060 -0.524994
H31   H     H_    0.674593 0.460882 0.390140 0.376958
S2    S     S_3+6 0.266828 0.745518 0.643534 0.043287
O24   O     O_2   0.276844 0.644010 0.578135 -0.289535
O25   O     O_2   0.203159 0.823246 0.632426 -0.285569
O26   O     O_3   0.317665 0.924301 0.656940 -0.524953
H32   H     H_    0.325453 0.960793 0.609866 0.376951
C61   C     C_2   0.752446 0.611183 0.148605 0.456485
H33   H     H_    0.776588 0.511342 0.185669 0.021972
O27   O     O_2   0.740066 0.566228 0.087174 -0.485399
C62   C     C_2   0.247545 0.111174 0.851392 0.456557
H34   H     H_    0.223406 0.011336 0.814324 0.021951
O28   O     O_2   0.259916 0.066215 0.912824 -0.485362
S3    S     S_3+6 0.507912 0.810964 0.740365 0.015179
O29   O     O_2   0.477472 0.975263 0.698815 -0.313042
O30   O     O_2   0.483657 0.627600 0.706567 -0.358081
O31   O     O_3   0.491133 0.821852 0.821815 -0.478410
H35   H     H_    0.491248 0.687704 0.837955 0.351784
S4    S     S_3+6 0.492073 0.311115 0.259618 0.015006
O32   O     O_2   0.522490 0.475492 0.301139 -0.313097
O33   O     O_2   0.516373 0.127810 0.293431 -0.358308
O34   O     O_3   0.508805 0.322021 0.178145 -0.478603
H36   H     H_    0.509321 0.187670 0.162272 0.352065
C63   C     C_2   0.724720 0.685580 0.871017 0.422872
H37   H     H_    0.767272 0.614525 0.866573 0.049150
O35   O     O_2   0.705929 0.678492 0.926738 -0.482269
C64   C     C_2   0.275265 0.185291 0.129039 0.422986
H38   H     H_    0.232700 0.114340 0.133496 0.049143
O36   O     O_2   0.294069 0.177969 0.073334 -0.482228
S5    S     S_3+6 0.804716 0.789893 0.415299 0.093678
O37   O     O_2   0.756068 0.756456 0.459373 -0.316967
O38   O     O_2   0.852057 0.636475 0.432024 -0.288289
O39   O     O_3   0.838738 0.000697 0.436740 -0.421073
H39   H     H_    0.881763 0.983738 0.430597 0.352797
S6    S     S_3+6 0.195283 0.289906 0.584698 0.093715
O40   O     O_2   0.243931 0.256455 0.540626 -0.316927
O41   O     O_2   0.147938 0.136498 0.567974 -0.288283
O42   O     O_3   0.161265 0.500715 0.563251 -0.421071
H40   H     H_    0.118244 0.483788 0.569418 0.352786

loop_
_geom_bond_atom_site_label_1
_geom_bond_atom_site_label_2
_ccdc_geom_bond_type
C12   C14   A    
O12   C60   A    
C9    C11   A    
C9    S3    S    
S5    O37   D    
O1    C3    A    
S3    O31   S    
O2    C4    A    
C62   H34   S    
O11   V4    S    
O20   V4    S    
C4    C31   S    
C43   H27   S    
O26   H32   S    
C21   C23   A    
C55   C60   S    
O5    C3    A    
C12   H10   S    
C5    H5    S    
O16   V4    S    
C6    H6    S    
O15   V3    S    
S5    O38   D    
C44   C46   S    
C1    C40   S    
C63   O35   D    
O16   C60   A    
C54   C56   T    
C27   H7    S    
C33   C41   S    
S1    O21   D    
O11   C59   A    
C28   H8    S    
O13   V3    S    
C38   H20   S    
C36   C38   S    
C5    C21   A    
O18   V4    S    
C36   C42   S    
C6    C22   A    
O23   H31   S    
O17   V3    S    
C35   H17   S    
C10   C32   A    
C37   C45   S    
S1    O22   D    
C17   C31   A    
C13   C15   A    
C57   O18   A    
C17   C25   A    
C35   C41   S    
C38   S2    S    
S2    O26   S    
C8    C30   A    
O3    C1    A    
C49   C61   S    
O6    V2    S    
O5    V1    S    
C36   H16   S    
O13   C57   A    
C33   H25   S    
C23   C25   A    
C24   C26   A    
C2    O7    A    
S4    O34   S    
C41   C49   S    
O20   V3    S    
S2    O25   D    
C33   H13   S    
C39   C51   T    
C53   C55   T    
C34   H14   S    
C2    C39   S    
C35   C37   S    
C20   C28   A    
C34   C44   S    
S5    O39   S    
C48   C50   S    
C47   C49   S    
S4    O32   D    
C43   S5    S    
C15   C19   A    
C6    C30   A    
C14   C16   A    
C48   H24   S    
C37   S1    S    
O14   V4    S    
C8    C57   S    
C26   H12   S    
S6    O42   S    
O6    C4    A    
S1    O23   S    
C41   C53   S    
C45   C47   S    
H1    C29   S    
O19   V3    S    
O1    V2    S    
C40   C52   T    
C42   C54   S    
O14   C58   A    
O2    V1    S    
C43   C45   S    
C50   C62   S    
H2    C30   S    
H3    C23   S    
C56   C59   S    
C64   O36   D    
C13   C63   S    
S6    O41   D    
O9    V1    S    
C61   H33   S    
O10   V2    S    
C18   C26   A    
O4    C2    A    
O4    V2    S    
C19   C27   A    
S3    O29   D    
C7    C27   A    
C18   C32   A    
S2    O24   D    
C34   C42   S    
S4    O33   D    
C42   C50   S    
C37   H19   S    
O15   C59   A    
C7    C29   A    
C48   H30   S    
C16   C20   A    
C47   H23   S    
C38   C46   S    
O12   V3    S    
C5    C29   A    
C64   H38   S    
S3    O30   D    
C62   O28   D    
O34   H36   S    
C7    C58   S    
C47   H29   S    
O31   H35   S    
C25   H11   S    
C44   S6    S    
C50   H22   S    
C10   S4    S    
C33   C43   S    
C10   C12   A    
C34   H26   S    
C49   H21   S    
C1    O8    A    
C19   C21   A    
C3    C32   S    
O8    V2    S    
C63   H37   S    
C35   H15   S    
C20   C22   A    
H4    C24   S    
C11   H9    S    
C22   C24   A    
C15   C17   A    
C16   C18   A    
O19   V4    S    
C46   C48   S    
O7    V1    S    
C14   C64   S    
C8    C28   A    
C46   C52   S    
S6    O40   D    
C36   H18   S    
C11   C13   A    
O9    V2    S    
O42   H40   S    
C61   O27   D    
C45   C51   S    
O10   V1    S    
O3    V1    S    
C58   O17   A    
C44   H28   S    
C9    C31   A    
O39   H39   S    
