data_mof_unit_9268.cif
_audit_creation_date              2012-12-11T16:28:28-0500
_audit_creation_method            fapswitch 2.2
_symmetry_space_group_name_H-M    P1
_symmetry_Int_Tables_number       1
_space_group_crystal_system       triclinic
_cell_length_a                    16.57913
_cell_length_b                    7.253934
_cell_length_c                    15.187772
_cell_angle_alpha                 89.984941
_cell_angle_beta                  94.792376
_cell_angle_gamma                 90.020196
_cell_volume                      1820.1551402

loop_
_atom_site_label
_atom_site_type_symbol
_atom_type_description
_atom_site_fract_x
_atom_site_fract_y
_atom_site_fract_z
_atom_type_partial_charge
O1    O     O_R   0.663460 0.361760 0.165970 -0.532696
O2    O     O_R   0.336540 0.638240 0.834030 -0.532695
O3    O     O_R   0.836540 0.861760 0.334030 -0.532988
O4    O     O_R   0.163460 0.138240 0.665970 -0.532988
O5    O     O_R   0.827100 0.689870 0.163730 -0.529821
O6    O     O_R   0.172900 0.310130 0.836270 -0.529821
O7    O     O_R   0.672900 0.189870 0.336270 -0.530524
O8    O     O_R   0.327100 0.810130 0.663730 -0.530524
H1    H     H_    0.212132 0.976727 0.493905 0.111470
H2    H     H_    0.787868 0.023273 0.506094 0.111471
H3    H     H_    0.288203 0.545739 0.002506 0.110971
H4    H     H_    0.711797 0.454261 0.997494 0.110971
C1    C     C_R   0.853277 0.522973 0.143567 0.705337
C2    C     C_R   0.146723 0.477027 0.856433 0.705337
C3    C     C_R   0.646719 0.022911 0.356422 0.705315
C4    C     C_R   0.353281 0.977089 0.643578 0.705315
O9    O     O_R   0.663490 0.691370 0.155500 -0.534456
O10   O     O_R   0.336510 0.308630 0.844500 -0.534455
O11   O     O_R   0.836510 0.191370 0.344500 -0.534335
O12   O     O_R   0.163490 0.808630 0.655500 -0.534335
O13   O     O_R   0.671770 0.863320 0.325740 -0.532071
O14   O     O_R   0.328230 0.136680 0.674260 -0.532071
O15   O     O_R   0.828230 0.363320 0.174260 -0.531625
O16   O     O_R   0.171770 0.636680 0.825740 -0.531624
C5    C     C_R   0.636247 0.522853 0.133709 0.675776
C6    C     C_R   0.363753 0.477147 0.866291 0.675776
C7    C     C_R   0.863712 0.022845 0.366335 0.675537
C8    C     C_R   0.136288 0.977155 0.633665 0.675537
O17   O     O_3   0.752910 0.528800 0.305860 -0.372607
O18   O     O_3   0.247090 0.471200 0.694140 -0.372607
O19   O     O_3   0.747090 0.028800 0.194140 -0.371678
O20   O     O_3   0.252910 0.971200 0.805860 -0.371678
V1    V     V_3+5 0.749460 0.803010 0.239640 1.475709
V2    V     V_3+5 0.250540 0.196990 0.760360 1.475710
V3    V     V_3+5 0.750540 0.303010 0.260360 1.475382
V4    V     V_3+5 0.249460 0.696990 0.739640 1.475382
C9    C     C_1   0.468819 0.994804 0.530109 0.083408
C10   C     C_1   0.531181 0.005196 0.469891 0.083408
C11   C     C_1   0.031181 0.494723 0.969899 0.077879
C12   C     C_1   0.968819 0.505277 0.030101 0.077878
H5    H     H_    0.765872 0.013089 0.662196 0.171396
H6    H     H_    0.234128 0.986910 0.337804 0.171396
H7    H     H_    0.733483 0.388174 0.844466 0.166767
H8    H     H_    0.266517 0.611825 0.155534 0.166767
C13   C     C_R   0.028931 0.009463 0.318866 -0.168918
C14   C     C_R   0.971069 0.990537 0.681134 -0.168918
C15   C     C_R   0.471488 0.578824 0.177387 -0.167288
C16   C     C_R   0.528512 0.421176 0.822613 -0.167288
C17   C     C_R   0.107848 0.002587 0.293595 0.205577
C18   C     C_R   0.892152 0.997413 0.706405 0.205577
C19   C     C_R   0.392726 0.604094 0.200979 0.207250
C20   C     C_R   0.607274 0.395906 0.799021 0.207250
C21   C     C_R   0.172898 0.991280 0.357434 -0.101075
C22   C     C_R   0.827102 0.008720 0.642566 -0.101075
C23   C     C_R   0.327649 0.592363 0.137183 -0.099903
C24   C     C_R   0.672351 0.407637 0.862817 -0.099903
C25   C     C_R   0.159587 0.985772 0.446800 -0.157407
C26   C     C_R   0.840413 0.014228 0.553200 -0.157407
C27   C     C_R   0.340790 0.554597 0.049557 -0.156806
C28   C     C_R   0.659210 0.445402 0.950443 -0.156806
C29   C     C_R   0.080232 0.992165 0.474374 0.063142
C30   C     C_R   0.919768 0.007835 0.525626 0.063142
C31   C     C_R   0.419975 0.527708 0.023741 0.064408
C32   C     C_R   0.580025 0.472292 0.976259 0.064408
C33   C     C_R   0.013533 0.004749 0.409099 0.030120
C34   C     C_R   0.986467 0.995251 0.590901 0.030120
C35   C     C_R   0.486716 0.540456 0.088946 0.030053
C36   C     C_R   0.513284 0.459544 0.911054 0.030053
C37   C     C_R   0.066731 0.987127 0.565289 -0.141621
C38   C     C_R   0.933269 0.012873 0.434711 -0.141621
C39   C     C_R   0.433212 0.487036 0.934791 -0.141814
C40   C     C_R   0.566788 0.512964 0.065209 -0.141814
C41   C     C_1   0.415992 0.986260 0.581456 -0.140675
C42   C     C_1   0.584008 0.013740 0.418544 -0.140675
C43   C     C_1   0.084011 0.486105 0.918558 -0.142776
C44   C     C_1   0.915989 0.513895 0.081442 -0.142775
H9    H     H_    0.980147 0.018907 0.267094 0.128191
H10   H     H_    0.019853 0.981093 0.732906 0.128191
H11   H     H_    0.520258 0.588767 0.229145 0.128863
H12   H     H_    0.479741 0.411233 0.770855 0.128863
I1    I     I_    0.128750 0.009602 0.158385 -0.426623
I2    I     I_    0.871250 0.990398 0.841615 -0.426623
I3    I     I_    0.372131 0.658070 0.333784 -0.444846
I4    I     I_    0.627869 0.341930 0.666216 -0.444846

loop_
_geom_bond_atom_site_label_1
_geom_bond_atom_site_label_2
_ccdc_geom_bond_type
C26   C30   A    
C23   C27   A    
C8    C37   S    
O10   C6    A    
C15   H11   S    
C1    O15   A    
C18   C22   A    
C2    O16   A    
C32   C36   A    
H2    C26   S    
C14   C34   A    
H6    C21   S    
C22   C26   A    
C34   C37   A    
O13   V1    S    
O3    V1    S    
O2    V4    S    
C33   C38   A    
C30   C38   A    
C35   C40   A    
O8    V4    S    
C17   I1    S    
C20   I4    S    
C9    C41   T    
C12   C44   T    
O5    V1    S    
O19   V1    S    
C11   C43   T    
O11   C7    A    
O5    C1    A    
O7    C3    A    
O8    C4    A    
O1    C5    A    
C6    C39   S    
O9    V1    S    
H3    C27   S    
C15   C35   A    
O4    C8    A    
O4    V2    S    
O14   V2    S    
C31   C35   A    
C30   C34   A    
C4    C41   S    
H1    C25   S    
C11   C12   S    
C14   H10   S    
O1    V3    S    
C21   C25   A    
C15   C19   A    
O12   C8    A    
O6    V2    S    
O20   V2    S    
C9    C10   S    
O6    C2    A    
C1    C44   S    
C13   C17   A    
O2    C6    A    
C5    C40   S    
O16   V4    S    
C16   C36   A    
O10   V2    S    
C7    C38   S    
H4    C28   S    
C31   C39   A    
O15   V3    S    
C13   C33   A    
C19   I3    S    
C18   I2    S    
C10   C42   T    
C29   C37   A    
C14   C18   A    
C4    O14   A    
O7    V3    S    
C25   C29   A    
O17   V3    S    
C27   C31   A    
O18   V4    S    
C28   C32   A    
O9    C5    A    
C2    C43   S    
C16   H12   S    
O3    C7    A    
O11   V3    S    
H8    C23   S    
C3    O13   A    
C36   C39   A    
C17   C21   A    
C19   C23   A    
C32   C40   A    
H5    C22   S    
O12   V4    S    
C29   C33   A    
H7    C24   S    
C16   C20   A    
C3    C42   S    
C24   C28   A    
C13   H9    S    
C20   C24   A    
