data_mof_unit_20959.cif
_audit_creation_date              2013-03-05T16:12:52-0500
_audit_creation_method            fapswitch 2.2
_symmetry_space_group_name_H-M    P1
_symmetry_Int_Tables_number       1
_space_group_crystal_system       triclinic
_cell_length_a                    10.827743
_cell_length_b                    9.970415
_cell_length_c                    27.542405
_cell_angle_alpha                 88.383665
_cell_angle_beta                  94.708786
_cell_angle_gamma                 87.566099
_cell_volume                      2959.188754

loop_
_atom_site_label
_atom_site_type_symbol
_atom_site_description
_atom_site_fract_x
_atom_site_fract_y
_atom_site_fract_z
_atom_type_partial_charge
O1    O     O_R   0.316770 0.614620 0.500000 -0.643486
O2    O     O_R   0.683230 0.385380 0.500000 -0.650575
O3    O     O_R   0.683230 0.614620 0.500000 -0.617743
O4    O     O_R   0.316770 0.385380 0.500000 -0.618392
C1    C     C_R   0.260316 0.502861 0.500723 0.825610
C2    C     C_R   0.739675 0.496848 0.499219 0.812396
O5    O     O_R   0.500030 0.614650 0.428760 -0.624141
O6    O     O_R   0.499970 0.385350 0.571240 -0.624425
O7    O     O_R   0.499970 0.614650 0.571240 -0.610822
O8    O     O_R   0.500030 0.385350 0.428760 -0.612593
C3    C     C_R   0.501239 0.501465 0.406303 0.873844
C4    C     C_R   0.500219 0.498453 0.593694 0.880707
Zn1   Zn    Zn3+2 0.500000 0.653120 0.500000 0.946510
Zn2   Zn    Zn3+2 0.500000 0.346880 0.500000 0.943521
C5    C     C_R   0.485068 0.400951 0.177626 0.529505
C6    C     C_R   0.582328 0.594709 0.823782 0.525353
O9    O     O_2   0.418372 0.315398 0.202437 -0.559009
O10   O     O_2   0.597191 0.706802 0.796773 -0.551642
N1    N     N_R   0.540419 0.502766 0.202068 -0.349305
N2    N     N_R   0.549989 0.480812 0.800394 -0.349956
C7    C     C_R   0.612267 0.591050 0.180022 0.521084
C8    C     C_R   0.532342 0.363564 0.824878 0.525654
C9    C     C_R   0.626772 0.457901 0.284758 -0.148942
C10   C     C_R   0.424693 0.517425 0.723748 -0.147585
C11   C     C_R   0.619141 0.454322 0.334809 0.112909
C12   C     C_R   0.410186 0.524211 0.673060 0.115119
C13   C     C_R   0.407673 0.556720 0.321938 0.058604
C14   C     C_R   0.632278 0.462804 0.671322 0.072697
C15   C     C_R   0.419343 0.563688 0.271179 0.229917
C16   C     C_R   0.644780 0.455475 0.722743 0.223362
C17   C     C_R   0.529052 0.511372 0.253203 0.238549
C18   C     C_R   0.539774 0.483105 0.748380 0.240812
C19   C     C_R   0.573991 0.476862 0.104211 -0.093022
C20   C     C_R   0.582149 0.472015 0.901103 -0.093279
C21   C     C_R   0.498844 0.385580 0.127451 -0.046142
C22   C     C_R   0.600430 0.593847 0.875244 -0.044688
C23   C     C_R   0.439622 0.285208 0.099411 0.181772
C24   C     C_R   0.634052 0.708889 0.901911 0.174813
C25   C     C_R   0.630926 0.579689 0.130762 -0.012442
C26   C     C_R   0.547987 0.356664 0.875666 -0.009449
C27   C     C_R   0.509188 0.504256 0.353720 -0.070748
C28   C     C_R   0.513890 0.494501 0.646682 -0.066369
C29   C     C_R   0.563415 0.348261 0.978045 0.055338
C30   C     C_R   0.655015 0.567228 0.030109 0.051804
C31   C     C_R   0.637616 0.577046 0.978525 0.032823
C32   C     C_R   0.541150 0.360024 0.027757 0.032903
C33   C     C_R   0.595707 0.465398 0.952550 0.041041
C34   C     C_R   0.591017 0.467235 0.054127 0.040004
C35   C     C_R   0.547146 0.228248 0.951951 -0.015327
C36   C     C_R   0.726437 0.657118 0.058826 -0.031069
C37   C     C_R   0.534840 0.235354 0.901155 -0.233868
C38   C     C_R   0.709209 0.665882 0.108272 -0.214107
O11   O     O_2   0.500582 0.253895 0.799880 -0.545971
O12   O     O_2   0.665573 0.689327 0.205955 -0.546994
C39   C     C_R   0.460730 0.275593 0.050225 -0.115041
C40   C     C_R   0.649849 0.698724 0.952789 -0.126693
H1    H     H_    0.345979 0.539782 0.744548 0.162536
H2    H     H_    0.709601 0.417530 0.269767 0.165515
H3    H     H_    0.518397 0.144297 0.881453 0.182344
H4    H     H_    0.760898 0.737691 0.129655 0.187499
H5    H     H_    0.408697 0.204710 0.028782 0.145568
H6    H     H_    0.666715 0.789279 0.972473 0.164224
C41   C     C_R   0.075143 0.400733 0.527701 -0.058952
C42   C     C_R   0.924384 0.596154 0.470683 -0.057030
C43   C     C_R   0.947136 0.388466 0.522179 -0.021593
C44   C     C_R   0.052589 0.607013 0.475463 -0.017964
C45   C     C_R   0.872244 0.490319 0.495879 -0.235099
C46   C     C_R   0.127396 0.507744 0.503072 -0.233046
C47   C     C_R   0.568484 0.066402 0.535670 0.163815
C48   C     C_R   0.431447 0.933735 0.464392 0.173111
C49   C     C_R   0.428060 0.077373 0.465200 0.239897
C50   C     C_R   0.571958 0.922672 0.534824 0.237026
N3    N     N_R   0.500000 0.857200 0.500000 -0.114270
N4    N     N_R   0.500000 0.142800 0.500000 -0.115153
C51   C     C_3   0.285559 0.600802 0.341101 -0.798975
H7    H     H_    0.208631 0.547052 0.322319 0.252177
H8    H     H_    0.281850 0.578116 0.380503 0.233592
H9    H     H_    0.268351 0.710573 0.334542 0.266622
C52   C     C_3   0.746461 0.439081 0.643782 -0.829723
H10   H     H_    0.817368 0.511830 0.654960 0.244081
H11   H     H_    0.785037 0.335487 0.652121 0.284728
H12   H     H_    0.728831 0.451316 0.603766 0.225746
C53   C     C_3   0.631260 0.135281 0.578403 -0.771834
H13   H     H_    0.664212 0.232205 0.566803 0.277172
H14   H     H_    0.564962 0.149732 0.606669 0.249620
H15   H     H_    0.715245 0.080460 0.595489 0.236448
C54   C     C_3   0.368189 0.865240 0.421769 -0.794669
H16   H     H_    0.337821 0.767234 0.433268 0.279326
H17   H     H_    0.282317 0.918675 0.405719 0.233515
H18   H     H_    0.433166 0.853452 0.392887 0.248585
C55   C     C_3   0.339504 0.154454 0.428127 -0.768102
H19   H     H_    0.332278 0.262130 0.432664 0.283180
H20   H     H_    0.366892 0.136996 0.390759 0.226921
H21   H     H_    0.243683 0.121971 0.431465 0.221183
C56   C     C_3   0.660342 0.845546 0.571944 -0.770499
H22   H     H_    0.667906 0.737920 0.567290 0.283631
H23   H     H_    0.756122 0.878436 0.568820 0.221143
H24   H     H_    0.632457 0.862504 0.609275 0.230018
C57   C     C_3   0.314977 0.625206 0.236555 -0.815922
H25   H     H_    0.290450 0.728519 0.247601 0.241646
H26   H     H_    0.339813 0.633465 0.198371 0.232700
H27   H     H_    0.232377 0.563151 0.237066 0.249328
C58   C     C_3   0.769816 0.419182 0.749913 -0.815849
H28   H     H_    0.767125 0.414320 0.790033 0.232719
H29   H     H_    0.804209 0.318902 0.739043 0.247691
H30   H     H_    0.837399 0.495289 0.741413 0.242335
C59   C     C_3   0.351873 0.188002 0.119635 -0.745658
H31   H     H_    0.312380 0.120775 0.091443 0.207259
H32   H     H_    0.401914 0.122283 0.148685 0.274536
H33   H     H_    0.272518 0.244024 0.133941 0.258739
C60   C     C_3   0.653894 0.844105 0.878216 -0.754683
H34   H     H_    0.681556 0.919940 0.905312 0.204712
H35   H     H_    0.730112 0.835149 0.853741 0.277612
H36   H     H_    0.566756 0.883572 0.857711 0.259831
C61   C     C_3   0.282987 0.564123 0.649098 -0.877531
H37   H     H_    0.279287 0.569990 0.608793 0.225069
H38   H     H_    0.215547 0.490036 0.659722 0.239476
H39   H     H_    0.253261 0.664498 0.661558 0.261706
C62   C     C_3   0.730967 0.395888 0.365913 -0.870381
H40   H     H_    0.720981 0.399063 0.405388 0.239239
H41   H     H_    0.748174 0.289346 0.356739 0.262976
H42   H     H_    0.813767 0.452751 0.358490 0.236332
C63   C     C_2   0.557414 0.091733 0.975298 0.338148
H43   H     H_    0.513231 0.009050 0.957053 0.063122
O13   O     O_2   0.620056 0.068854 0.013798 -0.563552
C64   C     C_2   0.831141 0.730580 0.041001 0.401294
H44   H     H_    0.862119 0.819847 0.059199 0.089111
O14   O     O_2   0.887976 0.688486 0.007646 -0.547507
C65   C     C_2   0.155526 0.302705 0.559631 0.553882
H45   H     H_    0.228191 0.338711 0.584755 0.048502
O15   O     O_2   0.146342 0.181697 0.555870 -0.541950
C66   C     C_2   0.843819 0.692615 0.438122 0.542969
H46   H     H_    0.767406 0.655941 0.414969 0.059104
O16   O     O_2   0.857982 0.813440 0.438806 -0.547531
C67   C     C_2   0.893520 0.268185 0.543589 0.455331
H47   H     H_    0.838014 0.203728 0.520367 0.103280
O17   O     O_2   0.913944 0.238319 0.586871 -0.587485
C68   C     C_2   0.106837 0.721467 0.450800 0.456047
H48   H     H_    0.157264 0.793760 0.472390 0.100088
O18   O     O_2   0.091955 0.737626 0.406566 -0.581883

loop_
_geom_bond_atom_site_label_1
_geom_bond_atom_site_label_2
_geom_bond_distance
_ccdc_geom_bond_type
C9    H2    1.084602 S    
C44   C46   1.415007 A    
C54   H16   1.090966 S    
C41   C43   1.392835 A    
C64   H44   1.085723 S    
C13   C15   1.414047 A    
C61   H38   1.110490 S    
C56   H22   1.084731 S    
O3    C2    1.302096 A    
N1    C17   1.428434 S    
C52   H12   1.105409 S    
C56   H24   1.110567 S    
C67   H47   1.084511 S    
C9    C11   1.387287 A    
O5    C3    1.302192 A    
C29   C32   1.416815 A    
C19   C25   1.409917 A    
O1    C1    1.293938 A    
Zn2   N4    2.034762 S    
N1    C7    1.361711 A    
C10   C12   1.391425 A    
C23   C59   1.512274 S    
C7    O12   1.350293 S    
C63   O13   1.221325 D    
C61   H37   1.107348 S    
C35   C63   1.484759 S    
C67   O17   1.220553 D    
C14   C52   1.516277 S    
O7    Zn1   1.988640 S    
C12   C61   1.510031 S    
C4    C28   1.454021 S    
C38   H4    1.084625 S    
C50   C56   1.511606 S    
C42   C66   1.497280 S    
C31   C40   1.404407 A    
C10   H1    1.084215 S    
C35   C37   1.393937 A    
C44   C68   1.478987 S    
C32   C39   1.403983 A    
C36   C38   1.394318 A    
C59   H31   1.110965 S    
C48   C49   1.431897 A    
C36   C64   1.484732 S    
C58   H30   1.109679 S    
C66   H46   1.084950 S    
O3    Zn1   2.004693 S    
C6    N2    1.365706 A    
C62   H41   1.110414 S    
C25   C38   1.399554 A    
C59   H32   1.110054 S    
O2    C2    1.291380 A    
C1    C46   1.444802 S    
C13   C51   1.516009 S    
C48   C54   1.505528 S    
C11   C62   1.510320 S    
C5    C21   1.413969 A    
C51   H9    1.109595 S    
C8    O11   1.350344 S    
C31   C33   1.411170 A    
C32   C34   1.410712 A    
C15   C57   1.514538 S    
C42   C45   1.409758 A    
C63   H43   1.085536 S    
C60   H35   1.109921 S    
O8    Zn2   1.988645 S    
C11   C27   1.415139 A    
C55   H19   1.084586 S    
C52   H11   1.108276 S    
C29   C35   1.423025 A    
O6    Zn2   2.009870 S    
C43   C45   1.416218 A    
C9    C17   1.390728 A    
C16   C58   1.516797 S    
C47   C50   1.432844 A    
C5    N1    1.366340 A    
C51   H7    1.109698 S    
C10   C18   1.393524 A    
C47   C53   1.507582 S    
C55   H20   1.110571 S    
C13   C27   1.419652 A    
C53   H13   1.092631 S    
C7    C25   1.395023 A    
O6    C4    1.301340 A    
C61   H39   1.110437 S    
C8    C26   1.394574 A    
C53   H15   1.104619 S    
C48   N3    1.373047 A    
C24   C40   1.397977 A    
C47   N4    1.373123 A    
C58   H29   1.109752 S    
C51   H8    1.106608 S    
C43   C67   1.482704 S    
C68   O18   1.220937 D    
C66   O16   1.221321 D    
C2    C45   1.444729 S    
C53   H14   1.109720 S    
Zn1   N3    2.034762 S    
C54   H17   1.104957 S    
C59   H33   1.110288 S    
C40   H6    1.080653 S    
C37   H3    1.084468 S    
C30   C31   1.417835 A    
C12   C28   1.412173 A    
C65   H45   1.084137 S    
N2    C18   1.427239 S    
C62   H42   1.110734 S    
C30   C36   1.423135 A    
C5    O9    1.347807 S    
C41   C46   1.411419 A    
C64   O14   1.221257 D    
C60   H34   1.110267 S    
C21   C23   1.423351 A    
N2    C8    1.361423 A    
C50   N3    1.381646 A    
C49   N4    1.380879 A    
C62   H40   1.102598 S    
C56   H23   1.110149 S    
C26   C37   1.399704 A    
C57   H25   1.109885 S    
C22   C24   1.423635 A    
C14   C16   1.411130 A    
C15   C17   1.409547 A    
C6    C22   1.414564 A    
C55   H21   1.110098 S    
C16   C18   1.408325 A    
O4    C1    1.299447 A    
C39   H5    1.080928 S    
C14   C28   1.419252 A    
C19   C21   1.419731 A    
C3    C27   1.457412 S    
C60   H36   1.110167 S    
C20   C22   1.420126 A    
C41   C65   1.496593 S    
O4    Zn2   2.004693 S    
O2    Zn2   2.036703 S    
O7    C4    1.297577 A    
O8    C3    1.298184 A    
C52   H10   1.109707 S    
C23   C39   1.397485 A    
O1    Zn1   2.036703 S    
O5    Zn1   2.009876 S    
C57   H27   1.109725 S    
C49   C55   1.511635 S    
C6    O10   1.347729 S    
C54   H18   1.109835 S    
C58   H28   1.107527 S    
C19   C34   1.411999 A    
C20   C26   1.410476 A    
C20   C33   1.411900 A    
C24   C60   1.512463 S    
C29   C33   1.417060 A    
C57   H26   1.108391 S    
C68   H48   1.084243 S    
C30   C34   1.417206 A    
C42   C44   1.392709 A    
C65   O15   1.221399 D    
