data_mof_unit_39312.cif
_audit_creation_date              2012-10-26T19:20:39-0400
_audit_creation_method            fapswitch 2.2
_symmetry_space_group_name_H-M    P1
_symmetry_Int_Tables_number       1
_space_group_crystal_system       triclinic
_cell_length_a                    10.803552
_cell_length_b                    10.825973
_cell_length_c                    9.798694
_cell_angle_alpha                 110.012074
_cell_angle_beta                  98.542856
_cell_angle_gamma                 90.196999
_cell_volume                      1063.08175152

loop_
_atom_site_label
_atom_site_type_symbol
_atom_type_description
_atom_site_fract_x
_atom_site_fract_y
_atom_site_fract_z
_atom_type_partial_charge
C1    C     C_R   0.486536 0.253012 0.442543 0.549604
C2    C     C_R   0.737012 0.499885 0.498932 0.522917
C3    C     C_R   0.150446 0.734652 0.663385 -0.048657
C4    C     C_R   0.850518 0.263055 0.348090 -0.068850
C5    C     C_R   0.095609 0.850262 0.735435 -0.094825
C6    C     C_R   0.905092 0.147318 0.275698 -0.091305
C7    C     C_R   0.966259 0.851729 0.727441 -0.120768
C8    C     C_R   0.033731 0.147364 0.276634 -0.115855
C9    C     C_R   0.891377 0.737231 0.648558 -0.098238
C10   C     C_R   0.108276 0.263029 0.350310 -0.097508
C11   C     C_R   0.945170 0.617775 0.576372 0.010003
C12   C     C_R   0.501503 0.746901 0.557563 0.519078
C13   C     C_R   0.054908 0.382131 0.424656 0.006525
C14   C     C_R   0.076199 0.616870 0.581915 0.025777
C15   C     C_R   0.924274 0.382264 0.422638 0.003292
C16   C     C_R   0.870622 0.500338 0.497424 -0.014100
C17   C     C_R   0.129518 0.499583 0.503695 -0.001442
C18   C     C_2   0.300477 0.846543 0.385290 0.229577
C19   C     C_2   0.324995 0.157811 0.604328 0.274041
C20   C     C_2   0.583638 0.978683 0.707362 0.231094
C21   C     C_2   0.528766 0.016180 0.298020 0.188474
C22   C     C_2   0.469711 0.111241 0.416795 -0.042736
C23   C     C_2   0.490788 0.888697 0.584777 -0.000487
C24   C     C_2   0.405298 0.070155 0.504786 -0.033885
C25   C     C_2   0.403854 0.931411 0.496167 0.010441
C26   C     C_2   0.510172 0.511084 0.081056 0.003822
C27   C     C_2   0.489241 0.489715 0.919252 0.016365
C28   C     C_R   0.262983 0.500239 0.501281 0.542089
Cu1   Cu    Cu3+1 0.521920 0.521810 0.644910 0.957823
Cu2   Cu    Cu3+1 0.478080 0.478190 0.355090 1.007250
H1    H     H_    0.076162 0.057249 0.221002 0.112810
H2    H     H_    0.377439 0.376770 0.066329 0.230948
H3    H     H_    0.791149 0.743954 0.644025 0.115491
H4    H     H_    0.207979 0.257138 0.349464 0.106527
H5    H     H_    0.258512 0.876886 0.294901 0.089313
H6    H     H_    0.303284 0.253786 0.599050 0.101838
H7    H     H_    0.656302 0.936908 0.764399 0.104607
H8    H     H_    0.524433 0.911635 0.280374 0.099360
H9    H     H_    0.923654 0.941972 0.782258 0.128652
H10   H     H_    0.251289 0.739638 0.671526 0.164825
H11   H     H_    0.750385 0.257581 0.345946 0.179363
H12   H     H_    0.153739 0.939294 0.796765 0.166823
H13   H     H_    0.847429 0.057101 0.219267 0.157941
H14   H     H_    0.416693 0.417608 0.847301 0.165184
H15   H     H_    0.582159 0.583866 0.153329 0.141183
H16   H     H_    0.623121 0.622645 0.933462 0.209694
N1    N     N_2   0.445130 0.445420 0.137360 -0.330300
N2    N     N_2   0.554870 0.554580 0.862640 -0.346378
O1    O     O_R   0.511700 0.332340 0.577400 -0.487103
O2    O     O_2   0.279668 0.121651 0.692315 -0.502164
O3    O     O_2   0.580385 0.098345 0.747718 -0.467235
O4    O     O_2   0.582639 0.053801 0.217106 -0.507868
O5    O     O_R   0.488300 0.667660 0.422600 -0.471745
O6    O     O_R   0.474680 0.295500 0.332650 -0.458628
O7    O     O_R   0.525320 0.704500 0.667350 -0.509567
O8    O     O_R   0.338170 0.518410 0.622370 -0.531363
O9    O     O_R   0.661830 0.481590 0.377630 -0.501815
O10   O     O_R   0.301150 0.481570 0.377630 -0.454424
O11   O     O_R   0.698850 0.518430 0.622370 -0.486123
O12   O     O_2   0.256197 0.747756 0.397169 -0.489362

loop_
_geom_bond_atom_site_label_1
_geom_bond_atom_site_label_2
_ccdc_geom_bond_type
C27   N2    D    
C5    H12   S    
C5    C7    A    
Cu1   Cu2   S    
Cu1   O8    S    
C28   O10   A    
C2    C16   S    
C18   H5    S    
C12   O5    A    
C12   C23   S    
C20   C23   S    
C13   C17   A    
C1    O6    A    
Cu2   O6    S    
C4    C15   A    
C13   C15   A    
C19   C24   S    
C28   O8    A    
C2    O9    A    
C1    C22   S    
C10   H4    S    
Cu1   O1    S    
C21   C22   S    
C9    H3    S    
C20   H7    S    
C9    C11   A    
C19   O2    D    
C26   C27   S    
C18   C25   S    
C26   N1    D    
C3    C14   A    
Cu2   O10   S    
C18   O12   D    
H2    N1    S    
C8    H1    S    
C3    H10   S    
C20   O3    D    
C22   C24   D    
C6    H13   S    
C23   C25   D    
Cu2   O5    S    
H16   N2    S    
C12   O7    A    
C4    H11   S    
Cu1   N2    S    
C15   C16   A    
Cu2   O9    S    
Cu2   N1    S    
C24   C25   S    
C8    C10   A    
C4    C6    A    
C11   C16   A    
C11   C14   A    
C7    C9    A    
C7    H9    S    
C2    O11   A    
C6    C8    A    
Cu1   O7    S    
C26   H15   S    
C19   H6    S    
C17   C28   S    
C1    O1    A    
C27   H14   S    
C21   O4    D    
C21   H8    S    
Cu1   O11   S    
C3    C5    A    
C10   C13   A    
C14   C17   A    
