data_mof_unit_50895.cif
_audit_creation_date              2012-10-26T19:35:13-0400
_audit_creation_method            fapswitch 2.2
_symmetry_space_group_name_H-M    P1
_symmetry_Int_Tables_number       1
_space_group_crystal_system       triclinic
_cell_length_a                    10.763706
_cell_length_b                    10.812158
_cell_length_c                    9.545053
_cell_angle_alpha                 89.871614
_cell_angle_beta                  89.951652
_cell_angle_gamma                 89.802867
_cell_volume                      1110.83292049

loop_
_atom_site_label
_atom_site_type_symbol
_atom_type_description
_atom_site_fract_x
_atom_site_fract_y
_atom_site_fract_z
_atom_type_partial_charge
C1    C     C_R   0.502079 0.262284 0.500032 0.552519
C2    C     C_R   0.526602 0.935700 0.372199 -0.161812
C3    C     C_R   0.515478 0.870632 0.499253 0.002174
C4    C     C_R   0.262668 0.502591 0.500089 0.570347
C5    C     C_R   0.522510 0.935955 0.624944 0.009985
C6    C     C_3   0.443090 0.928951 0.753116 -0.263294
C7    C     C_3   0.442031 0.069410 0.752897 -0.271619
C8    C     C_R   0.551244 0.596131 0.073315 0.154487
C9    C     C_R   0.438214 0.411965 0.074705 -0.005107
C10   C     C_R   0.438159 0.411993 0.925811 -0.008600
C11   C     C_R   0.551192 0.596155 0.926038 0.155099
C12   C     C_R   0.065043 0.610451 0.557816 -0.018843
C13   C     C_3   0.682626 0.638985 0.919885 -0.277342
C14   C     C_3   0.682723 0.638770 0.079023 -0.274584
C15   C     C_R   0.502491 0.737656 0.499830 0.526993
C16   C     C_R   0.737344 0.502061 0.499904 0.537422
C17   C     C_R   0.128653 0.714353 0.611494 -0.100983
C18   C     C_R   0.063244 0.815347 0.665055 -0.119132
C19   C     C_R   0.933978 0.815319 0.665193 -0.122052
C20   C     C_R   0.869414 0.714464 0.611500 -0.102898
C21   C     C_R   0.933858 0.610648 0.557824 0.009510
C22   C     C_3   0.140785 0.215308 0.483837 -0.122084
C23   C     C_R   0.128799 0.507690 0.500419 0.007063
C24   C     C_R   0.064248 0.407610 0.442429 0.246630
C25   C     C_R   0.935570 0.409971 0.440034 -0.132600
C26   C     C_R   0.870902 0.508526 0.499843 -0.047036
C27   C     C_R   0.521861 0.063189 0.625007 0.020530
C28   C     C_R   0.514638 0.129125 0.499440 0.003448
C29   C     C_R   0.526139 0.064565 0.372290 -0.163120
Cu1   Cu    Cu3+1 0.499990 0.499980 0.640670 0.925360
Cu2   Cu    Cu3+1 0.500010 0.500020 0.359330 0.954105
H1    H     H_    0.493851 0.888617 0.843826 0.134255
H2    H     H_    0.228937 0.719315 0.610973 0.125222
H3    H     H_    0.112993 0.894429 0.705485 0.098289
H4    H     H_    0.883459 0.894245 0.705807 0.108943
H5    H     H_    0.769089 0.719571 0.610750 0.128577
H6    H     H_    0.885837 0.333052 0.394009 0.132056
H7    H     H_    0.528458 0.112854 0.272778 0.133405
H8    H     H_    0.529155 0.887833 0.272663 0.132753
H9    H     H_    0.350471 0.887861 0.732399 0.130458
H10   H     H_    0.048901 0.177893 0.516201 0.109770
H11   H     H_    0.193099 0.248483 0.576992 0.110935
H12   H     H_    0.348778 0.109854 0.731589 0.119725
H13   H     H_    0.195014 0.138205 0.437265 0.143161
H14   H     H_    0.491992 0.109938 0.843657 0.133357
H15   H     H_    0.390048 0.339409 0.130642 0.134903
H16   H     H_    0.389823 0.339592 0.870315 0.112548
H17   H     H_    0.746640 0.568929 0.874284 0.164387
H18   H     H_    0.690482 0.733251 0.874094 0.118703
H19   H     H_    0.746626 0.568413 0.124488 0.162773
H20   H     H_    0.690792 0.732843 0.124793 0.121774
N1    N     N_R   0.500790 0.500930 0.147930 -0.233076
N2    N     N_R   0.500790 0.500890 0.852020 -0.229184
O1    O     O_R   0.500000 0.319640 0.618810 -0.505425
O2    O     O_R   0.500010 0.319680 0.381230 -0.506853
O3    O     O_R   0.319640 0.499980 0.618820 -0.518199
O4    O     O_R   0.319650 0.500020 0.381230 -0.462309
O5    O     O_R   0.499990 0.680320 0.618770 -0.511214
O6    O     O_R   0.500000 0.680360 0.381190 -0.508282
O7    O     O_R   0.680350 0.499980 0.618770 -0.504942
O8    O     O_R   0.680360 0.500020 0.381180 -0.504197
O9    O     O_3   0.127303 0.309384 0.382323 -0.556882

loop_
_geom_bond_atom_site_label_1
_geom_bond_atom_site_label_2
_ccdc_geom_bond_type
C4    O4    A    
C12   C17   A    
C1    C28   S    
C6    H1    S    
C23   C24   A    
C15   O6    A    
C6    C7    S    
C12   C21   A    
C7    H12   S    
C22   O9    S    
Cu1   O1    S    
C9    C10   A    
C8    N1    A    
C14   H20   S    
C11   N2    A    
C8    C11   A    
Cu2   N1    S    
C21   C26   A    
C25   H6    S    
Cu2   O4    S    
C2    C3    A    
C1    O2    A    
C7    C27   S    
C9    H15   S    
C25   C26   A    
C14   H19   S    
C13   C14   S    
C4    O3    A    
C11   C13   S    
C12   C23   A    
C22   H11   S    
C9    N1    A    
C17   H2    S    
C2    C29   A    
C13   H18   S    
Cu1   O5    S    
C28   C29   A    
Cu1   N2    S    
C19   H4    S    
C17   C18   A    
C18   H3    S    
C16   C26   S    
C5    C6    S    
C15   O5    A    
C6    H9    S    
C22   H10   S    
C16   O8    A    
C20   H5    S    
C7    H14   S    
C27   C28   A    
C29   H7    S    
C3    C15   S    
C24   C25   A    
C18   C19   A    
C16   O7    A    
Cu2   O6    S    
C10   H16   S    
C4    C23   S    
C10   N2    A    
Cu2   O8    S    
Cu1   Cu2   S    
C24   O9    S    
C8    C14   S    
C1    O1    A    
Cu2   O2    S    
C20   C21   A    
C5    C27   A    
Cu1   O3    S    
C2    H8    S    
C22   H13   S    
C19   C20   A    
C3    C5    A    
C13   H17   S    
Cu1   O7    S    
