data_mof_unit_16642.cif
_audit_creation_date              2012-10-26T20:51:09-0400
_audit_creation_method            fapswitch 2.2
_symmetry_space_group_name_H-M    P1
_symmetry_Int_Tables_number       1
_space_group_crystal_system       triclinic
_cell_length_a                    13.018933
_cell_length_b                    10.850262
_cell_length_c                    9.572118
_cell_angle_alpha                 88.936707
_cell_angle_beta                  95.776952
_cell_angle_gamma                 92.775125
_cell_volume                      1343.5739922

loop_
_atom_site_label
_atom_site_type_symbol
_atom_type_description
_atom_site_fract_x
_atom_site_fract_y
_atom_site_fract_z
_atom_type_partial_charge
C1    C     C_R   0.500029 0.262240 0.501043 0.562141
C2    C     C_R   0.542486 0.940491 0.388787 -0.114959
C3    C     C_R   0.506493 0.870836 0.500321 0.015350
C4    C     C_R   0.301019 0.507392 0.473446 0.573685
C5    C     C_R   0.479239 0.931254 0.617505 -0.018454
C6    C     C_3   0.379777 0.915746 0.682792 -0.114220
C7    C     C_3   0.380222 0.055215 0.687156 -0.243135
C8    C     C_R   0.581372 0.552618 0.083289 0.192664
C9    C     C_R   0.423779 0.440215 0.067706 0.016370
C10   C     C_R   0.422233 0.439558 0.919530 0.162768
C11   C     C_R   0.582551 0.550419 0.936317 0.132365
C12   C     C_R   0.027341 0.507343 0.560849 0.013607
C13   C     C_3   0.625266 0.680300 0.931234 -0.285828
C14   C     C_3   0.618913 0.684786 0.089083 -0.122066
C15   C     C_R   0.501063 0.737481 0.499209 0.563355
C16   C     C_R   0.699069 0.494154 0.525716 0.551785
C17   C     C_R   0.811925 0.488002 0.539282 -0.003373
C18   C     C_R   0.188125 0.515345 0.455293 -0.026676
C19   C     C_R   0.026658 0.483384 0.306764 -0.010597
C20   C     C_R   0.132892 0.519188 0.320302 0.044169
C21   C     C_R   0.134540 0.516354 0.574088 -0.131981
C22   C     C_2   0.812170 0.363934 0.321235 0.579695
C23   C     C_R   0.972264 0.478515 0.429075 -0.008980
C24   C     C_2   0.391783 0.855514 0.825714 0.246106
C25   C     C_2   0.331741 0.371518 0.846252 0.563169
C26   C     C_2   0.721998 0.702830 0.173240 0.258670
C27   C     C_2   0.972834 0.465194 0.164596 0.307390
C28   C     C_2   0.180659 0.583290 0.201115 0.594877
C29   C     C_R   0.864417 0.452419 0.424903 0.042140
C30   C     C_R   0.868165 0.522011 0.666298 -0.122913
C31   C     C_R   0.975143 0.525138 0.678960 -0.101790
C32   C     C_R   0.479204 0.058739 0.619555 0.002435
C33   C     C_R   0.506296 0.128976 0.503708 0.020044
C34   C     C_R   0.542865 0.069025 0.390730 -0.136040
Cu1   Cu    Cu3+1 0.499990 0.499980 0.640670 1.041224
Cu2   Cu    Cu3+1 0.500010 0.500020 0.359330 1.046415
H1    H     H_    0.315454 0.094017 0.618070 0.174325
H2    H     H_    0.568669 0.121027 0.302013 0.148757
H3    H     H_    0.567299 0.896184 0.298679 0.168150
H4    H     H_    0.315802 0.873817 0.610321 0.162742
H5    H     H_    0.787349 0.185954 0.265317 0.349371
H6    H     H_    0.447206 0.893682 0.907867 0.098103
H7    H     H_    0.179742 0.322509 0.841350 0.356318
H8    H     H_    0.787377 0.653505 0.146931 0.113114
H9    H     H_    0.913592 0.526265 0.123797 0.093581
H10   H     H_    0.192840 0.598431 0.993144 0.367927
H11   H     H_    0.391819 0.092503 0.795305 0.171119
H12   H     H_    0.362661 0.392671 0.119219 0.170515
H13   H     H_    0.705163 0.685020 0.899135 0.115832
H14   H     H_    0.572507 0.742963 0.870484 0.159302
H15   H     H_    0.559059 0.746498 0.118461 0.148851
H16   H     H_    0.829442 0.545488 0.756552 0.140006
H17   H     H_    0.017120 0.547997 0.779478 0.162573
H18   H     H_    0.176267 0.526954 0.677295 0.176768
N1    N     N_R   0.500660 0.500930 0.148010 -0.256732
N2    N     N_R   0.500660 0.500890 0.852110 -0.244989
O1    O     O_R   0.500000 0.319640 0.618810 -0.454814
O2    O     O_R   0.826385 0.237891 0.342066 -0.660351
O3    O     O_2   0.339074 0.763128 0.850488 -0.498798
O4    O     O_2   0.341130 0.306277 0.747151 -0.520057
O5    O     O_R   0.235293 0.374528 0.897993 -0.686280
O6    O     O_2   0.732981 0.773425 0.271882 -0.507783
O7    O     O_2   0.994189 0.379971 0.092866 -0.422052
O8    O     O_2   0.238222 0.674717 0.224442 -0.496897
O9    O     O_R   0.157448 0.544085 0.063021 -0.636349
O10   O     O_R   0.500010 0.319680 0.381230 -0.519278
O11   O     O_R   0.348990 0.499960 0.599490 -0.467193
O12   O     O_R   0.349000 0.500000 0.361910 -0.488510
O13   O     O_R   0.499990 0.680320 0.618770 -0.503288
O14   O     O_R   0.500000 0.680360 0.381190 -0.485976
O15   O     O_R   0.651000 0.500000 0.638090 -0.518914
O16   O     O_R   0.651010 0.500040 0.400510 -0.458978
O17   O     O_2   0.758531 0.400361 0.218030 -0.539527

loop_
_geom_bond_atom_site_label_1
_geom_bond_atom_site_label_2
_ccdc_geom_bond_type
C22   O2    S    
C4    O11   A    
C19   C23   A    
Cu2   O12   S    
C6    C7    S    
C9    N1    A    
C25   O4    D    
C1    O1    A    
C18   C21   A    
C17   C29   A    
C9    C10   A    
C2    H3    S    
C19   C20   A    
C16   O16   A    
Cu1   O11   S    
C30   C31   A    
Cu1   O1    S    
C5    C32   A    
C6    C24   S    
C32   C33   A    
C2    C34   A    
C2    C3    A    
C26   O6    D    
C4    C18   S    
Cu1   O15   S    
Cu2   N1    S    
C25   O5    S    
C13   C14   S    
C14   C26   S    
C14   H15   S    
C17   C30   A    
C11   C13   S    
C12   C23   A    
C27   H9    S    
C5    C6    S    
C16   O15   A    
C27   O7    D    
C9    H12   S    
C24   O3    D    
C13   H13   S    
C23   C29   A    
C10   C25   S    
C10   N2    A    
C22   C29   S    
Cu2   O14   S    
H5    O2    S    
C33   C34   A    
C18   C20   A    
C8    C11   A    
C12   C31   A    
C7    H1    S    
C21   H18   S    
C15   O13   A    
Cu2   O10   S    
C24   H6    S    
C1    C33   S    
C26   H8    S    
C13   H14   S    
C28   O8    D    
Cu1   O13   S    
C6    H4    S    
C19   C27   S    
C8    N1    A    
H10   O9    S    
C4    O12   A    
C15   O14   A    
C30   H16   S    
C3    C15   S    
C8    C14   S    
C7    C32   S    
C20   C28   S    
C22   O17   D    
Cu1   N2    S    
C34   H2    S    
C28   O9    S    
C12   C21   A    
H7    O5    S    
C31   H17   S    
C11   N2    A    
Cu2   O16   S    
C7    H11   S    
C16   C17   S    
C3    C5    A    
Cu1   Cu2   S    
C1    O10   A    
