data_mof_unit_17754.cif
_audit_creation_date              2012-12-11T15:15:37-0500
_audit_creation_method            fapswitch 2.2
_symmetry_space_group_name_H-M    P1
_symmetry_Int_Tables_number       1
_space_group_crystal_system       triclinic
_cell_length_a                    20.678503
_cell_length_b                    22.761803
_cell_length_c                    6.94045
_cell_angle_alpha                 90.000753
_cell_angle_beta                  86.728645
_cell_angle_gamma                 90.02349
_cell_volume                      3261.4075792

loop_
_atom_site_label
_atom_site_type_symbol
_atom_type_description
_atom_site_fract_x
_atom_site_fract_y
_atom_site_fract_z
_atom_type_partial_charge
O1    O     O_R   0.387100 0.552640 0.378490 -0.535584
O2    O     O_R   0.612900 0.052640 0.621510 -0.535611
O3    O     O_R   0.249610 0.559600 0.072250 -0.546548
O4    O     O_R   0.750390 0.059600 0.927750 -0.546445
O5    O     O_R   0.249120 0.447360 0.902040 -0.544158
O6    O     O_R   0.750880 0.947360 0.097960 -0.543931
C1    C     C_R   0.227014 0.573335 0.244683 0.684621
C2    C     C_R   0.772510 0.073875 0.755287 0.684128
O7    O     O_R   0.386610 0.559560 0.048860 -0.536409
O8    O     O_R   0.613390 0.059560 0.951140 -0.536622
O9    O     O_R   0.387100 0.447320 0.878470 -0.536019
O10   O     O_R   0.612900 0.947320 0.121530 -0.535974
C3    C     C_R   0.407778 0.574838 0.214039 0.691448
C4    C     C_R   0.592257 0.074867 0.785943 0.690749
O11   O     O_R   0.249120 0.552680 0.402050 -0.544239
O12   O     O_R   0.750880 0.052680 0.597950 -0.544427
O13   O     O_3   0.318110 0.463180 0.223790 -0.369811
O14   O     O_3   0.681890 0.963180 0.776210 -0.369507
V1    V     V_3+5 0.318110 0.506830 0.948930 1.419052
V2    V     V_3+5 0.681890 0.006830 0.051070 1.418933
O15   O     O_R   0.386610 0.440400 0.548840 -0.537955
O16   O     O_R   0.613390 0.940400 0.451160 -0.537756
C5    C     C_R   0.407797 0.425128 0.714028 0.697210
C6    C     C_R   0.592174 0.925153 0.285990 0.697887
O17   O     O_R   0.249610 0.440440 0.572240 -0.546825
O18   O     O_R   0.750390 0.940440 0.427760 -0.546960
C7    C     C_R   0.227309 0.426341 0.744692 0.687017
C8    C     C_R   0.773152 0.926875 0.255346 0.687526
V3    V     V_3+5 0.318110 0.493170 0.448930 1.416783
V4    V     V_3+5 0.681890 0.993170 0.551070 1.416836
O19   O     O_3   0.318110 0.536820 0.723940 -0.368945
O20   O     O_3   0.681890 0.036820 0.276060 -0.369252
C9    C     C_R   0.174411 0.382687 0.762455 -0.048852
C10   C     C_R   0.828068 0.885409 0.237742 -0.048557
C11   C     C_R   0.150820 0.356653 0.596756 -0.180065
C12   C     C_R   0.857967 0.866172 0.403236 -0.178852
C13   C     C_R   0.100874 0.315489 0.612821 -0.124276
C14   C     C_R   0.911043 0.828426 0.387078 -0.123425
C15   C     C_R   0.073009 0.299867 0.795253 0.169303
C16   C     C_R   0.934949 0.808570 0.204762 0.169549
C17   C     C_R   0.097233 0.325072 0.960815 -0.148306
C18   C     C_R   0.905476 0.828126 0.039448 -0.147960
C19   C     C_R   0.147239 0.366270 0.944855 -0.169109
C20   C     C_R   0.852432 0.866021 0.055499 -0.169845
C21   C     C_R   0.897674 0.185903 0.887177 -0.124546
C22   C     C_R   0.089914 0.672746 0.113327 -0.123546
C23   C     C_R   0.848155 0.144324 0.903212 -0.178612
C24   C     C_R   0.142639 0.634601 0.097009 -0.177439
C25   C     C_R   0.851958 0.134582 0.555132 -0.168996
C26   C     C_R   0.148553 0.634958 0.444620 -0.170003
C27   C     C_R   0.901546 0.176194 0.539203 -0.148451
C28   C     C_R   0.095850 0.673236 0.460835 -0.148206
C29   C     C_R   0.925491 0.201631 0.704791 0.169079
C30   C     C_R   0.066336 0.692847 0.295671 0.169322
C31   C     C_2   0.019903 0.256433 0.819041 -0.199825
C32   C     C_2   0.991554 0.768976 0.180530 -0.200362
C33   C     C_2   0.978412 0.245253 0.681143 -0.199987
C34   C     C_2   0.009886 0.732607 0.320124 -0.200263
C35   C     C_R   0.824953 0.117964 0.737521 -0.049003
C36   C     C_R   0.172495 0.615213 0.262377 -0.048341
H1    H     H_    0.171177 0.367731 0.454154 0.123472
H2    H     H_    0.841047 0.880953 0.545604 0.122523
H3    H     H_    0.827840 0.133161 0.045787 0.123974
H4    H     H_    0.159292 0.619609 0.954649 0.122719
H5    H     H_    0.834967 0.115392 0.424491 0.123920
H6    H     H_    0.170297 0.620707 0.574970 0.123782
H7    H     H_    0.983614 0.267946 0.543686 0.122118
H8    H     H_    0.983256 0.731928 0.459338 0.122502
H9    H     H_    0.076944 0.313268 0.102953 0.097563
H10   H     H_    0.923395 0.813812 0.897395 0.097129
H11   H     H_    0.912993 0.206195 0.017854 0.097987
H12   H     H_    0.067063 0.685021 0.983017 0.097192
H13   H     H_    0.164453 0.385272 0.075496 0.123507
H14   H     H_    0.830731 0.880237 0.925034 0.123215
H15   H     H_    0.014699 0.233722 0.956469 0.122185
H16   H     H_    0.018198 0.769645 0.041331 0.122514
H17   H     H_    0.085311 0.295389 0.482131 0.097882
H18   H     H_    0.933854 0.816229 0.517534 0.097111
H19   H     H_    0.921784 0.188089 0.397092 0.097672
H20   H     H_    0.078194 0.687762 0.602900 0.097313
C37   C     C_R   0.575776 0.361019 0.659331 -0.160526
C38   C     C_R   0.424231 0.860921 0.341456 -0.160462
H21   H     H_    0.534451 0.447010 0.639601 0.107671
H22   H     H_    0.465555 0.946943 0.361165 0.107689
H23   H     H_    0.665949 0.278271 0.648744 0.126419
H24   H     H_    0.334095 0.778076 0.352500 0.126193
H25   H     H_    0.624374 0.377234 0.625185 0.113160
H26   H     H_    0.375647 0.877080 0.375975 0.113186
C39   C     C_R   0.461345 0.381900 0.712167 -0.039924
C40   C     C_R   0.538624 0.881911 0.287903 -0.040144
C41   C     C_R   0.475504 0.095424 0.831366 -0.163252
C42   C     C_R   0.524509 0.595481 0.168110 -0.163432
C43   C     C_R   0.422200 0.132741 0.841746 -0.120457
C44   C     C_R   0.577800 0.632849 0.157521 -0.120399
C45   C     C_R   0.429759 0.192929 0.810847 -0.156517
C46   C     C_R   0.570238 0.693022 0.188630 -0.156509
C47   C     C_R   0.491604 0.217750 0.767834 0.077897
C48   C     C_R   0.508403 0.717768 0.232090 0.077889
C49   C     C_R   0.546371 0.178883 0.755713 0.068671
C50   C     C_R   0.453659 0.678847 0.244478 0.068833
C51   C     C_R   0.500877 0.279734 0.736781 0.074168
C52   C     C_R   0.499116 0.779729 0.263322 0.074136
C53   C     C_R   0.564690 0.300906 0.692877 0.138693
C54   C     C_R   0.435319 0.800827 0.307703 0.138874
C55   C     C_R   0.617262 0.262103 0.681907 -0.198662
C56   C     C_R   0.382770 0.761968 0.318960 -0.198921
C57   C     C_R   0.608395 0.202217 0.713057 -0.194204
C58   C     C_R   0.391646 0.702102 0.287614 -0.194218
C59   C     C_R   0.449437 0.321697 0.746872 -0.215762
C60   C     C_R   0.550532 0.821738 0.252966 -0.215669
C61   C     C_R   0.524626 0.400951 0.667874 -0.168321
C62   C     C_R   0.475368 0.900900 0.332678 -0.168516
C63   C     C_R   0.537773 0.117408 0.788205 -0.084794
C64   C     C_R   0.462261 0.617399 0.211737 -0.085030
H27   H     H_    0.399755 0.309124 0.779195 0.093444
H28   H     H_    0.600201 0.809224 0.220299 0.093337
H29   H     H_    0.468134 0.048894 0.857581 0.106767
H30   H     H_    0.531872 0.548965 0.141680 0.106761
H31   H     H_    0.386146 0.218843 0.821861 0.108322
H32   H     H_    0.613840 0.718980 0.177412 0.108163
H33   H     H_    0.374346 0.114824 0.874953 0.119086
H34   H     H_    0.625643 0.614988 0.123965 0.119065
H35   H     H_    0.650772 0.174203 0.703088 0.110733
H36   H     H_    0.349285 0.674040 0.297819 0.110644

loop_
_geom_bond_atom_site_label_1
_geom_bond_atom_site_label_2
_ccdc_geom_bond_type
C19   H13   S    
V4    O20   S    
C32   H16   S    
O11   V3    S    
O6    C8    A    
C21   H11   S    
O13   V3    S    
C57   H35   S    
O4    C2    A    
V1    O19   S    
C25   C27   A    
C54   C56   A    
C15   C17   A    
C7    C9    S    
C55   C57   A    
O9    V1    S    
H22   C62   S    
C25   H5    S    
O16   C6    A    
C11   C13   A    
C58   H36   S    
O3    C1    A    
C2    C35   S    
C23   H3    S    
C12   H2    S    
C24   H4    S    
C51   C59   A    
C39   C59   A    
C18   H10   S    
C2    O12   A    
O7    C3    A    
C42   H30   S    
C9    C11   A    
O5    C7    A    
O7    V1    S    
C15   C31   S    
C37   C61   A    
O8    V2    S    
C16   C32   S    
C46   C48   A    
C26   C28   A    
C5    C39   S    
O3    V1    S    
O14   V4    S    
C40   C62   A    
C22   H12   S    
C3    C64   S    
C31   H15   S    
C56   C58   A    
C16   C18   A    
C8    C10   S    
C51   C53   A    
C17   C19   A    
O10   V2    S    
H24   C56   S    
C18   C20   A    
C33   H7    S    
V2    O20   S    
H23   C55   S    
O1    V3    S    
C47   C49   A    
C28   C30   A    
C24   C36   A    
C21   C23   A    
O17   V3    S    
C22   C24   A    
C50   C58   A    
C23   C35   A    
C9    C19   A    
C20   H14   S    
C10   C20   A    
C11   H1    S    
O8    C4    A    
C29   C33   S    
C1    O11   A    
C14   H18   S    
C45   H31   S    
C48   C52   A    
C13   H17   S    
C41   C63   A    
C27   C29   A    
C38   C62   A    
C44   C46   A    
C41   C43   A    
C22   C30   A    
C42   C44   A    
C50   C64   A    
C53   C55   A    
C52   C54   A    
C26   H6    S    
C37   H25   S    
C44   H34   S    
C34   H8    S    
C41   H29   S    
O18   V4    S    
C48   C50   A    
C31   C33   D    
C42   C64   A    
C30   C34   S    
H21   C61   S    
C52   C60   A    
O1    C3    A    
C40   C60   A    
C12   C14   A    
C60   H28   S    
C1    C36   S    
C49   C57   A    
C17   H9    S    
C37   C53   A    
O10   C6    A    
O16   V4    S    
C46   H32   S    
C43   H33   S    
C6    C40   S    
C49   C63   A    
C45   C47   A    
O5    V1    S    
O17   C7    A    
C4    C63   S    
O6    V2    S    
C39   C61   A    
O18   C8    A    
C25   C35   A    
O2    V4    S    
C26   C36   A    
O15   C5    A    
V3    O19   S    
C14   C16   A    
C43   C45   A    
O15   V3    S    
C38   H26   S    
O9    C5    A    
O13   V1    S    
C10   C12   A    
C32   C34   D    
O14   V2    S    
O2    C4    A    
C27   H19   S    
C59   H27   S    
C21   C29   A    
O4    V2    S    
C13   C15   A    
C38   C54   A    
C28   H20   S    
O12   V4    S    
C47   C51   A    
