data_mof_unit_12470.cif
_audit_creation_date              2012-10-26T19:57:52-0400
_audit_creation_method            fapswitch 2.2
_symmetry_space_group_name_H-M    P1
_symmetry_Int_Tables_number       1
_space_group_crystal_system       triclinic
_cell_length_a                    7.489806
_cell_length_b                    8.681986
_cell_length_c                    12.978602
_cell_angle_alpha                 87.817017
_cell_angle_beta                  80.178741
_cell_angle_gamma                 102.973929
_cell_volume                      807.786539439

loop_
_atom_site_label
_atom_site_type_symbol
_atom_type_description
_atom_site_fract_x
_atom_site_fract_y
_atom_site_fract_z
_atom_type_partial_charge
C1    C     C_R   0.452753 0.199822 0.503230 0.526729
C2    C     C_R   0.727213 0.490130 0.123090 0.136898
C3    C     C_R   0.606729 0.501438 0.859759 -0.169324
C4    C     C_R   0.392612 0.451213 0.139849 -0.172455
C5    C     C_R   0.589848 0.487927 0.968166 0.010604
C6    C     C_R   0.411269 0.444590 0.031757 0.011017
C7    C     C_2   0.426450 0.031734 0.504900 -0.165631
C8    C     C_2   0.573606 0.968353 0.494880 -0.162025
C9    C     C_3   0.855627 0.299719 0.207041 -0.273474
C10   C     C_3   0.114792 0.167024 0.799634 -0.278616
C11   C     C_R   0.547265 0.800199 0.496691 0.550028
C12   C     C_R   0.466661 0.487032 0.701012 0.553149
C13   C     C_R   0.531565 0.495539 0.299126 0.549478
C14   C     C_R   0.550467 0.480706 0.185922 0.021546
C15   C     C_R   0.447389 0.461738 0.814320 0.023932
C16   C     C_R   0.255339 0.391099 0.986382 -0.134556
C17   C     C_R   0.748004 0.509499 0.014199 -0.127489
C18   C     C_R   0.271915 0.393811 0.878036 0.131466
Cu1   Cu    Cu3+1 0.686350 0.517570 0.488220 0.955084
Cu2   Cu    Cu3+1 0.313650 0.482430 0.511780 0.955895
H1    H     H_    0.256314 0.431280 0.188217 0.126180
H2    H     H_    0.969214 0.288401 0.249225 0.141454
H3    H     H_    0.854491 0.221819 0.141158 0.115262
H4    H     H_    0.722418 0.256040 0.263222 0.170367
H5    H     H_    0.987449 0.325401 0.880153 0.237203
H6    H     H_    0.994135 0.125714 0.760212 0.139546
H7    H     H_    0.103942 0.081932 0.867891 0.128749
H8    H     H_    0.244397 0.169238 0.742746 0.161584
H9    H     H_    0.743736 0.542747 0.811132 0.135282
H10   H     H_    0.122507 0.338652 0.034467 0.105651
H11   H     H_    0.885521 0.530313 0.966017 0.101738
H12   H     H_    0.935155 0.377338 0.583363 0.241089
H13   H     H_    0.064859 0.622533 0.416580 0.242814
H14   H     H_    0.284776 0.959801 0.514462 0.135444
H15   H     H_    0.715279 0.040324 0.485292 0.130759
H16   H     H_    0.008401 0.517311 0.126625 0.236255
N1    N     N_2   0.033570 0.455950 0.529530 -0.258053
N2    N     N_2   0.966430 0.544050 0.470470 -0.256637
N3    N     N_2   0.878375 0.463961 0.168749 -0.493388
N4    N     N_2   0.113510 0.323290 0.834357 -0.496457
O1    O     O_R   0.621060 0.286250 0.492350 -0.514342
O2    O     O_R   0.378940 0.713750 0.507650 -0.504069
O3    O     O_R   0.306310 0.256580 0.512240 -0.505521
O4    O     O_R   0.693690 0.743420 0.487760 -0.497763
O5    O     O_R   0.631800 0.512400 0.642670 -0.521216
O6    O     O_R   0.368200 0.487600 0.357330 -0.520364
O7    O     O_R   0.317060 0.482730 0.662570 -0.461244
O8    O     O_R   0.682940 0.517270 0.337430 -0.462579

loop_
_geom_bond_atom_site_label_1
_geom_bond_atom_site_label_2
_ccdc_geom_bond_type
C10   H7    S    
C13   O8    A    
Cu2   O2    S    
Cu1   O5    S    
C9    H4    S    
N1    N2    D    
C4    H1    S    
Cu1   N2    S    
C10   H8    S    
C15   C18   A    
H13   N2    S    
C12   C15   S    
C10   H6    S    
C11   O4    A    
C13   C14   S    
C2    C17   A    
Cu2   N1    S    
C5    C6    A    
C12   O7    A    
C2    C14   A    
C4    C6    A    
C8    C11   S    
H5    N4    S    
C4    C14   A    
C13   O6    A    
C17   H11   S    
C7    H14   S    
C9    H2    S    
Cu2   O7    S    
C5    C17   A    
C16   H10   S    
Cu1   O1    S    
C9    N3    S    
Cu2   O3    S    
C3    C15   A    
Cu1   O4    S    
C11   O2    A    
C16   C18   A    
C7    C8    D    
C1    O1    A    
C3    H9    S    
C18   N4    S    
Cu1   O8    S    
C9    H3    S    
C10   N4    S    
H12   N1    S    
C1    C7    S    
C6    C16   A    
C2    N3    S    
C1    O3    A    
H16   N3    S    
Cu2   O6    S    
Cu1   Cu2   S    
C12   O5    A    
C3    C5    A    
C8    H15   S    
