data_mof_unit_8975.cif
_audit_creation_date              2012-12-11T20:22:09-0500
_audit_creation_method            fapswitch 2.2
_symmetry_space_group_name_H-M    P1
_symmetry_Int_Tables_number       1
_space_group_crystal_system       triclinic
_cell_length_a                    8.285178
_cell_length_b                    17.563889
_cell_length_c                    27.127219
_cell_angle_alpha                 99.91316
_cell_angle_beta                  92.99299
_cell_angle_gamma                 80.632241
_cell_volume                      3835.56618102

loop_
_atom_site_label
_atom_site_type_symbol
_atom_type_description
_atom_site_fract_x
_atom_site_fract_y
_atom_site_fract_z
_atom_type_partial_charge
Ba1   Ba    Ba6+2 0.860160 0.462360 0.521850 1.724473
Ba2   Ba    Ba6+2 0.329680 0.537570 0.478140 1.718589
C1    C     C_3   0.626397 0.199315 0.662162 -0.324505
C2    C     C_R   0.915704 0.581801 0.180367 0.577315
C3    C     C_2   0.760743 0.553606 0.272734 -0.115364
C4    C     C_3   0.163981 0.235681 0.641639 0.277502
C5    C     C_3   0.736744 0.568885 0.328635 -0.011324
C6    C     C_1   0.986781 0.478302 0.338047 0.009450
C7    C     C_2   0.031940 0.481916 0.291848 -0.116562
C8    C     C_2   0.909865 0.517645 0.254956 0.194997
C9    C     C_R   0.033184 0.510819 0.101472 -0.079773
C10   C     C_R   0.066600 0.442845 0.123631 -0.040425
C11   C     C_R   0.141174 0.373262 0.094752 -0.050124
C12   C     C_3   0.615776 0.274302 0.640342 0.318926
C13   C     C_R   0.957212 0.580605 0.130235 -0.025711
C14   C     C_2   0.835926 0.505016 0.351921 -0.162660
C15   C     C_2   0.346760 0.476692 0.641094 -0.385931
C16   C     C_3   0.090342 0.207149 0.684102 0.182244
C17   C     C_R   0.183301 0.435390 0.969902 0.019104
C18   C     C_R   0.089466 0.577607 0.978891 0.019693
C19   C     C_R   0.156085 0.505647 0.949128 0.052473
C20   C     C_R   0.245451 0.365090 0.938076 -0.095630
C21   C     C_R   0.281574 0.364024 0.888270 -0.052504
C22   C     C_R   0.258022 0.432906 0.867568 -0.032382
C23   C     C_3   0.478294 0.656202 0.633854 0.282800
C24   C     C_R   0.195823 0.503977 0.898004 -0.077776
C25   C     C_R   0.173902 0.573454 0.877352 -0.038955
C26   C     C_R   0.213270 0.570967 0.826802 0.604323
C27   C     C_R   0.294286 0.432002 0.816909 0.587621
C28   C     C_3   0.221568 0.300055 0.413122 0.277693
C29   C     C_2   0.459014 0.479023 0.728046 -0.060638
C30   C     C_3   0.496290 0.484504 0.674703 -0.052547
C31   C     C_1   0.204899 0.514556 0.658132 0.061852
C32   C     C_2   0.167615 0.519272 0.706200 0.344497
C33   C     C_2   0.302913 0.498354 0.744088 0.143594
C34   C     C_3   0.459733 0.681209 0.690403 -0.221450
C35   C     C_R   0.146969 0.437540 0.021316 0.019550
C36   C     C_R   0.074867 0.509027 0.050484 0.051888
C37   C     C_R   0.043521 0.578789 0.029216 0.020549
C38   C     C_R   0.180324 0.370520 0.044964 -0.096316
C39   C     C_R   0.923367 0.648305 0.108338 -0.057036
C40   C     C_3   0.267597 0.211340 0.398019 -0.202551
C41   C     C_R   0.072050 0.646334 0.957088 -0.095331
C42   C     C_R   0.113323 0.644159 0.907668 -0.045272
C43   C     C_R   0.965235 0.647570 0.059205 -0.099003
C44   C     C_2   0.454564 0.282832 0.517129 -0.240759
C45   C     C_3   0.044044 0.698065 0.348960 0.314231
C46   C     C_3   0.383892 0.233532 0.548409 -0.085803
C47   C     C_2   0.444714 0.147540 0.535188 -0.094957
C48   C     C_2   0.576201 0.121267 0.506043 0.010417
C49   C     C_2   0.652165 0.178748 0.483837 -0.125951
C50   C     C_1   0.582801 0.253228 0.488876 0.071593
C51   C     C_R   0.793380 0.865345 0.478505 -0.118920
C52   C     C_3   0.003918 0.714816 0.602514 0.290450
C53   C     C_R   0.855373 0.786125 0.474672 -0.021196
C54   C     C_R   0.622108 0.765678 0.519832 -0.072768
C55   C     C_R   0.565593 0.847478 0.527521 -0.065559
C56   C     C_3   0.052830 0.715911 0.296418 -0.307875
C57   C     C_R   0.646918 0.896729 0.503853 -0.014285
C58   C     C_2   0.655506 0.037998 0.499991 -0.073427
C59   C     C_2   0.571415 0.979553 0.503365 -0.033354
C60   C     C_R   0.765432 0.736908 0.493161 -0.289223
C61   C     C_3   0.030108 0.797205 0.625582 -0.349069
C62   C     C_3   0.687521 0.346481 0.364570 0.319214
C63   C     C_3   0.661701 0.323011 0.308248 0.206298
C64   C     C_2   0.121467 0.173044 0.379154 0.919244
C65   C     C_2   0.623434 0.677218 0.717183 0.925542
C66   C     C_2   0.432647 0.883109 0.563101 0.860461
C67   C     C_3   0.502607 0.742660 0.367130 0.326959
C68   C     C_2   0.823866 0.653728 0.485591 0.870571
C69   C     C_3   0.438379 0.821866 0.352274 -0.360371
C70   C     C_R   0.024637 0.445643 0.174159 0.608417
H1    H     H_    0.669854 0.258950 0.602597 0.058461
H2    H     H_    0.603285 0.401828 0.376818 0.058802
H3    H     H_    0.755897 0.173022 0.667083 0.109538
H4    H     H_    0.736557 0.265178 0.294776 0.096859
H5    H     H_    0.703171 0.366951 0.288899 0.045601
H6    H     H_    0.484879 0.300946 0.638122 -0.063155
H7    H     H_    0.565504 0.155864 0.636479 0.083046
H8    H     H_    0.357074 0.645769 0.617344 -0.013034
H9    H     H_    0.567075 0.601135 0.625854 0.007903
H10   H     H_    0.392965 0.742008 0.698566 0.093645
H11   H     H_    0.385037 0.643030 0.704656 0.027645
H12   H     H_    0.360950 0.198215 0.368529 0.061178
H13   H     H_    0.566261 0.211972 0.698962 0.168170
H14   H     H_    0.144648 0.649666 0.353981 0.099485
H15   H     H_    0.924639 0.679315 0.352915 -0.031704
H16   H     H_    0.155480 0.748374 0.293889 0.146832
H17   H     H_    0.074553 0.660250 0.269651 0.113874
H18   H     H_    0.936721 0.751778 0.286247 0.136213
H19   H     H_    0.637717 0.731739 0.363111 -0.030859
H20   H     H_    0.472962 0.745668 0.407011 0.066177
H21   H     H_    0.499729 0.867614 0.375811 0.075980
H22   H     H_    0.304542 0.836854 0.357929 0.155696
H23   H     H_    0.322649 0.186046 0.430904 0.022772
H24   H     H_    0.175319 0.298615 0.653380 0.004457
H25   H     H_    0.463824 0.820705 0.312337 0.127852
H26   H     H_    0.155524 0.457399 0.280217 0.159580
H27   H     H_    0.169867 0.319958 0.110624 0.130606
H28   H     H_    0.559016 0.466245 0.754359 0.124076
H29   H     H_    0.328199 0.308306 0.865815 0.133656
H30   H     H_    0.265756 0.309021 0.950199 0.075795
H31   H     H_    0.238902 0.314570 0.026228 0.074295
H32   H     H_    0.666046 0.578480 0.248365 0.125413
H33   H     H_    0.863608 0.702890 0.129279 0.124629
H34   H     H_    0.872604 0.717740 0.591842 0.043358
H35   H     H_    0.028822 0.703646 0.977417 0.073211
H36   H     H_    0.286595 0.200220 0.634957 0.004149
H37   H     H_    0.096731 0.698739 0.893156 0.128624
H38   H     H_    0.931413 0.702226 0.045674 0.073234
H39   H     H_    0.780277 0.479658 0.378395 -0.026119
H40   H     H_    0.354458 0.439319 0.604728 0.072651
H41   H     H_    0.439580 0.992914 0.506847 0.093116
H42   H     H_    0.762797 0.158487 0.462515 0.109972
H43   H     H_    0.858079 0.901385 0.460565 0.083421
H44   H     H_    0.786541 0.026002 0.494668 0.089292
H45   H     H_    0.085186 0.695576 0.570226 0.092295
H46   H     H_    0.392505 0.108851 0.554795 0.088136
H47   H     H_    0.973215 0.245341 0.695342 0.096195
H48   H     H_    0.411373 0.345316 0.523781 0.066707
H49   H     H_    0.065159 0.146608 0.671129 0.100370
H50   H     H_    0.331739 0.324764 0.428177 -0.014068
H51   H     H_    0.128648 0.312907 0.442512 0.068508
H52   H     H_    0.973207 0.096574 0.388565 0.300403
H53   H     H_    0.470903 0.271225 0.304095 0.327968
H54   H     H_    0.840694 0.716092 0.727336 0.343525
H55   H     H_    0.191560 0.261224 0.742749 0.338409
H56   H     H_    0.951051 0.819118 0.658470 0.153105
H57   H     H_    0.996339 0.537281 0.754783 0.323114
H58   H     H_    0.350978 0.970700 0.618822 0.314648
H59   H     H_    0.800504 0.551787 0.447162 0.324970
H60   H     H_    0.998122 0.836797 0.597530 0.106158
H61   H     H_    0.160154 0.797418 0.637723 0.145652
H62   H     H_    0.818103 0.352680 0.371961 -0.044576
N1    N     N_R   0.950754 0.514905 0.202443 -0.421394
N2    N     N_R   0.268973 0.500427 0.796735 -0.433391
O1    O     O_2   0.906370 0.542040 0.619810 -0.405699
O2    O     O_2   0.197090 0.778008 0.472765 -0.446386
O3    O     O_3   0.060568 0.765440 0.383760 -0.612892
O4    O     O_3   0.138370 0.541980 0.559630 -0.465890
O5    O     O_3   0.572820 0.404940 0.471170 -0.503264
O6    O     O_2   0.345130 0.693150 0.532000 -0.444001
O7    O     O_3   0.532399 0.716189 0.614333 -0.611145
O8    O     O_2   0.410206 0.535118 0.324698 -0.486034
O9    O     O_3   0.428651 0.684254 0.336246 -0.605816
O10   O     O_2   0.051669 0.385896 0.192561 -0.575237
O11   O     O_2   0.347965 0.370161 0.790715 -0.601700
O12   O     O_3   0.652980 0.287936 0.389072 -0.647311
O13   O     O_2   0.849120 0.643093 0.204431 -0.619725
O14   O     O_2   0.197806 0.631675 0.809525 -0.566336
O15   O     O_3   0.686580 0.398330 0.583860 -0.488637
O16   O     O_2   0.838135 0.445206 0.668874 -0.417986
O17   O     O_3   0.040357 0.666235 0.638475 -0.611411
O18   O     O_3   0.704595 0.325523 0.671437 -0.592751
O19   O     O_2   0.844570 0.306830 0.467970 -0.460259
O20   O     O_3   0.101900 0.357890 0.557750 -0.481348
O21   O     O_2   0.077487 0.220499 0.501280 -0.453629
O22   O     O_2   0.047219 0.188764 0.341126 -0.597459
O23   O     O_3   0.064181 0.225110 0.598240 -0.602735
O24   O     O_R   0.072902 0.118315 0.404749 -0.741768
O25   O     O_3   0.495452 0.321269 0.296311 -0.684485
O26   O     O_2   0.658323 0.633468 0.747962 -0.594949
O27   O     O_R   0.734707 0.724089 0.707109 -0.713857
O28   O     O_3   0.200212 0.206382 0.725138 -0.715412
O29   O     O_3   0.009243 0.548253 0.720800 -0.661477
O30   O     O_2   0.309259 0.853511 0.563202 -0.601418
O31   O     O_R   0.449269 0.951481 0.596731 -0.762579
O32   O     O_2   0.906476 0.624146 0.517501 -0.603305
O33   O     O_R   0.788326 0.607689 0.441586 -0.774985
O34   O     O_2   0.283330 0.457940 0.380160 -0.440725
O35   O     O_3   0.051340 0.457960 0.440360 -0.500381
O36   O     O_3   0.503130 0.601610 0.416130 -0.444246
O37   O     O_3   0.161494 0.332495 0.370972 -0.596511
O38   O     O_3   0.616890 0.595000 0.528820 -0.470955
O39   O     O_3   0.087820 0.642040 0.442240 -0.470734
P1    P     P_3+3 0.071770 0.565500 0.613330 1.098889
P2    P     P_3+3 0.664870 0.318630 0.453960 0.981606
P3    P     P_3+3 0.156942 0.256906 0.550613 0.968070
P4    P     P_3+3 0.117940 0.434440 0.386660 1.028638
P5    P     P_3+3 0.051975 0.743922 0.444069 0.983776
P6    P     P_3+3 0.678625 0.414679 0.649329 1.012607
P7    P     P_3+3 0.529511 0.694017 0.548975 1.014572
P8    P     P_3+3 0.520534 0.593846 0.350994 0.976909

loop_
_geom_bond_atom_site_label_1
_geom_bond_atom_site_label_2
_ccdc_geom_bond_type
C19   C24   A    
C53   C60   A    
Ba1   P1    S    
C26   O14   D    
H55   O28   S    
C1    H13   S    
C23   H8    S    
C67   O9    S    
C53   P5    S    
C5    C14   S    
O36   P8    S    
C1    H7    S    
O38   P7    S    
C52   O17   S    
C46   P3    S    
C4    O23   S    
C51   C57   A    
C34   C65   S    
C69   H22   S    
C2    O13   D    
C69   H25   S    
O17   P1    S    
C24   C25   A    
O12   P2    S    
C63   H4    S    
C39   H33   S    
O5    P2    S    
C61   H61   S    
C17   C19   A    
C68   O33   S    
C22   C24   A    
Ba1   Ba2   S    
C35   C38   A    
C36   C37   A    
C55   C57   A    
C52   C61   S    
O37   P4    S    
C34   H11   S    
O18   P6    S    
C44   C50   D    
C54   C55   A    
C60   C68   S    
Ba1   O19   S    
C32   C33   S    
C67   C69   S    
C31   P1    S    
C50   P2    S    
C11   C38   A    
O3    P5    S    
C17   C35   A    
C22   C27   A    
C9    C13   A    
C25   C42   A    
C28   H50   S    
C34   H10   S    
C6    C7    D    
C21   C22   A    
O19   P2    D    
C67   H20   S    
C1    H3    S    
C7    C8    S    
C28   O37   S    
C61   H56   S    
Ba2   O35   S    
C37   C43   A    
Ba1   O20   S    
C42   H37   S    
C10   C70   A    
C3    H32   S    
O2    P5    D    
C6    C14   D    
C62   O12   S    
C23   H9    S    
O35   P4    S    
C23   O7    S    
C15   C31   D    
H58   O31   S    
C64   O24   S    
O15   P6    S    
C44   C46   S    
C51   C53   A    
C4    C16   S    
C62   H62   S    
Ba1   O38   S    
C57   C59   S    
C49   H42   S    
C63   H5    S    
C52   H34   S    
C40   H23   S    
C45   H14   S    
C6    P4    S    
C30   P6    S    
C17   C20   A    
C40   H12   S    
C8    N1    S    
C13   C39   A    
O1    P1    D    
C3    C5    S    
C18   C37   A    
C43   H38   S    
C70   N1    Am   
C23   C34   S    
C61   H60   S    
Ba1   O35   S    
C49   C50   D    
C58   C59   D    
C45   H15   S    
C11   H27   S    
C9    C36   A    
C41   C42   A    
O7    P7    S    
C7    H26   S    
C35   C36   A    
C68   O32   D    
Ba2   O39   S    
C12   H1    S    
C47   H46   S    
O4    P1    S    
C48   C49   S    
C44   H48   S    
C41   H35   S    
C29   H28   S    
C28   H51   S    
C56   H18   S    
C1    C12   S    
Ba2   O34   S    
C2    N1    Am   
C46   C47   S    
O6    P7    D    
O20   P3    S    
C59   H41   S    
Ba2   O6    S    
C54   C60   A    
C58   H44   S    
Ba2   P4    S    
O23   P3    S    
C63   O25   S    
H54   O27   S    
C32   O29   S    
C15   H40   S    
C64   O22   D    
C18   C41   A    
Ba1   O1    S    
C15   C30   S    
H59   O33   S    
C62   H2    S    
C26   N2    Am   
C29   C30   S    
H53   O25   S    
C56   H16   S    
C33   N2    S    
C27   O11   D    
C9    C10   A    
O39   P5    S    
C69   H21   S    
C5    P8    S    
O9    P8    S    
C4    H24   S    
C20   H30   S    
H57   O29   S    
O34   P4    D    
Ba2   O4    S    
C62   C63   S    
C2    C13   A    
C48   C58   S    
C3    C8    D    
C39   C43   A    
Ba2   O38   S    
C38   H31   S    
C65   O26   D    
C21   H29   S    
C54   P7    S    
C70   O10   D    
H52   O24   S    
C31   C32   D    
Ba1   O15   S    
C29   C33   D    
O21   P3    D    
C12   H6    S    
C56   H17   S    
O8    P8    D    
Ba1   O5    S    
C16   H49   S    
C66   O31   S    
C65   O27   S    
C27   N2    Am   
C18   C19   A    
C16   O28   S    
C47   C48   D    
C52   H45   S    
C45   O3    S    
C25   C26   A    
C40   C64   S    
Ba2   O5    S    
C4    H36   S    
C20   C21   A    
C28   C40   S    
Ba1   O4    S    
C55   C66   S    
C10   C11   A    
O16   P6    D    
C67   H19   S    
Ba1   P2    S    
C16   H47   S    
C12   O18   S    
C51   H43   S    
C14   H39   S    
Ba2   O36   S    
C45   C56   S    
C66   O30   D    
