data_mof_unit_44508.cif
_audit_creation_date              2012-12-11T15:39:31-0500
_audit_creation_method            fapswitch 2.2
_symmetry_space_group_name_H-M    P1
_symmetry_Int_Tables_number       1
_space_group_crystal_system       triclinic
_cell_length_a                    14.281931
_cell_length_b                    14.793458
_cell_length_c                    33.343618
_cell_angle_alpha                 97.426467
_cell_angle_beta                  90.859159
_cell_angle_gamma                 118.553494
_cell_volume                      6112.16813629

loop_
_atom_site_label
_atom_site_type_symbol
_atom_type_description
_atom_site_fract_x
_atom_site_fract_y
_atom_site_fract_z
_atom_type_partial_charge
C1    C     C_R   0.617260 0.911136 0.437085 0.541312
C2    C     C_R   0.712317 0.438080 0.948999 0.546580
C3    C     C_R   0.573921 0.819212 0.771287 -0.067697
C4    C     C_R   0.580723 0.831531 0.730571 -0.076241
C5    C     C_R   0.637474 0.794020 0.706140 0.013377
C6    C     C_R   0.686268 0.742763 0.722398 -0.124342
C7    C     C_R   0.678732 0.729738 0.763155 -0.060253
C8    C     C_R   0.622935 0.768445 0.787947 0.075595
C9    C     C_R   0.561557 0.742157 0.634723 -0.097125
C10   C     C_R   0.556259 0.769271 0.596598 -0.116129
C11   C     C_R   0.722952 0.930323 0.615648 -0.114716
C12   C     C_3   0.339939 0.760151 0.287972 -0.011227
C13   C     C_R   0.710255 0.739830 0.950390 0.550346
C14   C     C_3   0.344106 0.690159 0.251296 -0.357428
C15   C     C_3   0.053556 0.016003 0.111167 0.029051
C16   C     C_3   0.040804 0.077799 0.080421 -0.324387
C17   C     C_3   0.157998 0.091365 0.352927 -0.007542
C18   C     C_3   0.123586 0.154913 0.330223 -0.291274
C19   C     C_3   0.550509 0.662125 0.412215 -0.004337
C20   C     C_3   0.465366 0.574783 0.431802 -0.353414
C21   C     C_3   0.470275 0.591037 0.171527 -0.019799
C22   C     C_3   0.411966 0.502547 0.195816 -0.361858
C23   C     C_3   0.832112 0.280573 0.924185 -0.001516
C24   C     C_R   0.824198 0.420013 0.162359 0.277244
C25   C     C_3   0.929277 0.294830 0.949317 -0.344158
C26   C     C_3   0.910350 0.398053 0.700018 -0.016718
C27   C     C_3   0.005681 0.406066 0.724333 -0.349002
C28   C     C_3   0.293407 0.760019 0.798796 0.016051
C29   C     C_3   0.340838 0.710584 0.823949 -0.374040
C30   C     C_3   0.245666 0.016082 0.858373 -0.028145
C31   C     C_3   0.304843 0.102323 0.833230 -0.377014
C32   C     C_3   0.970356 0.924926 0.770926 -0.001121
C33   C     C_3   0.934485 0.973449 0.806113 -0.317916
C34   C     C_3   0.438580 0.496602 0.824636 -0.014571
C35   C     C_R   0.826259 0.437929 0.121994 0.251682
C36   C     C_3   0.374580 0.419810 0.786896 -0.364587
C37   C     C_3   0.521217 0.454224 0.290885 0.000554
C38   C     C_3   0.436372 0.449603 0.318759 -0.353897
C39   C     C_R   0.755693 0.318487 0.241415 -0.043874
C40   C     C_R   0.744607 0.306780 0.281989 -0.120284
C41   C     C_R   0.697987 0.356412 0.306148 0.066777
C42   C     C_R   0.664069 0.420393 0.290057 0.320638
C43   C     C_R   0.685712 0.439604 0.250201 -0.104886
C44   C     C_R   0.726673 0.385358 0.225421 0.017719
C45   C     C_R   0.730255 0.393807 0.182112 0.000889
C46   C     C_R   0.564812 0.259133 0.352375 0.250324
C47   C     C_R   0.592801 0.204645 0.456513 0.579340
C48   C     C_R   0.541272 0.225110 0.389556 -0.137953
C49   C     C_R   0.729620 0.324246 0.414443 0.219404
C50   C     C_R   0.752988 0.360655 0.377288 -0.110821
C51   C     C_R   0.671076 0.327763 0.346249 0.024661
C52   C     C_R   0.622956 0.255473 0.420530 -0.006109
C53   C     C_R   0.251034 0.883438 0.392604 -0.063076
C54   C     C_R   0.235669 0.964261 0.381224 -0.152673
C55   C     C_R   0.218179 0.969480 0.339897 0.262487
C56   C     C_R   0.728222 0.902820 0.653779 -0.113677
C57   C     C_R   0.220074 0.894035 0.310197 0.065459
C58   C     C_R   0.231860 0.811299 0.321338 0.220549
C59   C     C_R   0.296326 0.893644 0.434222 0.547584
C60   C     C_R   0.244087 0.804772 0.362416 -0.115658
C61   C     C_R   0.161390 0.785358 0.167780 -0.167075
C62   C     C_R   0.128328 0.758187 0.126739 -0.162590
C63   C     C_R   0.142456 0.928086 0.124749 0.266292
C64   C     C_R   0.181609 0.957106 0.166431 0.259104
C65   C     C_R   0.184273 0.882705 0.188112 -0.000072
C66   C     C_1   0.202176 0.898976 0.231623 0.089159
C67   C     C_R   0.645551 0.810492 0.663803 0.018014
C68   C     C_1   0.211548 0.901013 0.267713 0.128823
C69   C     C_R   0.112829 0.826126 0.104914 -0.010657
C70   C     C_R   0.641798 0.883376 0.395948 -0.025450
C71   C     C_R   0.614276 0.905434 0.551663 0.537121
C72   C     C_R   0.578974 0.784652 0.372115 0.236462
C73   C     C_R   0.589834 0.772624 0.330255 -0.147835
C74   C     C_R   0.665498 0.856403 0.312744 -0.006535
C75   C     C_R   0.734546 0.950878 0.337099 0.234897
C76   C     C_R   0.723019 0.963679 0.378302 -0.136407
C77   C     C_R   0.747761 0.923632 0.172183 0.215214
C78   C     C_R   0.634380 0.865825 0.587363 0.017064
C79   C     C_R   0.763460 0.910370 0.130843 -0.130499
C80   C     C_R   0.648766 0.724274 0.127077 -0.124490
C81   C     C_R   0.631553 0.736282 0.167968 0.219506
C82   C     C_R   0.684144 0.835962 0.190815 0.053835
C83   C     C_R   0.590073 0.199620 0.570932 0.561533
C84   C     C_1   0.676517 0.844543 0.233779 0.115918
C85   C     C_1   0.670015 0.848016 0.269696 0.067508
C86   C     C_R   0.715869 0.810243 0.108168 -0.065722
C87   C     C_R   0.624705 0.252232 0.613568 -0.025016
C88   C     C_R   0.556917 0.279171 0.636200 -0.109278
C89   C     C_R   0.052315 0.780871 0.064081 0.562571
C90   C     C_R   0.574888 0.304589 0.678380 -0.152388
C91   C     C_R   0.662379 0.306262 0.698505 0.034198
C92   C     C_R   0.737463 0.290890 0.675995 0.273452
C93   C     C_R   0.717104 0.261718 0.633683 -0.109344
C94   C     C_R   0.760107 0.339071 0.845241 -0.077296
C95   C     C_R   0.289951 0.887269 0.548897 0.571830
C96   C     C_R   0.767489 0.360684 0.887733 0.246796
C97   C     C_R   0.598328 0.362555 0.883354 -0.178614
C98   C     C_R   0.590864 0.338882 0.841150 -0.131486
C99   C     C_R   0.673642 0.331351 0.821989 0.000132
C100  C     C_R   0.743972 0.484451 0.065548 0.561434
C101  C     C_1   0.672513 0.322418 0.778524 -0.006899
C102  C     C_1   0.669765 0.316193 0.742106 0.019498
C103  C     C_R   0.689396 0.379734 0.907096 0.018330
C104  C     C_R   0.051585 0.742701 0.905591 -0.021926
C105  C     C_R   0.091784 0.839572 0.892360 -0.125290
C106  C     C_R   0.106306 0.847421 0.851048 0.292018
C107  C     C_R   0.736837 0.438381 0.102783 -0.013066
C108  C     C_R   0.071627 0.755529 0.822844 0.096532
C109  C     C_R   0.033904 0.659390 0.836368 -0.139910
C110  C     C_R   0.025727 0.653246 0.877445 -0.150656
C111  C     C_R   0.743854 0.787712 0.066928 0.545413
C112  C     C_R   0.146660 0.726317 0.758538 0.223157
C113  C     C_R   0.159138 0.734195 0.717366 0.241045
C114  C     C_R   0.105959 0.776331 0.696717 -0.051585
C115  C     C_R   0.037921 0.806497 0.716954 -0.189078
C116  C     C_R   0.026349 0.801014 0.758476 0.262610
C117  C     C_R   0.080568 0.759979 0.779106 0.031443
C118  C     C_R   0.178087 0.905966 0.649926 -0.074886
C119  C     C_R   0.642077 0.405265 0.122110 -0.165244
C120  C     C_R   0.222969 0.935695 0.613820 0.228508
C121  C     C_R   0.164225 0.753830 0.587642 -0.142214
C122  C     C_R   0.018781 0.730221 0.946807 0.547557
C123  C     C_R   0.118699 0.725051 0.623633 -0.075298
C124  C     C_R   0.131060 0.801682 0.655724 0.023387
C125  C     C_R   0.221847 0.859614 0.583025 0.030589
C126  C     C_R   0.660849 0.743991 0.912297 -0.057490
C127  C     C_R   0.605672 0.653522 0.883720 -0.135455
C128  C     C_R   0.583582 0.660081 0.843271 0.230671
C129  C     C_R   0.620875 0.759189 0.831543 0.034354
C130  C     C_R   0.665524 0.849060 0.861471 0.178087
C131  C     C_R   0.638389 0.381551 0.161019 -0.151869
C132  C     C_R   0.685660 0.840713 0.901446 -0.099722
Cl1   Cl    Cl    0.943042 0.441203 0.188921 -0.526875
Cl2   Cl    Cl    0.460751 0.205849 0.312991 -0.567933
Cl3   Cl    Cl    0.835088 0.366346 0.452376 -0.585117
Cl4   Cl    Cl    0.229811 0.086068 0.191222 -0.551764
Cl5   Cl    Cl    0.942413 0.460102 0.097104 -0.552924
Cl6   Cl    Cl    0.813182 0.050046 0.200304 -0.537525
Cl7   Cl    Cl    0.831639 0.057821 0.316500 -0.589379
Cl8   Cl    Cl    0.248209 0.697615 0.693398 -0.636696
Cl9   Cl    Cl    0.286243 0.069745 0.610808 -0.621963
Cl10  Cl    Cl    0.707803 0.975256 0.849974 -0.715437
Cr1   Cr    Cr6+3 0.424820 0.846020 0.489780 1.042801
Cr2   Cr    Cr6+3 0.657880 0.078580 0.505700 1.073844
Cr3   Cr    Cr6+3 0.417280 0.075360 0.504550 1.071950
Cr4   Cr    Cr6+3 0.903360 0.812540 0.006510 1.018067
Cr5   Cr    Cr6+3 0.914630 0.587050 0.006280 1.093279
Cr6   Cr    Cr6+3 0.673560 0.582680 0.008540 1.009676
H1    H     H_    0.571528 0.401795 0.107854 0.154455
H2    H     H_    0.537582 0.698913 0.311342 0.120817
H3    H     H_    0.835171 0.412524 0.372172 0.163745
H4    H     H_    0.823880 0.331962 0.830465 0.133344
H5    H     H_    0.771140 0.242159 0.617005 0.145032
H6    H     H_    0.486171 0.274477 0.621623 0.193929
H7    H     H_    0.522886 0.331500 0.823315 0.120751
H8    H     H_    0.536336 0.375051 0.897027 0.127292
H9    H     H_    0.517797 0.318491 0.695444 0.131764
H10   H     H_    0.109131 0.908050 0.913939 0.113646
H11   H     H_    0.992637 0.577229 0.886827 0.180681
H12   H     H_    0.459190 0.169668 0.393381 0.162463
H13   H     H_    0.079661 0.643714 0.627377 0.152464
H14   H     H_    0.766429 0.254071 0.294002 0.180568
H15   H     H_    0.995516 0.836009 0.700275 0.112076
H16   H     H_    0.185795 0.965322 0.674539 0.138549
H17   H     H_    0.009015 0.588694 0.814933 0.140860
H18   H     H_    0.159209 0.693333 0.564195 0.151866
H19   H     H_    0.588422 0.578989 0.891937 0.131859
H20   H     H_    0.784467 0.273620 0.222361 0.210492
H21   H     H_    0.727141 0.910896 0.923591 0.164143
H22   H     H_    0.793073 0.956441 0.676307 0.121468
H23   H     H_    0.108647 0.680351 0.112771 0.214749
H24   H     H_    0.542914 0.871506 0.718162 0.149402
H25   H     H_    0.532254 0.851024 0.789947 0.140580
H26   H     H_    0.730731 0.713995 0.703733 0.118699
H27   H     H_    0.718533 0.691669 0.775655 0.167827
H28   H     H_    0.496935 0.670952 0.642391 0.145799
H29   H     H_    0.487320 0.717685 0.575394 0.136192
H30   H     H_    0.564751 0.358712 0.175602 0.145783
H31   H     H_    0.784278 0.005120 0.609428 0.143004
H32   H     H_    0.665873 0.492932 0.237662 0.119616
H33   H     H_    0.372992 0.745646 0.315380 0.153643
H34   H     H_    0.165379 0.728248 0.184081 0.173478
H35   H     H_    0.391369 0.842618 0.283414 0.142965
H36   H     H_    0.312239 0.703356 0.223344 0.163625
H37   H     H_    0.428290 0.708312 0.248121 0.100148
H38   H     H_    0.295728 0.607168 0.255126 0.181376
H39   H     H_    0.066024 0.061183 0.141879 0.203185
H40   H     H_    0.978247 0.940662 0.109408 0.146222
H41   H     H_    0.025705 0.033911 0.049249 0.168513
H42   H     H_    0.972672 0.092158 0.086923 0.118603
H43   H     H_    0.114777 0.154019 0.082126 0.168134
H44   H     H_    0.212926 0.144201 0.379702 0.131648
H45   H     H_    0.256004 0.742060 0.370383 0.170720
H46   H     H_    0.085022 0.027326 0.362944 0.135577
H47   H     H_    0.068887 0.104988 0.302997 0.228681
H48   H     H_    0.081328 0.186530 0.350324 0.142950
H49   H     H_    0.194820 0.220811 0.320482 0.176384
H50   H     H_    0.607554 0.722497 0.437022 0.130469
H51   H     H_    0.594699 0.630437 0.393131 0.151394
H52   H     H_    0.406493 0.512210 0.408171 0.154301
H53   H     H_    0.503429 0.541326 0.449990 0.108648
H54   H     H_    0.422844 0.605650 0.452125 0.165301
H55   H     H_    0.462835 0.555495 0.139364 0.132919
H56   H     H_    0.243971 0.026310 0.404496 0.124977
H57   H     H_    0.430433 0.640200 0.173721 0.135489
H58   H     H_    0.417699 0.534097 0.228338 0.136720
H59   H     H_    0.326257 0.456643 0.184187 0.146135
H60   H     H_    0.448098 0.450396 0.193003 0.156199
H61   H     H_    0.810344 0.215713 0.898556 0.180782
H62   H     H_    0.764823 0.259224 0.944009 0.133900
H63   H     H_    0.952031 0.358259 0.975455 0.180743
H64   H     H_    0.910375 0.221486 0.960974 0.112695
H65   H     H_    0.997697 0.314994 0.930323 0.154527
H66   H     H_    0.887237 0.453745 0.716711 0.129274
H67   H     H_    0.815199 0.977275 0.116969 0.152644
H68   H     H_    0.935416 0.421077 0.669807 0.140949
H69   H     H_    0.031353 0.351759 0.708601 0.167195
H70   H     H_    0.073368 0.486772 0.727487 0.179577
H71   H     H_    0.983778 0.386226 0.755071 0.154274
H72   H     H_    0.282546 0.818475 0.819799 0.119617
H73   H     H_    0.350570 0.800718 0.776671 0.170042
H74   H     H_    0.360876 0.657868 0.803597 0.175429
H75   H     H_    0.414588 0.771974 0.842332 0.111024
H76   H     H_    0.282444 0.665187 0.844824 0.158721
H77   H     H_    0.297588 0.981048 0.864194 0.121627
H78   H     H_    0.773968 0.039713 0.395911 0.188424
H79   H     H_    0.232299 0.051613 0.887664 0.133771
H80   H     H_    0.256215 0.140234 0.827231 0.148172
H81   H     H_    0.382172 0.161636 0.850014 0.108008
H82   H     H_    0.320726 0.069632 0.803851 0.159988
H83   H     H_    0.918996 0.911996 0.743088 0.121575
H84   H     H_    0.055241 0.981413 0.767211 0.149130
H85   H     H_    0.987879 0.993058 0.834075 0.192189
H86   H     H_    0.936663 0.045583 0.798877 0.123313
H87   H     H_    0.851761 0.917553 0.811625 0.207148
H88   H     H_    0.390215 0.532100 0.837892 0.122647
H89   H     H_    0.615470 0.645623 0.110979 0.155257
H90   H     H_    0.451331 0.452637 0.846764 0.121229
H91   H     H_    0.419989 0.382153 0.772970 0.154642
H92   H     H_    0.297167 0.358697 0.795149 0.093268
H93   H     H_    0.358467 0.461109 0.764446 0.175551
H94   H     H_    0.482337 0.382603 0.267573 0.182093
H95   H     H_    0.547597 0.524154 0.275741 0.130914
H96   H     H_    0.465929 0.525365 0.338594 0.167397
H97   H     H_    0.362976 0.433289 0.300372 0.114398
H98   H     H_    0.416037 0.387246 0.337677 0.200989
O1    O     O_R   0.318160 0.824460 0.443680 -0.498731
O2    O     O_R   0.668160 0.499860 0.053480 -0.533118
O3    O     O_R   0.689170 0.693840 0.050110 -0.503291
O4    O     O_R   0.525040 0.857250 0.449830 -0.460006
O5    O     O_R   0.803860 0.812940 0.962540 -0.508155
O6    O     O_R   0.982950 0.787950 0.964120 -0.498878
O7    O     O_R   0.007050 0.649970 0.960540 -0.498071
O8    O     O_R   0.807910 0.482370 0.965590 -0.449980
O9    O     O_R   0.643310 0.460980 0.963840 -0.532087
O10   O     O_R   0.666140 0.657800 0.967020 -0.498963
O11   O     O_3   0.830520 0.660760 0.007110 -0.257837
O12   O     O_R   0.645130 0.163230 0.552140 -0.497532
O13   O     O_R   0.684760 0.998800 0.456360 -0.520587
O14   O     O_R   0.647540 0.166310 0.470260 -0.445427
O15   O     O_R   0.500960 0.181750 0.467450 -0.534540
O16   O     O_R   0.331100 0.981120 0.457080 -0.508801
O17   O     O_R   0.315560 0.821140 0.532010 -0.523622
O18   O     O_R   0.522630 0.854180 0.531710 -0.506552
O19   O     O_R   0.682160 0.995480 0.544690 -0.514173
O20   O     O_3   0.232701 0.737074 0.291750 -0.540645
O21   O     O_3   0.142042 0.000777 0.102577 -0.532581
O22   O     O_3   0.211846 0.052384 0.326860 -0.498451
O23   O     O_R   0.498360 0.178430 0.555780 -0.471678
O24   O     O_3   0.500745 0.702289 0.388331 -0.554532
O25   O     O_3   0.578433 0.649988 0.187418 -0.571312
O26   O     O_3   0.857494 0.374165 0.909460 -0.561047
O27   O     O_3   0.825585 0.294570 0.695446 -0.554811
O28   O     O_3   0.195537 0.681036 0.778246 -0.549493
O29   O     O_3   0.146609 0.942247 0.836951 -0.560340
O30   O     O_3   0.957697 0.828495 0.779246 -0.544006
O31   O     O_3   0.537846 0.572153 0.813700 -0.561598
O32   O     O_3   0.609875 0.461696 0.313791 -0.548403
O33   O     O_R   0.328690 0.978040 0.538950 -0.435648
O34   O     O_3   0.499990 0.999990 0.500010 -0.265018
O35   O     O_R   0.828710 0.851830 0.052170 -0.533225
O36   O     O_R   0.005980 0.823990 0.047210 -0.478782
O37   O     O_R   0.031900 0.688850 0.050170 -0.496281
O38   O     O_R   0.830940 0.518420 0.048680 -0.442128

loop_
_geom_bond_atom_site_label_1
_geom_bond_atom_site_label_2
_ccdc_geom_bond_type
C24   Cl1   S    
C119  H1    S    
C29   H76   S    
C83   C87   S    
C87   C88   A    
C32   H84   S    
C36   H92   S    
C101  C102  T    
C37   H95   S    
Cr1   O4    S    
C73   H2    S    
C41   C42   A    
C21   H55   S    
C59   O16   A    
C66   C68   T    
Cr2   O19   S    
C81   O25   S    
Cr6   O11   S    
C5    C67   S    
C34   H88   S    
C128  C129  A    
C122  O7    A    
C64   Cl4   S    
C114  C115  A    
C10   C78   A    
C33   H85   S    
C123  C124  A    
C53   C54   A    
C47   O15   A    
C27   H71   S    
C62   H23   S    
C48   H12   S    
C118  H16   S    
Cr6   O3    S    
C126  C127  A    
C9    H28   S    
C32   O30   S    
C24   C45   A    
C94   C99   A    
C26   H68   S    
C28   C29   S    
C16   H43   S    
C112  O28   S    
C20   H53   S    
C129  C130  A    
C17   O22   S    
C15   O21   S    
C112  C117  A    
C14   H38   S    
C12   H35   S    
C104  C122  S    
C58   C60   A    
C115  C116  A    
C38   H98   S    
C31   H82   S    
C97   C98   A    
Cr6   O2    S    
C108  C109  A    
C22   H58   S    
C83   O12   A    
Cr3   O23   S    
C73   C74   A    
C97   H8    S    
C21   H57   S    
C39   H20   S    
C25   H63   S    
Cr2   O13   S    
C20   H52   S    
C80   C86   A    
C121  C125  A    
C54   C55   A    
C50   H3    S    
C131  H30   S    
C6    C7    A    
C63   C69   A    
Cr1   O1    S    
C28   H73   S    
C19   H50   S    
C7    H27   S    
C17   C18   S    
C22   H59   S    
C119  C131  A    
C127  C128  A    
C83   O23   A    
C9    C10   A    
Cr4   O36   S    
C37   O32   S    
C114  C124  S    
C36   H91   S    
C79   H67   S    
C49   Cl3   S    
C32   H83   S    
C30   O29   S    
C28   H72   S    
C21   C22   S    
C2    O9    A    
C72   O24   S    
C111  O35   A    
C30   H77   S    
C58   O20   S    
C17   H46   S    
Cr3   O33   S    
C39   C44   A    
C42   O32   S    
C69   C89   S    
C2    O8    A    
C107  C119  A    
C112  C113  A    
C53   C60   A    
C3    H25   S    
C60   H45   S    
C81   C82   A    
C19   O24   S    
C57   C58   A    
C77   C79   A    
C17   H44   S    
C53   C59   S    
C29   H74   S    
C13   O5    A    
C46   C48   A    
C23   O26   S    
C89   O37   A    
C24   C35   A    
C95   O33   A    
C74   C75   A    
C106  O29   S    
C18   H48   S    
C6    H26   S    
C7    C8    A    
C84   C85   T    
C3    C8    A    
C91   C92   A    
C14   H37   S    
C120  C125  A    
C80   C81   A    
C26   C27   S    
C23   H61   S    
C63   O21   S    
C38   H97   S    
C15   H39   S    
C46   C51   A    
Cr5   O7    S    
C2    C103  S    
C62   C69   A    
Cr4   O6    S    
C93   H5    S    
C88   H6    S    
C80   H89   S    
Cr5   O11   S    
C25   H64   S    
C130  C132  A    
C75   C76   A    
C9    C67   A    
C40   H14   S    
C37   C38   S    
C100  O2    A    
C11   C78   A    
C46   Cl2   S    
Cr5   O37   S    
C95   C125  S    
C28   O28   S    
C12   H33   S    
C126  C132  A    
C47   O14   A    
C49   C52   A    
C100  O38   A    
C18   H49   S    
C116  O30   S    
C50   C51   A    
C89   O36   A    
C113  Cl8   S    
C22   H60   S    
Cr2   O34   S    
C118  C124  A    
C27   H69   S    
C77   Cl6   S    
C94   C96   A    
C92   C93   A    
C97   C103  A    
Cr4   O35   S    
C109  H17   S    
Cr6   O9    S    
C76   H78   S    
C13   C126  S    
C118  C120  A    
C40   C41   A    
C99   C101  S    
C34   O31   S    
C12   C14   S    
C70   C72   A    
Cr6   O10   S    
C121  H18   S    
C82   C84   S    
C55   C57   A    
C43   C44   A    
Cr3   O15   S    
C49   C50   A    
C104  C110  A    
Cr3   O34   S    
Cr1   O17   S    
C132  H21   S    
C36   H93   S    
C57   C68   S    
C43   H32   S    
C3    C4    A    
C56   C67   A    
C79   C86   A    
C128  O31   S    
C39   C40   A    
Cr2   O12   S    
C44   C45   S    
C21   O25   S    
C113  C114  A    
C105  C106  A    
C71   O18   A    
C29   H75   S    
C123  H13   S    
C98   H7    S    
C16   H42   S    
C100  C107  S    
C37   H94   S    
C4    H24   S    
C56   H22   S    
C18   H47   S    
C1    O4    A    
C10   H29   S    
C30   H79   S    
C61   H34   S    
C55   O22   S    
C88   C90   A    
C72   C73   A    
Cr3   O16   S    
C71   O19   A    
C33   H87   S    
C104  C105  A    
C26   O27   S    
C14   H36   S    
C45   C131  A    
C47   C52   S    
C23   H62   S    
C31   H80   S    
C96   O26   S    
C111  O3    A    
C38   H96   S    
C15   H40   S    
Cr5   O8    S    
C19   H51   S    
C1    C70   S    
C33   H86   S    
Cr4   O5    S    
C26   H66   S    
C64   C65   A    
C19   C20   S    
C25   H65   S    
C86   C111  S    
C20   H54   S    
C105  H10   S    
C75   Cl7   S    
C109  C110  A    
C32   C33   S    
C70   C76   A    
Cr5   O38   S    
C13   O10   A    
C30   C31   S    
C90   C91   A    
C120  Cl9   S    
C106  C108  A    
C77   C82   A    
C90   H9    S    
C54   H56   S    
C31   H81   S    
C95   O17   A    
Cr1   O34   S    
C87   C93   A    
C116  C117  A    
C34   C36   S    
C65   C66   S    
C74   C85   S    
C115  H15   S    
C61   C62   A    
C34   H90   S    
C12   O20   S    
C121  C123  A    
C108  C117  S    
C35   C107  A    
C16   H41   S    
C110  H11   S    
Cr2   O14   S    
C122  O6    A    
C63   C64   A    
C61   C65   A    
C4    C5    A    
C23   C25   S    
C11   H31   S    
C27   H70   S    
C127  H19   S    
C98   C99   A    
C42   C43   A    
C96   C103  A    
C8    C129  S    
C5    C6    A    
C130  Cl10  S    
Cr4   O11   S    
C59   O1    A    
Cr1   O18   S    
C91   C102  S    
C92   O27   S    
C48   C52   A    
C94   H4    S    
C41   C51   S    
C71   C78   S    
C35   Cl5   S    
C11   C56   A    
C15   C16   S    
C1    O13   A    
