data_mof_unit_46572.cif
_audit_creation_date              2012-12-10T17:25:37-0500
_audit_creation_method            fapswitch 2.2
_symmetry_space_group_name_H-M    P1
_symmetry_Int_Tables_number       1
_space_group_crystal_system       triclinic
_cell_length_a                    10.278554
_cell_length_b                    10.735903
_cell_length_c                    23.42459
_cell_angle_alpha                 92.511775
_cell_angle_beta                  80.947968
_cell_angle_gamma                 95.636903
_cell_volume                      2539.29782257

loop_
_atom_site_label
_atom_site_type_symbol
_atom_type_description
_atom_site_fract_x
_atom_site_fract_y
_atom_site_fract_z
_atom_type_partial_charge
C1    C     C_R   0.555608 0.732338 0.494237 0.936161
C2    C     C_R   0.389124 0.464562 0.304762 -0.240583
C3    C     C_R   0.614644 0.533166 0.753766 -0.140738
C4    C     C_R   0.386255 0.467981 0.246068 -0.141541
C5    C     C_R   0.502828 0.486828 0.791019 0.281243
C6    C     C_R   0.498001 0.515307 0.209032 0.281252
C7    C     C_2   0.586678 0.864065 0.484108 -0.371744
C8    C     C_2   0.413221 0.134030 0.495771 -0.371688
C9    C     C_2   0.488536 0.931023 0.476590 -0.139837
C10   C     C_2   0.511276 0.064301 0.475007 -0.138841
C11   C     C_2   0.928497 0.512523 0.504799 0.225347
C12   C     C_R   0.444380 0.267309 0.501611 0.935543
C13   C     C_2   0.071517 0.487496 0.495185 0.223324
C14   C     C_R   0.498622 0.497552 0.610444 0.874958
C15   C     C_R   0.501398 0.502546 0.389566 0.865480
C16   C     C_R   0.519137 0.403072 0.118105 0.512625
C17   C     C_R   0.482549 0.599366 0.881877 0.512701
C18   C     C_R   0.468349 0.616090 0.122960 0.511233
C19   C     C_R   0.533094 0.386276 0.877042 0.511208
C20   C     C_R   0.471545 0.616754 0.062464 -0.026996
C21   C     C_R   0.530269 0.385722 0.937515 -0.027025
C22   C     C_R   0.498709 0.504207 0.030235 -0.057535
C23   C     C_R   0.385854 0.440780 0.769943 0.240333
C24   C     C_R   0.503190 0.498296 0.969738 -0.057492
C25   C     C_R   0.521546 0.397107 0.058456 -0.051029
C26   C     C_R   0.480362 0.605398 0.941515 -0.051057
C27   C     C_R   0.450009 0.724290 0.032871 0.164503
C28   C     C_R   0.552032 0.278249 0.967097 0.164434
C29   C     C_R   0.454691 0.716366 0.972959 -0.155315
C30   C     C_R   0.547390 0.286189 0.027004 -0.155360
C31   C     C_3   0.422896 0.849048 0.062614 -0.771016
C32   C     C_3   0.579383 0.153550 0.937345 -0.770854
C33   C     C_3   0.266188 0.392294 0.811892 -0.847824
C34   C     C_R   0.614542 0.561806 0.230350 0.239904
C35   C     C_3   0.734184 0.611293 0.188644 -0.847882
C36   C     C_3   0.112073 0.385378 0.451371 -0.848625
C37   C     C_3   0.887953 0.614664 0.548597 -0.849352
C38   C     C_R   0.382509 0.442450 0.710213 0.067480
C39   C     C_R   0.617531 0.559548 0.290088 0.067212
C40   C     C_R   0.496204 0.492274 0.672786 -0.113691
C41   C     C_R   0.504018 0.508539 0.327259 -0.110251
C42   C     C_R   0.611480 0.535914 0.695076 -0.239787
H1    H     H_    0.127727 0.620192 0.553053 0.156156
H2    H     H_    0.387569 0.889152 0.477042 0.190755
H3    H     H_    0.312649 0.092809 0.509119 0.153718
H4    H     H_    0.687281 0.906570 0.483798 0.153785
H5    H     H_    0.507129 0.885764 0.084830 0.267446
H6    H     H_    0.410691 0.920904 0.031625 0.202131
H7    H     H_    0.329616 0.838801 0.093842 0.271623
H8    H     H_    0.495073 0.116548 0.915237 0.267594
H9    H     H_    0.672501 0.164006 0.906024 0.271587
H10   H     H_    0.592035 0.081817 0.968313 0.202090
H11   H     H_    0.289679 0.310109 0.834189 0.251677
H12   H     H_    0.872263 0.379790 0.446954 0.154033
H13   H     H_    0.238074 0.466718 0.844656 0.236396
H14   H     H_    0.178512 0.362921 0.790728 0.258425
H15   H     H_    0.762891 0.537411 0.155688 0.236125
H16   H     H_    0.710377 0.693643 0.166562 0.252125
H17   H     H_    0.821587 0.640734 0.209978 0.258255
H18   H     H_    0.220454 0.461231 0.672524 0.217084
H19   H     H_    0.291490 0.324056 0.655295 0.199249
H20   H     H_    0.779590 0.541630 0.327914 0.216701
H21   H     H_    0.707107 0.677947 0.345468 0.199675
H22   H     H_    0.090268 0.408891 0.408373 0.198683
H23   H     H_    0.437950 0.798231 0.950585 0.191756
H24   H     H_    0.216022 0.369736 0.445117 0.295999
H25   H     H_    0.056786 0.294800 0.465081 0.203553
H26   H     H_    0.909776 0.591179 0.591595 0.199278
H27   H     H_    0.943241 0.705231 0.534871 0.203039
H28   H     H_    0.783997 0.630287 0.554855 0.296281
H29   H     H_    0.564227 0.204351 0.049373 0.191734
H30   H     H_    0.699013 0.574020 0.667079 0.167463
H31   H     H_    0.301711 0.425655 0.332596 0.167466
H32   H     H_    0.703756 0.568646 0.770668 0.152285
H33   H     H_    0.297485 0.432153 0.228981 0.152346
H34   H     H_    0.612216 0.104916 0.461764 0.188365
N1    N     N_R   0.494106 0.511287 0.148481 -0.346894
N2    N     N_R   0.507252 0.491053 0.851527 -0.346998
N3    N     N_2   0.842710 0.448880 0.476480 -0.201191
N4    N     N_2   0.157290 0.551120 0.523520 -0.201973
N5    N     N_3   0.265512 0.389723 0.688394 -0.454493
N6    N     N_3   0.733935 0.612914 0.312195 -0.454668
O1    O     O_R   0.431060 0.692470 0.504730 -0.603727
O2    O     O_2   0.459021 0.700555 0.854114 -0.558577
O3    O     O_2   0.440609 0.718090 0.156598 -0.563184
O4    O     O_2   0.560471 0.284167 0.843422 -0.562752
O5    O     O_R   0.568940 0.307530 0.495270 -0.603061
O6    O     O_R   0.651120 0.659650 0.489640 -0.625059
O7    O     O_R   0.348880 0.340350 0.510360 -0.624417
O8    O     O_R   0.389950 0.516450 0.591390 -0.619368
O9    O     O_R   0.610050 0.483550 0.408610 -0.623442
O10   O     O_R   0.610020 0.483630 0.576300 -0.612632
O11   O     O_R   0.389980 0.516370 0.423700 -0.617097
O12   O     O_2   0.542709 0.301885 0.145860 -0.558817
Zn1   Zn    Zn3+2 0.353060 0.521920 0.510080 0.932310
Zn2   Zn    Zn3+2 0.646940 0.478080 0.489920 0.932286

loop_
_geom_bond_atom_site_label_1
_geom_bond_atom_site_label_2
_ccdc_geom_bond_type
C33   H13   S    
O6    Zn2   S    
C3    C42   A    
C16   C25   A    
C37   H27   S    
C27   C29   A    
C19   O4    S    
C30   H29   S    
C36   H25   S    
O8    Zn1   S    
C39   C41   A    
C35   H16   S    
C17   C26   A    
C19   C21   A    
C24   C26   A    
C34   C35   S    
C36   H24   S    
C2    C41   A    
C37   H26   S    
O10   Zn2   S    
C35   H17   S    
C16   N1    A    
C11   C37   S    
C3    H32   S    
C8    H3    S    
C32   H10   S    
C4    H33   S    
O9    Zn2   S    
C10   H34   S    
C14   O8    A    
C23   C33   S    
C22   C25   A    
C9    C10   S    
C1    O6    A    
C40   C42   A    
H20   N6    S    
C13   N4    D    
O11   Zn1   S    
C31   H5    S    
C37   H28   S    
C31   H7    S    
C33   H11   S    
C18   O3    S    
H21   N6    S    
C27   C31   S    
C34   C39   A    
C7    H4    S    
C12   O7    A    
C28   C32   S    
C15   C41   S    
C13   C36   S    
C4    C6    A    
C6    N1    S    
H1    N4    S    
C15   O9    A    
C6    C34   A    
O7    Zn1   S    
C19   N2    A    
C2    C4    A    
C32   H9    S    
H18   N5    S    
C5    C23   A    
C8    C12   S    
O1    Zn1   S    
O5    Zn2   S    
C42   H30   S    
N4    Zn1   S    
C14   O10   A    
C2    H31   S    
C11   N3    D    
C29   H23   S    
C21   C28   A    
C20   C22   A    
C31   H6    S    
C38   N5    S    
C22   C24   A    
H12   N3    S    
C25   C30   A    
C7    C9    D    
C9    H2    S    
C12   O5    A    
C1    C7    S    
C39   N6    S    
C3    C5    A    
C15   O11   A    
C20   C27   A    
C1    O1    A    
C23   C38   A    
C16   O12   S    
C35   H15   S    
C17   O2    S    
C28   C30   A    
N3    Zn2   S    
H19   N5    S    
C38   C40   A    
C11   C13   S    
C33   H14   S    
C18   N1    A    
C17   N2    A    
C32   H8    S    
C18   C20   A    
C14   C40   S    
C26   C29   A    
C8    C10   D    
C21   C24   A    
C5    N2    S    
C36   H22   S    
