data_mof_unit_42309.cif
_audit_creation_date              2013-03-05T15:48:44-0500
_audit_creation_method            fapswitch 2.2
_symmetry_space_group_name_H-M    P1
_symmetry_Int_Tables_number       1
_space_group_crystal_system       triclinic
_cell_length_a                    22.337381
_cell_length_b                    6.940561
_cell_length_c                    19.392893
_cell_angle_alpha                 90.008645
_cell_angle_beta                  99.078984
_cell_angle_gamma                 90.005253
_cell_volume                      2968.88996533

loop_
_atom_site_label
_atom_site_type_symbol
_atom_site_description
_atom_site_fract_x
_atom_site_fract_y
_atom_site_fract_z
_atom_type_partial_charge
O1    O     O_R   0.448420 0.506120 0.415750 -0.572490
O2    O     O_R   0.551580 0.006120 0.584250 -0.572497
O3    O     O_R   0.436490 0.174470 0.555610 -0.573721
O4    O     O_R   0.563510 0.674470 0.444390 -0.573904
C1    C     C_R   0.421228 0.344674 0.575987 0.973588
C2    C     C_R   0.578772 0.844670 0.424013 0.973705
O5    O     O_R   0.441310 0.176330 0.414520 -0.600468
O6    O     O_R   0.558690 0.676330 0.585480 -0.600241
O7    O     O_R   0.556430 0.007110 0.442150 -0.587800
O8    O     O_R   0.443570 0.507110 0.557850 -0.587636
C3    C     C_R   0.427308 0.344883 0.388073 1.006369
C4    C     C_R   0.572686 0.844932 0.611930 1.007280
O9    O     O_3   0.537770 0.339560 0.509230 -0.269690
O10   O     O_3   0.462230 0.839560 0.490770 -0.269539
V1    V     V_3+5 0.492990 0.064280 0.498290 1.206344
V2    V     V_3+5 0.507010 0.564280 0.501710 1.206363
C5    C     C_R   0.865572 0.943359 0.696877 -0.160342
C6    C     C_R   0.134533 0.446297 0.303091 -0.160369
H1    H     H_    0.953442 0.945382 0.759450 0.118970
H2    H     H_    0.046637 0.448433 0.240587 0.118982
H3    H     H_    0.783166 0.960208 0.583142 0.121083
H4    H     H_    0.217017 0.464580 0.416722 0.121129
H5    H     H_    0.884399 0.953290 0.648793 0.114155
H6    H     H_    0.115753 0.457683 0.351171 0.114161
C7    C     C_R   0.882629 0.937627 0.823104 -0.242477
C8    C     C_R   0.117383 0.437885 0.176884 -0.242436
C9    C     C_R   0.587475 0.796384 0.741113 -0.091377
C10   C     C_R   0.412399 0.294328 0.259013 -0.090897
C11   C     C_R   0.626522 0.769674 0.804255 -0.136600
C12   C     C_R   0.373305 0.266700 0.195964 -0.136764
C13   C     C_R   0.688446 0.803081 0.809758 -0.091996
C14   C     C_R   0.311418 0.300835 0.190418 -0.092067
C15   C     C_R   0.714319 0.873205 0.752948 0.115047
C16   C     C_R   0.285656 0.372659 0.247068 0.114914
C17   C     C_R   0.675812 0.886092 0.686689 0.104839
C18   C     C_R   0.324214 0.386584 0.313270 0.104898
C19   C     C_R   0.778198 0.913228 0.758388 -0.063305
C20   C     C_R   0.221820 0.413389 0.241578 -0.063366
C21   C     C_R   0.802746 0.932164 0.695411 0.166879
C22   C     C_R   0.197339 0.434172 0.304532 0.166929
C23   C     C_R   0.764549 0.940211 0.630999 -0.206471
C24   C     C_R   0.235580 0.443198 0.368898 -0.206596
C25   C     C_R   0.702113 0.924078 0.626860 -0.198700
C26   C     C_R   0.297994 0.426301 0.373027 -0.199012
C27   C     C_R   0.819083 0.933842 0.823167 0.273769
C28   C     C_R   0.180915 0.433033 0.176772 0.273690
C29   C     C_R   0.905021 0.939497 0.759903 -0.228948
C30   C     C_R   0.095041 0.441639 0.240105 -0.229051
C31   C     C_R   0.612227 0.850339 0.680977 -0.274791
C32   C     C_R   0.387753 0.350021 0.319028 -0.274353
H7    H     H_    0.715532 0.763228 0.858584 0.176427
H8    H     H_    0.284260 0.260184 0.141722 0.176528
H9    H     H_    0.609081 0.720025 0.850201 0.170730
H10   H     H_    0.390681 0.215730 0.150146 0.170557
H11   H     H_    0.674846 0.933658 0.575621 0.099745
H12   H     H_    0.325298 0.436692 0.424224 0.100288
C33   C     C_3   0.807900 0.750254 0.261760 -0.398910
C34   C     C_3   0.192104 0.250205 0.738243 -0.398892
C35   C     C_3   0.785445 0.103945 0.247054 -0.397752
C36   C     C_3   0.214558 0.603922 0.752955 -0.397837
C37   C     C_3   0.737310 0.086532 0.296727 -0.393461
C38   C     C_3   0.262691 0.586500 0.703281 -0.393301
H13   H     H_    0.781968 0.755097 0.366310 0.152190
H14   H     H_    0.218033 0.254984 0.633694 0.152216
H15   H     H_    0.853057 0.780940 0.293084 0.151535
H16   H     H_    0.146945 0.280838 0.706920 0.151548
H17   H     H_    0.772554 0.223225 0.209267 0.160993
H18   H     H_    0.227451 0.723238 0.790744 0.161030
H19   H     H_    0.830157 0.141961 0.278024 0.151139
H20   H     H_    0.169846 0.641885 0.721988 0.151144
H21   H     H_    0.759126 0.116187 0.351338 0.152434
H22   H     H_    0.240875 0.616099 0.648670 0.152371
H23   H     H_    0.701537 0.197611 0.282588 0.156525
H24   H     H_    0.298464 0.697611 0.717420 0.156587
C39   C     C_1   0.624367 0.854945 0.378334 -0.241287
C40   C     C_1   0.375633 0.354947 0.621666 -0.241748
C41   C     C_3   0.790708 0.912436 0.207084 0.395114
C42   C     C_3   0.209296 0.412438 0.792923 0.394929
C43   C     C_3   0.759736 0.732801 0.311376 -0.392167
C44   C     C_3   0.240266 0.232743 0.688627 -0.392166
C45   C     C_3   0.708291 0.882703 0.292067 0.397927
C46   C     C_3   0.291711 0.382693 0.707936 0.398074
C47   C     C_3   0.679135 0.847233 0.215043 -0.379006
C48   C     C_3   0.320869 0.347300 0.784960 -0.379452
C49   C     C_3   0.727308 0.864538 0.165375 -0.361828
C50   C     C_3   0.272697 0.364614 0.834629 -0.361370
C51   C     C_1   0.662155 0.866448 0.339674 -0.088865
C52   C     C_1   0.337845 0.366439 0.660327 -0.089036
C53   C     C_1   0.837014 0.928478 0.159637 -0.083673
C54   C     C_1   0.162992 0.428482 0.840371 -0.083564
C55   C     C_1   0.875111 0.939676 0.121327 -0.224023
C56   C     C_1   0.124894 0.439672 0.878680 -0.223986
H25   H     H_    0.729380 0.726781 0.136464 0.170922
H26   H     H_    0.270625 0.226875 0.863537 0.170985
H27   H     H_    0.713319 0.979041 0.125954 0.179255
H28   H     H_    0.286687 0.479152 0.874053 0.179322
H29   H     H_    0.658267 0.701283 0.209734 0.167560
H30   H     H_    0.341737 0.201366 0.790265 0.167538
H31   H     H_    0.811557 0.610251 0.234730 0.156258
H32   H     H_    0.188446 0.110221 0.765272 0.156277
H33   H     H_    0.740441 0.584592 0.307871 0.156057
H34   H     H_    0.259562 0.084548 0.692128 0.156036
H35   H     H_    0.642222 0.953585 0.199292 0.186361
H36   H     H_    0.357783 0.453685 0.800711 0.186451
O11   O     O_R   0.056480 0.288780 0.942210 -0.591370
O12   O     O_R   0.943520 0.788780 0.057790 -0.591693
O13   O     O_R   0.058700 0.616820 0.085490 -0.592856
O14   O     O_R   0.941300 0.116820 0.914510 -0.592593
C57   C     C_R   0.073318 0.448165 0.111528 1.029734
C58   C     C_R   0.926683 0.948120 0.888470 1.029846
O15   O     O_R   0.063520 0.618570 0.944410 -0.594282
O16   O     O_R   0.936480 0.118570 0.055590 -0.594061
O17   O     O_R   0.948420 0.787670 0.915740 -0.591491
O18   O     O_R   0.051580 0.287670 0.084260 -0.591216
C59   C     C_R   0.078907 0.449819 0.923920 1.037194
C60   C     C_R   0.921098 0.949823 0.076085 1.037351
O19   O     O_3   0.962260 0.453430 0.990800 -0.270330
O20   O     O_3   0.037740 0.953430 0.009200 -0.270210
V3    V     V_3+5 0.007000 0.728750 0.001710 1.217291
V4    V     V_3+5 0.993000 0.228750 0.998290 1.217649
N1    N     N_R   0.797149 0.978514 0.887043 0.209814
O21   O     O_R   0.816024 0.881784 0.943776 -0.446636
O22   O     O_R   0.759876 0.121690 0.889193 -0.393115
N2    N     N_R   0.202850 0.475843 0.112746 0.209597
O23   O     O_R   0.183837 0.378005 0.056296 -0.446228
O24   O     O_R   0.240250 0.618471 0.110154 -0.393143
C61   C     C_2   0.521318 0.760443 0.739414 0.989292
O25   O     O_2   0.504282 0.655828 0.783260 -0.646186
O26   O     O_R   0.478256 0.848673 0.689074 -0.797067
H37   H     H_    0.435124 0.812113 0.693762 0.316084
C62   C     C_2   0.478504 0.257485 0.260801 0.989897
O27   O     O_2   0.495407 0.150367 0.217589 -0.646186
O28   O     O_R   0.521659 0.347727 0.310506 -0.797067
H38   H     H_    0.564757 0.310401 0.305962 0.316064

loop_
_geom_bond_atom_site_label_1
_geom_bond_atom_site_label_2
_geom_bond_distance
_ccdc_geom_bond_type
C12   C14   1.389920 A    
O12   V3    1.963079 S    
C9    C11   1.399119 A    
C23   C25   1.388773 A    
O14   V4    1.996056 S    
C49   H25   1.112960 S    
O1    C3    1.297174 A    
O2    C4    1.297073 A    
C35   C41   1.552385 S    
C2    O7    1.303550 A    
C4    C31   1.483662 S    
O3    V1    1.963673 S    
C2    C39   1.453202 S    
C21   C23   1.398270 A    
H13   C43   1.112855 S    
C42   C54   1.493060 S    
O5    C3    1.295784 A    
C12   H10   1.083545 S    
C41   C53   1.493072 S    
C5    H5    1.083940 S    
C47   H35   1.112984 S    
C6    H6    1.083981 S    
O15   V3    1.963713 S    
C48   C50   1.557941 S    
N2    O24   1.301348 A    
O19   V3    2.151222 S    
H1    C29   1.083798 S    
C33   H31   1.113116 S    
C55   C60   1.454072 S    
C36   C38   1.557392 S    
C5    C21   1.401312 A    
C33   C43   1.557117 S    
O20   V3    1.700761 S    
C14   H8    1.076334 S    
C6    C22   1.401333 A    
C50   H26   1.112955 S    
C35   H17   1.113068 S    
O17   V3    1.992699 S    
C10   C32   1.417468 A    
C34   H16   1.112836 S    
C17   C31   1.428771 A    
C13   C15   1.409161 A    
O11   V4    1.963092 S    
C53   C55   1.217267 T    
C17   C25   1.405725 A    
C40   C52   1.216837 T    
C8    C30   1.394990 A    
C37   H21   1.112881 S    
C22   C24   1.398275 A    
C38   C46   1.552735 S    
C41   C49   1.551982 S    
O6    V2    1.996041 S    
H14   C44   1.112848 S    
C28   N2    1.436009 S    
C24   C26   1.388754 A    
O13   V3    1.996330 S    
C45   C47   1.552041 S    
C35   C37   1.557392 S    
C20   C28   1.438957 A    
C33   C41   1.552667 S    
C34   H32   1.113112 S    
C44   C46   1.551696 S    
O19   V4    1.700917 S    
C33   H15   1.112831 S    
C43   C45   1.551692 S    
C8    C28   1.419886 A    
C37   H23   1.113150 S    
C15   C19   1.441080 A    
C9    C61   1.493884 S    
C44   H34   1.113183 S    
C14   C16   1.409251 A    
C37   C45   1.552740 S    
O4    V2    1.963715 S    
C61   O26   1.399010 S    
C26   H12   1.082505 S    
C54   C56   1.217261 T    
C8    C57   1.478750 S    
C36   H20   1.112843 S    
O6    C4    1.295899 A    
C36   C42   1.552370 S    
C62   O28   1.398969 S    
C38   H22   1.112883 S    
O1    V2    1.991448 S    
C45   C51   1.492448 S    
O2    V1    1.991600 S    
C58   O17   1.294144 A    
N1    O21   1.301102 A    
H2    C30   1.083766 S    
C50   H28   1.112883 S    
C57   O18   1.294190 A    
C35   H19   1.112844 S    
H3    C23   1.084134 S    
C7    C58   1.478799 S    
C25   H11   1.082494 S    
C47   C49   1.557942 S    
C46   C48   1.552039 S    
O9    V1    2.151392 S    
O28   H38   1.014148 S    
C48   H36   1.112984 S    
O10   V2    2.151612 S    
C18   C26   1.405753 A    
O4    C2    1.307824 A    
C19   C27   1.438949 A    
C61   O25   1.223634 D    
C7    C27   1.419880 A    
O16   C60   1.300351 A    
C18   C32   1.428739 A    
O16   V4    1.963755 S    
O26   H37   1.014156 S    
C39   C51   1.216839 T    
C7    C29   1.395001 A    
C16   C20   1.441060 A    
O11   C59   1.296964 A    
C38   H24   1.113149 S    
C5    C29   1.389678 A    
C13   H7    1.076317 S    
O3    C1    1.307797 A    
C6    C30   1.389659 A    
C34   C44   1.557115 S    
O12   C60   1.296969 A    
C10   C62   1.493618 S    
C27   N1    1.436004 S    
C1    C40   1.453199 S    
C10   C12   1.399023 A    
O7    V1    1.959017 S    
C48   H30   1.112993 S    
C1    O8    1.303546 A    
C11   C13   1.389883 A    
C3    C32   1.483729 S    
O8    V2    1.959028 S    
C20   C22   1.421630 A    
C49   H27   1.112881 S    
C42   C50   1.551982 S    
O13   C57   1.296153 A    
C11   H9    1.083543 S    
C46   C52   1.492439 S    
O5    V1    1.996313 S    
C15   C17   1.431845 A    
O14   C58   1.296257 A    
C16   C18   1.431918 A    
C56   C59   1.454062 S    
O20   V4    2.151441 S    
N1    O22   1.301348 A    
C34   C42   1.552682 S    
C9    C31   1.417589 A    
C36   H18   1.113073 S    
C19   C21   1.421581 A    
C47   H29   1.112994 S    
O9    V2    1.701360 S    
H4    C24   1.084183 S    
O10   V1    1.701204 S    
C43   H33   1.113185 S    
O15   C59   1.300321 A    
O18   V4    1.992548 S    
C62   O27   1.223624 D    
N2    O23   1.301108 A    
