data_mof_unit_6634.cif
_audit_creation_date              2012-12-11T17:00:14-0500
_audit_creation_method            fapswitch 2.2
_symmetry_space_group_name_H-M    P1
_symmetry_Int_Tables_number       1
_space_group_crystal_system       triclinic
_cell_length_a                    6.960386
_cell_length_b                    13.713302
_cell_length_c                    20.241102
_cell_angle_alpha                 103.165915
_cell_angle_beta                  90.580257
_cell_angle_gamma                 90.198871
_cell_volume                      1881.09734932

loop_
_atom_site_label
_atom_site_type_symbol
_atom_type_description
_atom_site_fract_x
_atom_site_fract_y
_atom_site_fract_z
_atom_type_partial_charge
O1    O     O_R   0.506770 0.599700 0.449550 -0.539847
O2    O     O_R   0.179980 0.595740 0.587960 -0.547518
O3    O     O_R   0.004580 0.400300 0.550450 -0.535507
C1    C     C_R   0.348736 0.615438 0.615772 0.691119
O4    O     O_R   0.177380 0.611700 0.452380 -0.541929
O5    O     O_R   0.001970 0.416370 0.413900 -0.541505
C2    C     C_R   0.345385 0.637712 0.435366 0.692536
O6    O     O_R   0.509390 0.583630 0.586100 -0.539203
O7    O     O_3   0.337530 0.435890 0.487530 -0.368046
V1    V     V_3+5 0.064660 0.511890 0.502310 1.424786
O8    O     O_R   0.671950 0.404260 0.412040 -0.542578
C3    C     C_R   0.840134 0.382995 0.384676 0.686984
O9    O     O_R   0.674540 0.388300 0.547620 -0.541507
C4    C     C_R   0.844119 0.363021 0.564560 0.696339
V2    V     V_3+5 0.564030 0.488110 0.497690 1.425821
O10   O     O_3   0.841030 0.564110 0.512470 -0.372966
C5    C     C_R   0.976692 0.122821 0.610242 -0.145858
H1    H     H_    0.043150 0.004923 0.692001 0.127402
H2    H     H_    0.031698 0.049654 0.585920 0.131148
C6    C     C_R   0.859932 0.284543 0.601729 -0.128445
C7    C     C_R   0.794426 0.309463 0.927146 -0.286007
C8    C     C_R   0.768269 0.384824 0.891569 0.417220
C9    C     C_R   0.798690 0.363819 0.821811 -0.149451
C10   C     C_R   0.856071 0.267687 0.785521 -0.029619
C11   C     C_R   0.889760 0.192014 0.822571 0.029853
C12   C     C_R   0.879022 0.244020 0.713308 0.093011
C13   C     C_R   0.950770 0.148911 0.680576 0.026495
C14   C     C_R   0.992010 0.078406 0.717592 -0.238389
C15   C     C_R   0.954201 0.096868 0.786516 0.251812
C16   C     C_R   0.832184 0.310860 0.671979 -0.251355
C17   C     C_R   0.932090 0.189499 0.570234 0.348680
C18   C     C_R   0.855441 0.213979 0.894051 -0.118921
H3    H     H_    0.777230 0.384757 0.692657 0.108892
H4    H     H_    0.767339 0.325304 0.981202 0.095953
H5    H     H_    0.777718 0.425348 0.797671 0.131146
C19   C     C_R   0.711838 0.180763 0.227600 0.122290
C20   C     C_R   0.867557 0.182930 0.184609 -0.112129
C21   C     C_R   0.022199 0.247045 0.210888 -0.187579
H6    H     H_    0.144621 0.252027 0.179474 0.136414
C22   C     C_R   0.014366 0.310710 0.276191 -0.173478
H7    H     H_    0.131622 0.362533 0.293177 0.129092
C23   C     C_R   0.851246 0.312540 0.317197 -0.109535
C24   C     C_R   0.703835 0.243937 0.292240 0.113075
C25   C     C_3   0.495505 0.263518 0.284734 -0.415530
C26   C     C_3   0.504268 0.195230 0.214449 -0.409338
H8    H     H_    0.467376 0.343031 0.284016 0.163024
H9    H     H_    0.406543 0.232599 0.320548 0.181850
H10   H     H_    0.481450 0.234960 0.172884 0.166635
H11   H     H_    0.419640 0.125333 0.209680 0.169907
C27   C     C_R   0.524938 0.699688 0.723248 0.109939
C28   C     C_R   0.355066 0.682278 0.684526 -0.101934
C29   C     C_R   0.185573 0.726739 0.714656 -0.181583
H12   H     H_    0.049791 0.714988 0.687436 0.134230
C30   C     C_R   0.186803 0.784095 0.781463 -0.202282
H13   H     H_    0.052988 0.810158 0.803921 0.138631
C31   C     C_R   0.357785 0.805463 0.819227 -0.106048
C32   C     C_R   0.526010 0.759985 0.789248 0.081033
C33   C     C_3   0.650153 0.687302 0.814785 -0.384465
C34   C     C_3   0.650305 0.622957 0.743295 -0.415716
H14   H     H_    0.574782 0.651540 0.851430 0.196864
H15   H     H_    0.793656 0.718710 0.832315 0.165921
H16   H     H_    0.575973 0.549721 0.738576 0.168362
H17   H     H_    0.793278 0.618240 0.719018 0.165692
C35   C     C_R   0.299177 0.886091 0.388800 -0.143795
H18   H     H_    0.296364 0.836372 0.481835 0.106730
H19   H     H_    0.266717 0.008987 0.305573 0.132528
H20   H     H_    0.271663 0.963135 0.414383 0.140141
C36   C     C_R   0.349715 0.714601 0.395776 -0.032984
C37   C     C_R   0.396291 0.685192 0.069136 -0.153185
C38   C     C_R   0.409597 0.609720 0.104516 -0.115970
C39   C     C_R   0.393669 0.631841 0.174934 -0.161153
C40   C     C_R   0.361872 0.731164 0.212072 0.079151
C41   C     C_R   0.342585 0.807764 0.175120 0.070256
C42   C     C_R   0.349569 0.757167 0.284505 0.073654
C43   C     C_R   0.315082 0.858560 0.317907 0.135503
C44   C     C_R   0.294112 0.931714 0.280434 -0.196482
C45   C     C_R   0.307177 0.906783 0.210266 -0.200432
C46   C     C_R   0.368696 0.686186 0.325198 -0.215837
C47   C     C_R   0.314360 0.814347 0.427358 -0.166074
C48   C     C_R   0.362355 0.783988 0.103579 -0.080169
H21   H     H_    0.393057 0.607863 0.303767 0.090341
H22   H     H_    0.414053 0.666632 0.014567 0.119741
H23   H     H_    0.407518 0.569381 0.198599 0.103818
H24   H     H_    0.435125 0.533390 0.077205 0.115249
H25   H     H_    0.287821 0.965939 0.183568 0.117252
O11   O     O_R   0.203450 0.916320 0.913910 -0.532412
O12   O     O_R   0.535520 0.888300 0.047620 -0.538408
O13   O     O_R   0.710860 0.083650 0.086100 -0.540120
C49   C     C_R   0.367418 0.862012 0.064460 0.687522
O14   O     O_R   0.532860 0.904250 0.912040 -0.549166
O15   O     O_R   0.708190 0.099710 0.949550 -0.542328
C50   C     C_R   0.363677 0.878069 0.886419 0.682459
O16   O     O_R   0.206120 0.900260 0.050460 -0.539259
O17   O     O_3   0.375280 0.064080 0.012470 -0.374852
V3    V     V_3+5 0.648180 0.988110 0.997690 1.420953
O18   O     O_R   0.038220 0.111740 0.952370 -0.531962
C51   C     C_R   0.868605 0.138418 0.935591 0.795385
O19   O     O_R   0.040880 0.095790 0.087940 -0.549324
C52   C     C_R   0.872980 0.117484 0.115178 0.685303
V4    V     V_3+5 0.148800 0.011950 0.002300 1.426108
O20   O     O_3   0.871820 0.935920 0.987530 -0.368905
O21   O     O_3   0.963243 0.158961 0.501259 -0.650350
H26   H     H_    0.907592 0.208039 0.477533 0.271118
O22   O     O_3   0.711127 0.480056 0.923467 -0.654234
H27   H     H_    0.695397 0.483260 0.972561 0.279508
N1    N     N_2   0.968301 0.015113 0.817481 -0.521110
H28   H     H_    0.094636 0.976597 0.806123 0.253396
C53   C     C_3   0.800050 0.951524 0.805501 -0.515121
H29   H     H_    0.805104 0.900976 0.840701 0.214613
H30   H     H_    0.797001 0.906498 0.752348 0.170944
H31   H     H_    0.666444 0.996508 0.815412 0.198072

loop_
_geom_bond_atom_site_label_1
_geom_bond_atom_site_label_2
_ccdc_geom_bond_type
C43   C44   A    
H18   C47   S    
C1    O6    A    
O14   V3    S    
C6    C16   A    
C53   H29   S    
C12   C13   A    
C27   C34   S    
C14   C15   A    
C10   C12   A    
O5    C3    A    
C21   H6    S    
N1    H28   S    
C33   H14   S    
V2    O10   S    
C8    O22   S    
C18   C51   S    
C48   C49   S    
C3    C23   S    
C37   H22   S    
C2    C36   S    
O8    V2    S    
C41   C48   A    
O17   V3    S    
C29   C30   A    
O12   V3    S    
C9    C10   A    
C38   C39   A    
O1    V2    S    
O17   V4    S    
C38   H24   S    
O7    V1    S    
C25   H9    S    
C33   H15   S    
C22   C23   A    
O13   V3    S    
C45   H25   S    
O9    C4    A    
C36   C46   A    
O21   H26   S    
O22   H27   S    
C25   H8    S    
C39   H23   S    
C11   C15   A    
C7    C18   A    
C30   C31   A    
C42   C43   A    
C1    C28   S    
C28   C29   A    
C5    C13   A    
C17   O21   S    
C4    C6    S    
H1    C14   S    
C10   C11   A    
C40   C42   A    
O4    C2    A    
C7    H4    S    
C33   C34   S    
O15   C51   A    
O2    C1    A    
C24   C25   S    
C35   H20   S    
C20   C21   A    
O14   C50   A    
C26   H11   S    
H19   C44   S    
O18   C51   A    
C27   C28   A    
C19   C26   S    
C44   C45   A    
O16   V4    S    
O3    C4    A    
C22   H7    S    
C12   C16   A    
O6    V2    S    
O19   V4    S    
O12   C49   A    
C5    C17   A    
C35   C47   A    
C15   N1    S    
C23   C24   A    
O2    V1    S    
C20   C52   S    
O11   V4    S    
C29   H12   S    
C26   H10   S    
C31   C32   A    
C30   H13   S    
C19   C20   A    
C34   H16   S    
C16   H3    S    
O1    C2    A    
C27   C32   A    
C25   C26   S    
C40   C41   A    
C37   C48   A    
O5    V1    S    
O8    C3    A    
C34   H17   S    
C53   H31   S    
O9    V2    S    
O7    V2    S    
O4    V1    S    
O3    V1    S    
O11   C50   A    
C21   C22   A    
C46   H21   S    
C32   C33   S    
N1    C53   S    
C11   C18   A    
O18   V4    S    
V4    O20   S    
C5    H2    S    
C35   C43   A    
C53   H30   S    
C49   O16   A    
C37   C38   A    
C9    H5    S    
O13   C52   A    
O15   V3    S    
C31   C50   S    
C39   C40   A    
C36   C47   A    
O19   C52   A    
C42   C46   A    
C13   C14   A    
C41   C45   A    
C8    C9    A    
C19   C24   A    
V1    O10   S    
C7    C8    A    
V3    O20   S    
C6    C17   A    
