data_mof_unit_20372.cif
_audit_creation_date              2012-12-10T21:07:39-0500
_audit_creation_method            fapswitch 2.2
_symmetry_space_group_name_H-M    P1
_symmetry_Int_Tables_number       1
_space_group_crystal_system       triclinic
_cell_length_a                    8.635404
_cell_length_b                    17.199559
_cell_length_c                    16.742664
_cell_angle_alpha                 90.514197
_cell_angle_beta                  98.196607
_cell_angle_gamma                 89.988546
_cell_volume                      2461.20342973

loop_
_atom_site_label
_atom_site_type_symbol
_atom_type_description
_atom_site_fract_x
_atom_site_fract_y
_atom_site_fract_z
_atom_type_partial_charge
C1    C     C_R   0.500192 0.352308 0.499551 0.960719
C2    C     C_R   0.505358 0.648173 0.500912 0.892851
C3    C     C_1   0.677304 0.966455 0.500457 0.127336
C4    C     C_1   0.670962 0.035520 0.495543 0.150713
C5    C     C_R   0.400004 0.454156 0.825363 -0.256370
C6    C     C_R   0.599890 0.546154 0.174726 -0.257410
C7    C     C_R   0.399840 0.453835 0.741333 0.043418
C8    C     C_R   0.600134 0.546268 0.258762 0.038278
C9    C     C_R   0.601816 0.547669 0.754401 -0.040324
C10   C     C_R   0.397940 0.452531 0.245489 -0.061302
C11   C     C_R   0.607154 0.550455 0.839281 -0.090263
C12   C     C_R   0.392356 0.450046 0.160588 -0.091637
C13   C     C_R   0.503732 0.502349 0.875838 0.097397
C14   C     C_R   0.495966 0.498140 0.124141 0.104705
C15   C     C_1   0.501020 0.500933 0.963546 0.110747
C16   C     C_1   0.498726 0.499665 0.036440 0.110642
C17   C     C_R   0.201067 0.498958 0.479443 0.982917
C18   C     C_R   0.798843 0.500540 0.520509 0.942763
C19   C     C_2   0.039039 0.484834 0.471031 -0.329555
C20   C     C_2   0.960643 0.514454 0.528775 -0.302852
C21   C     C_R   0.607073 0.854768 0.576357 -0.055767
C22   C     C_R   0.519259 0.143183 0.431166 -0.098306
C23   C     C_R   0.550521 0.777581 0.575807 -0.083361
C24   C     C_R   0.463008 0.219943 0.435684 -0.099167
C25   C     C_R   0.545771 0.731718 0.504393 -0.123360
C26   C     C_R   0.530462 0.268937 0.499558 -0.045230
C27   C     C_R   0.602794 0.762597 0.436892 -0.263832
C28   C     C_R   0.650027 0.241758 0.557721 -0.275127
C29   C     C_R   0.663567 0.837419 0.437681 0.001413
C30   C     C_R   0.708019 0.166648 0.553623 -0.009344
C31   C     C_R   0.661194 0.884279 0.506784 0.007643
C32   C     C_R   0.640786 0.116994 0.490619 0.040422
H1    H     H_    0.604785 0.727155 0.383164 0.154251
H2    H     H_    0.703751 0.280898 0.604874 0.156225
H3    H     H_    0.319164 0.416744 0.850862 0.186191
H4    H     H_    0.680788 0.583596 0.149308 0.185792
H5    H     H_    0.319228 0.416467 0.703255 0.140326
H6    H     H_    0.680758 0.583573 0.296921 0.128824
H7    H     H_    0.679644 0.583938 0.725543 0.167057
H8    H     H_    0.319993 0.416256 0.274254 0.168458
N1    N     N_R   0.500040 0.500030 0.707230 -0.098905
N2    N     N_R   0.499960 0.499970 0.292770 -0.091567
O1    O     O_R   0.500000 0.389130 0.566570 -0.634754
O2    O     O_R   0.500000 0.610870 0.433430 -0.618153
O3    O     O_R   0.499990 0.389100 0.433480 -0.598940
O4    O     O_R   0.500010 0.610900 0.566520 -0.630029
O5    O     O_R   0.271750 0.500010 0.550980 -0.617243
O6    O     O_R   0.728250 0.499990 0.449020 -0.622742
O7    O     O_R   0.271740 0.499980 0.417890 -0.584519
O8    O     O_R   0.728260 0.500020 0.582110 -0.598832
Zn1   Zn    Zn3+2 0.500010 0.500020 0.588860 0.985092
Zn2   Zn    Zn3+2 0.499990 0.499980 0.411140 0.996838
C33   C     C_2   0.976886 0.423152 0.411270 1.011725
O9    O     O_2   0.006214 0.425630 0.341992 -0.601319
O10   O     O_R   0.887909 0.361758 0.435043 -0.792326
H9    H     H_    0.852676 0.323863 0.389331 0.357575
C34   C     C_2   0.020629 0.577852 0.586669 0.945774
O11   O     O_2   0.993463 0.576358 0.656369 -0.618062
O12   O     O_R   0.102051 0.640588 0.560101 -0.811401
H10   H     H_    0.127466 0.681975 0.603410 0.341258
C35   C     C_2   0.600407 0.906704 0.647626 0.964609
O13   O     O_2   0.714055 0.946227 0.674431 -0.573074
O14   O     O_R   0.463526 0.910990 0.683140 -0.761866
H11   H     H_    0.473408 0.948412 0.730729 0.363708
C36   C     C_2   0.447311 0.088643 0.366630 0.863178
O15   O     O_2   0.305027 0.082104 0.352017 -0.584713
O16   O     O_R   0.543207 0.043853 0.323739 -0.754990
H12   H     H_    0.481220 0.008308 0.282321 0.355921
C37   C     C_2   0.497692 0.745534 0.649617 0.497460
H13   H     H_    0.390821 0.711943 0.645235 0.085991
O17   O     O_2   0.575302 0.755082 0.715872 -0.556044
C38   C     C_2   0.335260 0.248274 0.373547 0.463300
H14   H     H_    0.325923 0.227247 0.311757 0.082943
O18   O     O_2   0.236659 0.293628 0.391291 -0.564434
C39   C     C_2   0.725434 0.864192 0.364057 0.453227
H15   H     H_    0.701065 0.830657 0.308428 0.056748
O19   O     O_2   0.807703 0.921989 0.364839 -0.494188
C40   C     C_2   0.838316 0.143220 0.616808 0.476510
H16   H     H_    0.870398 0.180358 0.669345 0.060636
O20   O     O_2   0.913936 0.084065 0.610506 -0.504030
C41   C     C_2   0.721975 0.604208 0.885607 0.455311
H17   H     H_    0.797210 0.639469 0.853756 0.106712
O21   O     O_2   0.734904 0.610224 0.958939 -0.566911
C42   C     C_2   0.277001 0.396642 0.114117 0.415740
H18   H     H_    0.201682 0.361353 0.145894 0.087854
O22   O     O_2   0.263663 0.390976 0.040748 -0.564948

loop_
_geom_bond_atom_site_label_1
_geom_bond_atom_site_label_2
_ccdc_geom_bond_type
O10   H9    S    
C10   N2    A    
C23   C37   S    
C19   C20   D    
C1    O3    A    
C41   H17   S    
C33   O9    D    
C27   H1    S    
C21   C31   A    
C24   C38   S    
C22   C32   A    
C24   C26   A    
C40   O20   D    
C34   O12   S    
C27   C29   A    
C15   C16   T    
C9    H7    S    
C12   C42   S    
C18   C20   S    
C10   H8    S    
C35   O14   S    
C1    O1    A    
C2    O2    A    
C36   O16   S    
C5    C13   A    
C11   C41   S    
O2    Zn2   S    
C23   C25   A    
C28   H2    S    
O12   H10   S    
C35   O13   D    
C8    H6    S    
C41   O21   D    
C33   O10   S    
C21   C23   A    
C37   O17   D    
O16   H12   S    
C42   H18   S    
C38   O18   D    
C17   O7    A    
C5    C7    A    
C40   H16   S    
O5    Zn1   S    
O3    Zn2   S    
O4    Zn1   S    
C2    O4    A    
C39   H15   S    
C22   C36   S    
C6    C14   A    
C39   O19   D    
O7    Zn2   S    
O8    Zn1   S    
C7    H5    S    
C3    C31   S    
C9    C11   A    
C4    C32   S    
C10   C12   A    
C12   C14   A    
C13   C15   S    
C1    C26   S    
C14   C16   S    
C3    C4    T    
C18   O8    A    
C21   C35   S    
C26   C28   A    
C17   O5    A    
C8    N2    A    
C38   H14   S    
C18   O6    A    
C6    C8    A    
C29   C39   S    
C25   C27   A    
C9    N1    A    
C28   C30   A    
C29   C31   A    
C30   C32   A    
C11   C13   A    
C19   C33   S    
C34   O11   D    
O1    Zn1   S    
C5    H3    S    
C17   C19   S    
C6    H4    S    
C2    C25   S    
C22   C24   A    
C7    N1    A    
C37   H13   S    
O14   H11   S    
C30   C40   S    
O6    Zn2   S    
C36   O15   D    
C42   O22   D    
C20   C34   S    
N1    Zn1   S    
N2    Zn2   S    
