data_mof_unit_42043.cif
_audit_creation_date              2012-12-11T14:54:43-0500
_audit_creation_method            fapswitch 2.2
_symmetry_space_group_name_H-M    P1
_symmetry_Int_Tables_number       1
_space_group_crystal_system       triclinic
_cell_length_a                    18.824613
_cell_length_b                    10.95511
_cell_length_c                    18.799549
_cell_angle_alpha                 89.799923
_cell_angle_beta                  89.8405
_cell_angle_gamma                 89.87791
_cell_volume                      3876.90288538

loop_
_atom_site_label
_atom_site_type_symbol
_atom_type_description
_atom_site_fract_x
_atom_site_fract_y
_atom_site_fract_z
_atom_type_partial_charge
Br1   Br    Br    0.642837 0.760560 0.913265 -0.439534
Br2   Br    Br    0.397696 0.821327 0.073224 -0.457003
Br3   Br    Br    0.142799 0.260605 0.913281 -0.439503
Br4   Br    Br    0.897688 0.321301 0.073229 -0.457046
C1    C     C_R   0.731862 0.381493 0.647656 0.624941
C2    C     C_R   0.308305 0.893240 0.466208 0.382433
C3    C     C_R   0.950102 0.551592 0.478020 -0.130898
C4    C     C_R   0.175999 0.429472 0.527950 0.417396
C5    C     C_R   0.808305 0.393241 0.466208 0.382436
C6    C     C_R   0.684662 0.900006 0.456186 0.335333
C7    C     C_R   0.306114 0.873845 0.539122 0.319580
C8    C     C_R   0.184663 0.400004 0.456187 0.335332
C9    C     C_R   0.806114 0.373845 0.539122 0.319587
C10   C     C_R   0.746390 0.936957 0.420038 -0.054783
C11   C     C_R   0.255945 0.935762 0.580677 0.004679
C12   C     C_R   0.246390 0.436957 0.420038 -0.054780
C13   C     C_R   0.268760 0.380417 0.353049 0.558936
C14   C     C_R   0.755945 0.435762 0.580677 0.004679
C15   C     C_R   0.794429 0.015980 0.454184 0.362933
C16   C     C_R   0.218166 0.034519 0.551031 0.354743
C17   C     C_R   0.294429 0.515982 0.454184 0.362932
C18   C     C_R   0.718167 0.534520 0.551031 0.354733
C19   C     C_R   0.787591 0.038905 0.525546 -0.135439
C20   C     C_R   0.224523 0.060158 0.479094 -0.155203
C21   C     C_R   0.287590 0.538907 0.525545 -0.135445
C22   C     C_R   0.724524 0.560160 0.479094 -0.155206
C23   C     C_R   0.729947 0.993938 0.563836 -0.103244
C24   C     C_R   0.231862 0.881493 0.647656 0.624935
C25   C     C_R   0.267355 0.987180 0.435702 -0.105429
C26   C     C_R   0.229947 0.493937 0.563836 -0.103248
C27   C     C_R   0.767356 0.487182 0.435702 -0.105429
C28   C     C_R   0.533541 0.060501 0.972219 -0.199998
C29   C     C_R   0.526518 0.065290 0.044838 -0.189683
C30   C     C_R   0.033469 0.560444 0.972209 -0.199979
C31   C     C_R   0.026468 0.565228 0.044828 -0.189687
C32   C     C_R   0.499238 0.170195 0.076595 -0.033897
C33   C     C_R   0.517016 0.162587 0.929984 -0.028879
C34   C     C_R   0.999264 0.670181 0.076606 -0.033922
C35   C     C_R   0.768760 0.880417 0.353049 0.558940
C36   C     C_R   0.017016 0.662589 0.929988 -0.028903
C37   C     C_R   0.486637 0.275988 0.035303 0.390104
C38   C     C_R   0.495729 0.271956 0.961984 0.392838
C39   C     C_R   0.986742 0.776026 0.035331 0.390068
C40   C     C_R   0.995819 0.772002 0.962010 0.392771
C41   C     C_R   0.531351 0.155240 0.646752 0.581407
C42   C     C_R   0.436804 0.150973 0.360954 0.508938
C43   C     C_R   0.031352 0.655240 0.646752 0.581398
C44   C     C_R   0.936805 0.650972 0.360954 0.508938
C45   C     C_R   0.774206 0.055410 0.980049 -0.127117
C46   C     C_3   0.519519 0.363958 0.450189 0.326511
C47   C     C_R   0.186059 0.946695 0.040879 -0.159290
C48   C     C_R   0.274209 0.555414 0.980049 -0.127059
C49   C     C_R   0.686056 0.446687 0.040881 -0.159317
C50   C     C_R   0.780769 0.029918 0.051691 -0.086838
C51   C     C_R   0.181339 0.940497 0.968301 -0.106236
C52   C     C_R   0.280774 0.529919 0.051690 -0.086748
C53   C     C_R   0.681336 0.440487 0.968303 -0.106258
C54   C     C_R   0.746612 0.928114 0.080483 -0.008461
C55   C     C_R   0.240406 0.905182 0.927463 0.001070
C56   C     C_R   0.246609 0.428127 0.080486 -0.008423
C57   C     C_3   0.543039 0.364497 0.527098 0.286865
C58   C     C_R   0.740404 0.405178 0.927465 0.001101
C59   C     C_R   0.702170 0.856526 0.038278 -0.110232
C60   C     C_R   0.304040 0.873934 0.960452 -0.121924
C61   C     C_R   0.202151 0.356559 0.038286 -0.110218
C62   C     C_R   0.804039 0.373930 0.960454 -0.121931
C63   C     C_R   0.696038 0.879854 0.966153 0.135237
C64   C     C_R   0.309324 0.878614 0.034010 0.129605
C65   C     C_R   0.196016 0.379888 0.966161 0.135269
C66   C     C_R   0.809321 0.378605 0.034013 0.129600
C67   C     C_R   0.733143 0.980482 0.936400 0.031511
C68   C     C_3   0.019511 0.863966 0.450192 0.326515
C69   C     C_R   0.250514 0.921624 0.074478 0.020091
C70   C     C_R   0.233135 0.480498 0.936403 0.031544
C71   C     C_R   0.750512 0.421617 0.074480 0.020116
C72   C     C_R   0.727031 0.020161 0.639995 0.596374
C73   C     C_R   0.272020 0.017444 0.360274 0.538138
C74   C     C_R   0.227031 0.520161 0.639995 0.596367
C75   C     C_R   0.772021 0.517445 0.360274 0.538140
C76   C     C_R   0.728611 0.376408 0.853525 0.540095
C77   C     C_R   0.269157 0.380732 0.148700 0.552231
C78   C     C_R   0.228611 0.876410 0.853524 0.540091
C79   C     C_3   0.043032 0.864504 0.527100 0.286869
C80   C     C_R   0.769157 0.880731 0.148700 0.552180
C81   C     C_R   0.534928 0.156429 0.855093 0.560781
C82   C     C_R   0.468626 0.157948 0.147095 0.571636
C83   C     C_R   0.034930 0.656430 0.855096 0.560736
C84   C     C_R   0.968634 0.657946 0.147099 0.571634
C85   C     C_R   0.728294 0.015562 0.861953 0.548161
C86   C     C_R   0.258876 0.969544 0.145857 0.569770
C87   C     C_R   0.228291 0.515569 0.861953 0.548174
C88   C     C_R   0.758875 0.469542 0.145858 0.569763
C89   C     C_R   0.452241 0.158046 0.436718 -0.044942
C90   C     C_R   0.675998 0.929476 0.527949 0.417398
C91   C     C_R   0.490535 0.163169 0.581166 0.021582
C92   C     C_R   0.952243 0.658045 0.436718 -0.044940
C93   C     C_R   0.990535 0.663168 0.581166 0.021578
C94   C     C_R   0.465898 0.269370 0.470442 0.012095
C95   C     C_R   0.486843 0.271222 0.541283 -0.029419
C96   C     C_R   0.965895 0.769370 0.470444 0.012085
C97   C     C_R   0.986840 0.771221 0.541284 -0.029425
C98   C     C_R   0.466042 0.054688 0.550065 -0.101159
C99   C     C_R   0.450098 0.051593 0.478021 -0.130901
C100  C     C_R   0.966044 0.554686 0.550064 -0.101162
Cr1   Cr    Cr6+3 0.771950 0.169480 0.750100 1.101133
Cr2   Cr    Cr6+3 0.383410 0.010620 0.249390 1.154405
Cr3   Cr    Cr6+3 0.116590 0.510620 0.750610 1.153794
Cr4   Cr    Cr6+3 0.883410 0.510620 0.249390 1.154398
Cr5   Cr    Cr6+3 0.228050 0.169480 0.249900 1.101821
Cr6   Cr    Cr6+3 0.271950 0.669480 0.750100 1.101152
Cr7   Cr    Cr6+3 0.728050 0.669480 0.249900 1.101795
Cr8   Cr    Cr6+3 0.614930 0.323340 0.749170 1.141921
Cr9   Cr    Cr6+3 0.385070 0.323340 0.250830 1.170476
Cr10  Cr    Cr6+3 0.114930 0.823340 0.749170 1.141941
Cr11  Cr    Cr6+3 0.885070 0.823340 0.250830 1.170503
Cr12  Cr    Cr6+3 0.616590 0.010620 0.750610 1.153799
F1    F     F_    0.987517 0.972606 0.430470 -0.528101
F2    F     F_    0.351893 0.792918 0.568695 -0.598542
F3    F     F_    0.134132 0.332838 0.423088 -0.549944
F4    F     F_    0.851892 0.292915 0.568695 -0.598540
F5    F     F_    0.851497 0.065085 0.420377 -0.458045
F6    F     F_    0.172784 0.102879 0.590716 -0.547000
F7    F     F_    0.351496 0.565087 0.420376 -0.458055
F8    F     F_    0.672785 0.602879 0.590716 -0.547005
F9    F     F_    0.461629 0.380689 0.064766 -0.565514
F10   F     F_    0.481915 0.373199 0.922442 -0.567073
F11   F     F_    0.961832 0.880786 0.064817 -0.565491
F12   F     F_    0.110719 0.816591 0.534632 -0.663498
F13   F     F_    0.982085 0.873308 0.922487 -0.567095
F14   F     F_    0.487532 0.472602 0.430463 -0.528107
F15   F     F_    0.610723 0.316578 0.534632 -0.663504
F16   F     F_    0.616749 0.890486 0.562394 -0.524800
F17   F     F_    0.350009 0.819277 0.425976 -0.510936
F18   F     F_    0.116751 0.390478 0.562395 -0.524798
F19   F     F_    0.850010 0.319279 0.425976 -0.510935
F20   F     F_    0.634131 0.832841 0.423088 -0.549941
H1    H     H_    0.466924 0.968994 0.578964 0.232260
H2    H     H_    0.130247 0.960742 0.944590 0.220869
H3    H     H_    0.315615 0.585535 0.083758 0.201733
H4    H     H_    0.630243 0.460727 0.944592 0.220732
H5    H     H_    0.676618 0.775985 0.059990 0.175867
H6    H     H_    0.348690 0.841352 0.929283 0.170207
H7    H     H_    0.176590 0.276029 0.060000 0.175866
H8    H     H_    0.848689 0.341348 0.929285 0.170196
H9    H     H_    0.560390 0.331289 0.411829 0.164520
H10   H     H_    0.534173 0.452114 0.555433 0.213011
H11   H     H_    0.060383 0.831307 0.411831 0.164525
H12   H     H_    0.441212 0.964203 0.453618 0.244209
H13   H     H_    0.034164 0.952117 0.555438 0.213005
H14   H     H_    0.829650 0.088115 0.551375 0.268211
H15   H     H_    0.194331 0.134946 0.456782 0.233559
H16   H     H_    0.329648 0.588121 0.551374 0.268212
H17   H     H_    0.694332 0.634948 0.456783 0.233557
H18   H     H_    0.552746 0.976231 0.949367 0.209873
H19   H     H_    0.538072 0.983843 0.075632 0.199907
H20   H     H_    0.052607 0.476131 0.949346 0.209947
H21   H     H_    0.037970 0.483739 0.075607 0.200001
H22   H     H_    0.966926 0.468992 0.578963 0.232259
H23   H     H_    0.941217 0.464202 0.453617 0.244211
H24   H     H_    0.803113 0.131725 0.958014 0.157935
H25   H     H_    0.139765 0.977223 0.070331 0.185413
H26   H     H_    0.303125 0.631717 0.958011 0.157933
H27   H     H_    0.639763 0.477215 0.070333 0.185305
H28   H     H_    0.815599 0.085546 0.083762 0.201731
O1    O     O_R   0.787510 0.042610 0.670410 -0.491769
O2    O     O_R   0.454250 0.051070 0.169440 -0.484286
O3    O     O_R   0.045750 0.551070 0.830560 -0.522100
O4    O     O_R   0.954250 0.551070 0.169440 -0.484324
O5    O     O_R   0.681210 0.959150 0.825320 -0.446818
O6    O     O_R   0.318790 0.959150 0.174680 -0.448566
O7    O     O_R   0.181210 0.459150 0.825320 -0.446808
O8    O     O_R   0.818790 0.459150 0.174680 -0.448561
O9    O     O_3   0.667820 0.167810 0.749960 -0.350032
O10   O     O_3   0.332180 0.167810 0.250040 -0.348075
O11   O     O_3   0.167820 0.667810 0.749960 -0.350040
O12   O     O_R   0.212490 0.042610 0.329590 -0.468204
O13   O     O_3   0.832180 0.667810 0.250040 -0.348078
O14   O     O_R   0.765670 0.292090 0.675090 -0.474123
O15   O     O_R   0.234330 0.292090 0.324910 -0.482018
O16   O     O_R   0.265670 0.792090 0.675090 -0.474126
O17   O     O_R   0.734330 0.792090 0.324910 -0.482017
O18   O     O_R   0.670220 0.409020 0.668560 -0.412586
O19   O     O_R   0.329780 0.409020 0.331440 -0.420202
O20   O     O_R   0.170220 0.909020 0.668560 -0.412585
O21   O     O_R   0.829780 0.909020 0.331440 -0.420191
O22   O     O_R   0.556580 0.251590 0.674980 -0.475760
O23   O     O_R   0.287510 0.542610 0.670410 -0.491759
O24   O     O_R   0.443420 0.251590 0.325020 -0.476346
O25   O     O_R   0.056580 0.751590 0.674980 -0.475769
O26   O     O_R   0.943420 0.751590 0.325020 -0.476340
O27   O     O_R   0.545890 0.049670 0.670030 -0.478593
O28   O     O_R   0.454110 0.049670 0.329970 -0.468998
O29   O     O_R   0.045890 0.549670 0.670030 -0.478598
O30   O     O_R   0.954110 0.549670 0.329970 -0.468998
O31   O     O_R   0.681340 0.957860 0.676500 -0.398149
O32   O     O_R   0.318660 0.957860 0.323500 -0.424264
O33   O     O_R   0.181340 0.457860 0.676500 -0.398148
O34   O     O_R   0.712490 0.542610 0.329590 -0.468206
O35   O     O_R   0.818660 0.457860 0.323500 -0.424259
O36   O     O_R   0.787380 0.044010 0.830940 -0.471178
O37   O     O_R   0.212620 0.044010 0.169060 -0.516221
O38   O     O_R   0.287380 0.544010 0.830940 -0.471135
O39   O     O_R   0.712620 0.544010 0.169060 -0.516244
O40   O     O_R   0.765540 0.293390 0.823910 -0.535487
O41   O     O_R   0.234460 0.293390 0.176090 -0.512613
O42   O     O_R   0.265540 0.793390 0.823910 -0.535494
O43   O     O_R   0.734460 0.793390 0.176090 -0.512606
O44   O     O_R   0.670090 0.410410 0.829090 -0.483962
O45   O     O_R   0.556450 0.252890 0.823790 -0.454863
O46   O     O_R   0.329910 0.410410 0.170910 -0.455383
O47   O     O_R   0.170090 0.910410 0.829090 -0.483931
O48   O     O_R   0.829910 0.910410 0.170910 -0.455443
O49   O     O_R   0.443550 0.252890 0.176210 -0.433461
O50   O     O_R   0.056450 0.752890 0.823790 -0.454815
O51   O     O_R   0.943550 0.752890 0.176210 -0.433442
O52   O     O_R   0.545750 0.051070 0.830560 -0.522079

loop_
_geom_bond_atom_site_label_1
_geom_bond_atom_site_label_2
_ccdc_geom_bond_type
C70   C87   S    
C17   F7    S    
C12   C17   A    
C84   O51   A    
C51   C55   A    
C25   C73   S    
C37   C38   A    
Cr10  O50   S    
Cr7   O43   S    
C82   O2    A    
C55   C78   S    
Cr9   O49   S    
Cr1   O14   S    
Cr12  O52   S    
C89   C99   A    
Br4   C66   S    
Cr5   O12   S    
C53   C58   A    
Cr3   O7    S    
Cr6   O11   S    
C57   C95   S    
C3    C92   A    
C55   C60   A    
C51   H2    S    
C60   H6    S    
Cr11  O48   S    
C21   H16   S    
C30   C36   A    
Cr2   O2    S    
C36   C83   S    
C33   C81   S    
Br3   C65   S    
C73   O32   A    
C6    F20   S    
Cr9   O46   S    
C2    F17   S    
Br2   C64   S    
Cr7   O34   S    
Cr8   O22   S    
Cr2   O28   S    
Cr11  O21   S    
C91   C95   A    
C41   O22   A    
C63   C67   A    
C62   H8    S    
C6    C90   A    
C45   C50   A    
C54   C59   A    
C29   C32   A    
C30   C31   A    
C33   C38   A    
C5    C9    A    
C20   C25   A    
C46   F14   S    
C10   C35   S    
Cr12  O31   S    
C7    C11   A    
C41   O27   A    
Cr1   O36   S    
C83   O3    A    
C8    C12   A    
Cr1   O1    S    
C12   C13   S    
C84   O4    A    
C68   F1    S    
Cr12  O5    S    
C45   H24   S    
C74   O33   A    
C19   C23   A    
C5    F19   S    
C79   C97   S    
C79   F12   S    
C44   O26   A    
C91   C98   A    
C86   O37   A    
C13   O15   A    
Cr10  O25   S    
C77   O46   A    
Cr4   O4    S    
C22   C27   A    
C75   O34   A    
Cr1   O9    S    
C50   H28   S    
Cr2   O6    S    
Cr12  O9    S    
C32   C37   A    
C49   C71   A    
Cr9   O19   S    
C99   H12   S    
Cr3   O3    S    
C100  H22   S    
C59   H5    S    
C11   C16   A    
C59   C63   A    
Cr6   O23   S    
C46   C94   S    
C75   O35   A    
C58   C62   A    
C4    F18   S    
C18   F8    S    
C93   C100  A    
C37   F9    S    
C65   C70   A    
C31   C34   A    
Cr8   O44   S    
C6    C10   A    
C81   O52   A    
Cr7   O39   S    
C2    C7    A    
Cr3   O33   S    
C52   H3    S    
C38   F10   S    
Cr5   O10   S    
C49   H27   S    
Cr1   O40   S    
Cr8   O18   S    
C1    C14   S    
C32   C82   S    
C64   C69   A    
Cr9   O24   S    
C90   F16   S    
C52   C56   A    
C53   H4    S    
C34   C84   S    
Cr5   O15   S    
C98   H1    S    
C35   O21   A    
Cr10  O47   S    
C43   O25   A    
C15   C19   A    
C57   H10   S    
C31   H21   S    
C20   H15   S    
C54   C80   S    
C8    F3    S    
C56   C77   S    
C13   O19   A    
C67   C85   S    
Cr6   O16   S    
C4    C8    A    
C86   O6    A    
C29   H19   S    
Cr2   O10   S    
Cr11  O51   S    
C72   O1    A    
Cr6   O42   S    
Cr11  O13   S    
C28   C33   A    
Cr5   O41   S    
C24   O16   A    
C35   O17   A    
C88   O39   A    
C71   C88   S    
C28   H18   S    
C9    C14   A    
C46   H9    S    
Cr10  O11   S    
C76   O44   A    
Cr12  O27   S    
C56   C61   A    
C19   H14   S    
C73   O12   A    
C3    C100  A    
Cr4   O8    S    
C39   C40   A    
C18   C22   A    
Cr4   O30   S    
C23   C72   S    
C41   C91   S    
C60   C64   A    
C1    O18   A    
C78   O42   A    
C9    F4    S    
C77   O41   A    
C78   O47   A    
C50   C54   A    
C58   C76   S    
C21   C26   A    
C61   C65   A    
C85   O36   A    
C17   C21   A    
C15   F5    S    
Cr8   O9    S    
C49   C53   A    
C44   C92   S    
Cr3   O29   S    
C44   O30   A    
C14   C18   A    
C16   F6    S    
C10   C15   A    
C43   O29   A    
C47   C69   A    
C72   O31   A    
C42   O28   A    
C23   C90   A    
C81   O45   A    
C69   C86   S    
Cr2   O32   S    
C80   O48   A    
C27   C75   S    
C87   O38   A    
C30   H20   S    
C68   H11   S    
C62   C66   A    
C48   C70   A    
C43   C93   S    
Cr7   O17   S    
C87   O7    A    
Cr6   O38   S    
C4    C26   A    
Cr8   O45   S    
Cr4   O35   S    
Cr5   O37   S    
C40   F13   S    
C82   O49   A    
C85   O5    A    
C34   C39   A    
C28   C29   A    
C80   O43   A    
C11   C24   S    
C76   O40   A    
C42   C89   S    
Cr3   O11   S    
C88   O8    A    
Cr10  O20   S    
C92   C96   A    
C96   C97   A    
Br1   C63   S    
C83   O50   A    
Cr11  O26   S    
Cr4   O13   S    
C47   H25   S    
C47   C51   A    
C24   O20   A    
C98   C99   A    
C1    O14   A    
C68   C79   S    
C5    C27   A    
C26   C74   S    
C36   C40   A    
C2    C25   A    
C3    H23   S    
C94   C95   A    
C45   C67   A    
C48   H26   S    
C66   C71   A    
Cr7   O13   S    
C46   C57   S    
C57   F15   S    
C22   H17   S    
C74   O23   A    
C68   C96   S    
C42   O24   A    
C7    F2    S    
C89   C94   A    
C16   C20   A    
C61   H7    S    
C93   C97   A    
C48   C52   A    
C39   F11   S    
Cr9   O10   S    
C79   H13   S    
