data_mof_unit_6565.cif
_audit_creation_date              2012-12-10T19:11:28-0500
_audit_creation_method            fapswitch 2.2
_symmetry_space_group_name_H-M    P1
_symmetry_Int_Tables_number       1
_space_group_crystal_system       triclinic
_cell_length_a                    10.634826
_cell_length_b                    9.708561
_cell_length_c                    10.495099
_cell_angle_alpha                 89.636508
_cell_angle_beta                  89.956892
_cell_angle_gamma                 89.912913
_cell_volume                      1083.58361826

loop_
_atom_site_label
_atom_site_type_symbol
_atom_type_description
_atom_site_fract_x
_atom_site_fract_y
_atom_site_fract_z
_atom_type_partial_charge
C1    C     C_R   0.257651 0.499869 0.500370 0.979133
C2    C     C_3   0.500032 0.501624 0.122185 0.006233
C3    C     C_3   0.072574 0.580355 0.617664 -0.531949
C4    C     C_3   0.072105 0.348646 0.510559 -0.517618
C5    C     C_3   0.928210 0.584354 0.616104 0.534868
C6    C     C_3   0.929248 0.347768 0.512567 0.539049
C7    C     C_3   0.071150 0.566628 0.375545 1.144289
C8    C     C_3   0.121234 0.499256 0.500606 -0.166886
C9    C     C_3   0.878751 0.498261 0.502371 -0.186512
C10   C     C_3   0.926554 0.562840 0.375866 -0.712909
C11   C     C_3   0.376963 0.081673 0.455033 -0.243022
C12   C     C_3   0.377030 0.919264 0.454834 -0.197808
C13   C     C_3   0.597275 0.081666 0.410437 -0.234035
C14   C     C_3   0.597352 0.919138 0.410525 -0.238889
C15   C     C_3   0.525153 0.080262 0.625997 -0.227466
C16   C     C_3   0.525002 0.918029 0.626033 -0.241957
C17   C     C_R   0.500023 0.500524 0.257112 0.904298
C18   C     C_R   0.742492 0.499569 0.501487 0.976486
C19   C     C_R   0.500216 0.499486 0.742778 0.911065
C20   C     C_3   0.499386 0.631636 0.039218 -0.164838
C21   C     C_3   0.396921 0.434627 0.042809 -0.134910
C22   C     C_3   0.396279 0.564457 0.957113 -0.161791
C23   C     C_3   0.500198 0.498435 0.877707 0.005476
C24   C     C_3   0.603303 0.565449 0.957084 -0.132352
C25   C     C_3   0.500844 0.368431 0.960680 -0.161319
C26   C     C_3   0.603952 0.435617 0.042777 -0.158228
H1    H     H_    0.311912 0.616556 0.917186 0.148462
H2    H     H_    0.888767 0.669199 0.363888 0.216092
H3    H     H_    0.891910 0.501709 0.293601 0.197951
H4    H     H_    0.354134 0.121298 0.358060 0.160256
H5    H     H_    0.354562 0.881333 0.357672 0.184897
H6    H     H_    0.300797 0.118585 0.518997 0.156314
H7    H     H_    0.300697 0.881367 0.518436 0.174886
H8    H     H_    0.581378 0.120547 0.311840 0.148465
H9    H     H_    0.581616 0.881450 0.311964 0.147920
H10   H     H_    0.617324 0.118417 0.661228 0.190671
H11   H     H_    0.617037 0.878940 0.661495 0.163063
H12   H     H_    0.453015 0.117757 0.694357 0.143968
H13   H     H_    0.452629 0.880158 0.694295 0.152170
H14   H     H_    0.691693 0.119309 0.439257 0.170144
H15   H     H_    0.691780 0.880897 0.439520 0.159771
H16   H     H_    0.498813 0.738864 0.075395 0.144732
H17   H     H_    0.313073 0.381714 0.082725 0.181378
H18   H     H_    0.687116 0.618457 0.917213 0.185790
H19   H     H_    0.501459 0.261191 0.924544 0.143323
H20   H     H_    0.688317 0.383518 0.082700 0.147351
H21   H     H_    0.109272 0.687682 0.616629 0.180582
H22   H     H_    0.105601 0.286850 0.428079 0.183146
H23   H     H_    0.106568 0.530634 0.707159 0.224469
H24   H     H_    0.108752 0.298188 0.598706 0.233233
H25   H     H_    0.896911 0.693361 0.605740 0.086513
H26   H     H_    0.895193 0.286194 0.430287 0.068187
N1    N     N_3   0.499750 0.138610 0.497240 -0.044031
N2    N     N_3   0.499750 0.861390 0.497240 -0.051971
O1    O     O_R   0.314910 0.616040 0.499970 -0.598782
O2    O     O_R   0.314910 0.383960 0.499970 -0.642612
O3    O     O_R   0.500080 0.616020 0.313900 -0.626238
O4    O     O_R   0.500080 0.383980 0.313900 -0.640836
O5    O     O_R   0.685320 0.616040 0.499930 -0.651203
O6    O     O_R   0.685320 0.383960 0.499930 -0.598901
O7    O     O_R   0.500150 0.616060 0.686000 -0.642633
O8    O     O_R   0.500150 0.383940 0.686000 -0.627256
Zn1   Zn    Zn3+2 0.500150 0.654960 0.499940 0.930748
Zn2   Zn    Zn3+2 0.500150 0.345040 0.499940 0.935303
F1    F     F_    0.881186 0.534511 0.730765 -0.630366
F2    F     F_    0.887390 0.284017 0.623564 -0.615263
F3    F     F_    0.110727 0.702445 0.365889 -0.685077
F4    F     F_    0.116334 0.496004 0.270457 -0.693021

loop_
_geom_bond_atom_site_label_1
_geom_bond_atom_site_label_2
_ccdc_geom_bond_type
C7    C10   S    
C20   H16   S    
C23   C24   S    
O2    Zn2   S    
C15   H12   S    
C5    C9    S    
C10   H2    S    
C1    C8    S    
C9    C10   S    
C16   H11   S    
C4    H24   S    
C19   C23   S    
C11   N1    S    
C6    F2    S    
C17   O4    A    
C4    C8    S    
C2    C21   S    
O8    Zn2   S    
C25   C26   S    
C7    C8    S    
C2    C26   S    
C21   H17   S    
C13   C14   S    
C2    C17   S    
O6    Zn2   S    
C10   H3    S    
C18   O5    A    
C19   O7    A    
C14   H15   S    
C15   N1    S    
C18   O6    A    
C7    F4    S    
C14   N2    S    
C1    O2    A    
C24   C26   S    
C11   H6    S    
O3    Zn1   S    
C13   N1    S    
C22   H1    S    
C23   C25   S    
C12   H5    S    
O4    Zn2   S    
C24   H18   S    
N1    Zn2   S    
C16   N2    S    
C1    O1    A    
C5    F1    S    
N2    Zn1   S    
C20   C22   S    
C16   H13   S    
C7    F3    S    
C15   C16   S    
C3    H23   S    
C25   H19   S    
C9    C18   S    
C13   H8    S    
C6    C9    S    
C11   H4    S    
C4    C6    S    
C3    C8    S    
C4    H22   S    
C3    H21   S    
C14   H9    S    
O7    Zn1   S    
C2    C20   S    
C26   H20   S    
C22   C23   S    
C5    H25   S    
C13   H14   S    
C21   C25   S    
C19   O8    A    
C6    H26   S    
C12   H7    S    
C21   C22   S    
O5    Zn1   S    
C15   H10   S    
C12   N2    S    
C20   C24   S    
C11   C12   S    
C17   O3    A    
C3    C5    S    
O1    Zn1   S    
