data_mof_unit_19164.cif
_audit_creation_date              2012-12-10T20:35:47-0500
_audit_creation_method            fapswitch 2.2
_symmetry_space_group_name_H-M    P1
_symmetry_Int_Tables_number       1
_space_group_crystal_system       triclinic
_cell_length_a                    15.720487
_cell_length_b                    10.679575
_cell_length_c                    9.876529
_cell_angle_alpha                 90.212869
_cell_angle_beta                  89.372859
_cell_angle_gamma                 89.782773
_cell_volume                      1658.02893841

loop_
_atom_site_label
_atom_site_type_symbol
_atom_type_description
_atom_site_fract_x
_atom_site_fract_y
_atom_site_fract_z
_atom_type_partial_charge
C1    C     C_R   0.502772 0.260010 0.499797 0.875783
C2    C     C_3   0.950692 0.418774 0.612885 -0.406152
C3    C     C_3   0.917574 0.499784 0.495065 0.327712
C4    C     C_3   0.950406 0.635437 0.511687 -0.399843
C5    C     C_3   0.048472 0.635758 0.514950 -0.406510
C6    C     C_1   0.826079 0.499728 0.496235 -0.115731
C7    C     C_1   0.174287 0.500720 0.499190 -0.140310
C8    C     C_1   0.249558 0.500420 0.501321 -0.215400
C9    C     C_R   0.516644 0.064477 0.622336 0.129128
C10   C     C_R   0.516507 0.128621 0.499922 -0.102252
C11   C     C_R   0.532458 0.064173 0.378257 -0.233900
C12   C     C_R   0.338363 0.500096 0.500642 0.912082
C13   C     C_R   0.532246 0.934672 0.378445 -0.233126
C14   C     C_R   0.516099 0.871440 0.500306 -0.103637
C15   C     C_R   0.516365 0.936717 0.622519 0.143188
C16   C     C_3   0.455763 0.931130 0.739968 -0.501972
C17   C     C_3   0.456324 0.072981 0.740111 -0.482136
C18   C     C_R   0.468156 0.598126 0.072876 0.179142
C19   C     C_R   0.540055 0.406329 0.070795 -0.128197
C20   C     C_R   0.540803 0.407053 0.926784 -0.143165
C21   C     C_R   0.464191 0.595191 0.931228 0.204586
C22   C     C_3   0.373752 0.645039 0.936902 -0.100792
C23   C     C_R   0.502513 0.740054 0.500078 0.872659
C24   C     C_3   0.382312 0.654373 0.090356 -0.526638
C25   C     C_R   0.661725 0.499924 0.499266 0.904660
C26   C     C_3   0.048724 0.418631 0.612038 -0.438942
C27   C     C_3   0.050580 0.445253 0.357144 0.031193
C28   C     C_3   0.951537 0.445510 0.359266 -0.402497
C29   C     C_1   0.750692 0.499794 0.497595 -0.187903
C30   C     C_3   0.082856 0.500800 0.494383 0.308463
H1    H     H_    0.927198 0.320984 0.602931 0.166639
H2    H     H_    0.071842 0.454707 0.710973 0.180824
H3    H     H_    0.926607 0.456323 0.711464 0.176702
H4    H     H_    0.928223 0.694441 0.426241 0.164588
H5    H     H_    0.393146 0.890966 0.712108 0.193714
H6    H     H_    0.485647 0.890027 0.831199 0.197959
H7    H     H_    0.393984 0.115161 0.713142 0.201691
H8    H     H_    0.570939 0.330755 0.124067 0.139497
H9    H     H_    0.072576 0.320791 0.600824 0.163549
H10   H     H_    0.572570 0.332357 0.871688 0.146200
H11   H     H_    0.368632 0.739222 0.890626 0.126813
H12   H     H_    0.385941 0.752556 0.127588 0.173676
H13   H     H_    0.338286 0.594294 0.149951 0.230237
H14   H     H_    0.072744 0.346057 0.351397 0.145899
H15   H     H_    0.928238 0.348014 0.345437 0.148254
H16   H     H_    0.925399 0.501729 0.274499 0.177395
H17   H     H_    0.069782 0.673441 0.614193 0.169131
H18   H     H_    0.073932 0.699384 0.435528 0.159658
H19   H     H_    0.924708 0.677555 0.607049 0.170392
N1    N     N_R   0.499430 0.499140 0.142800 -0.100376
N2    N     N_R   0.499430 0.499180 0.857150 -0.105737
O1    O     O_R   0.500010 0.316790 0.614690 -0.625671
O2    O     O_R   0.500000 0.316760 0.385350 -0.626592
O3    O     O_R   0.377150 0.500020 0.614720 -0.618810
O4    O     O_R   0.377140 0.499990 0.385380 -0.617213
O5    O     O_R   0.500000 0.683240 0.614650 -0.620304
O6    O     O_R   0.499990 0.683210 0.385310 -0.622337
O7    O     O_R   0.622860 0.500010 0.614620 -0.613500
O8    O     O_R   0.622850 0.499980 0.385280 -0.614298
Zn1   Zn    Zn3+2 0.500010 0.500020 0.653130 0.935453
Zn2   Zn    Zn3+2 0.499990 0.499980 0.346870 0.937415
H20   H     H_    0.539034 0.112701 0.282603 0.164477
H21   H     H_    0.538716 0.885278 0.282846 0.169506
H22   H     H_    0.486698 0.113798 0.831227 0.198307
C31   C     C_3   0.298748 0.559669 0.895781 -0.320150
C32   C     C_3   0.310573 0.419368 0.922049 -0.801199
H23   H     H_    0.358099 0.378193 0.851016 0.275027
H24   H     H_    0.330346 0.401841 0.027805 0.252825
H25   H     H_    0.249259 0.370719 0.905288 0.222663
H26   H     H_    0.241166 0.591582 0.952623 0.186345
H27   H     H_    0.283542 0.575130 0.788160 0.216958
C33   C     C_3   0.086377 0.513464 0.229970 -0.399195
C34   C     C_3   0.072478 0.438159 0.100049 -0.923698
H28   H     H_    0.105844 0.346496 0.105696 0.260100
H29   H     H_    0.003733 0.421975 0.082983 0.261241
H30   H     H_    0.098521 0.490592 0.012136 0.248586
H31   H     H_    0.056050 0.607004 0.219235 0.209622
H32   H     H_    0.155942 0.528368 0.239107 0.218244

loop_
_geom_bond_atom_site_label_1
_geom_bond_atom_site_label_2
_ccdc_geom_bond_type
C32   H24   S    
C26   H2    S    
C18   C21   A    
C24   H12   S    
C34   H28   S    
C19   C20   A    
C11   H20   S    
C7    C8    T    
O3    Zn1   S    
C5    H17   S    
C28   H16   S    
C18   C24   S    
C3    C28   S    
C20   N2    A    
C16   H5    S    
C20   H10   S    
C26   H9    S    
C22   H11   S    
O7    Zn1   S    
C15   C16   S    
C23   O6    A    
C1    O2    A    
C33   H32   S    
O1    Zn1   S    
O2    Zn2   S    
C27   H14   S    
C16   C17   S    
C9    C10   A    
C3    C6    S    
C32   H23   S    
C7    C30   S    
C21   C22   S    
C27   C30   S    
C34   H29   S    
C25   C29   S    
C5    H18   S    
C4    H4    S    
C28   H15   S    
O8    Zn2   S    
C23   O5    A    
C33   C34   S    
C31   H27   S    
O5    Zn1   S    
C2    H1    S    
C14   C23   S    
C22   C31   S    
C33   H31   S    
C19   H8    S    
C13   H21   S    
C8    C12   S    
C2    C26   S    
C17   H7    S    
C2    H3    S    
C9    C17   S    
C26   C30   S    
C34   H30   S    
C22   C24   S    
C25   O7    A    
C3    C4    S    
C21   N2    A    
C18   N1    A    
C5    C30   S    
N1    Zn2   S    
C1    C10   S    
C4    C5    S    
O6    Zn2   S    
C4    H19   S    
C2    C3    S    
C9    C15   A    
C17   H22   S    
C16   H6    S    
C11   C13   A    
C19   N1    A    
O4    Zn2   S    
C1    O1    A    
C12   O4    A    
C10   C11   A    
C32   H25   S    
C6    C29   T    
C31   C32   S    
C27   C28   S    
C24   H13   S    
C14   C15   A    
N2    Zn1   S    
C25   O8    A    
C13   C14   A    
C12   O3    A    
C27   C33   S    
C31   H26   S    
