data_mof_unit_52829.cif
_audit_creation_date              2012-10-26T19:40:43-0400
_audit_creation_method            fapswitch 2.2
_symmetry_space_group_name_H-M    P1
_symmetry_Int_Tables_number       1
_space_group_crystal_system       triclinic
_cell_length_a                    9.700242
_cell_length_b                    10.920113
_cell_length_c                    13.468478
_cell_angle_alpha                 90.944905
_cell_angle_beta                  73.619053
_cell_angle_gamma                 91.998334
_cell_volume                      1367.90773598

loop_
_atom_site_label
_atom_site_type_symbol
_atom_type_description
_atom_site_fract_x
_atom_site_fract_y
_atom_site_fract_z
_atom_type_partial_charge
C1    C     C_R   0.503237 0.734572 0.498381 0.594147
C2    C     C_R   0.388245 0.447038 0.808565 -0.025522
C3    C     C_2   0.617270 0.069779 0.467879 -0.166141
C4    C     C_R   0.425247 0.484238 0.698384 0.550365
C5    C     C_2   0.501115 0.134205 0.468045 0.007626
C6    C     C_2   0.623134 0.936704 0.450429 0.054349
C7    C     C_2   0.508697 0.866801 0.502315 -0.086603
C8    C     C_2   0.059320 0.573734 0.556713 -0.015543
C9    C     C_2   0.908692 0.583060 0.547728 0.138368
C10   C     C_R   0.499814 0.265052 0.493517 0.531478
C11   C     C_R   0.576097 0.501323 0.300594 0.575680
C12   C     C_R   0.449425 0.436169 0.972762 0.005932
C13   C     C_R   0.802128 0.513781 0.024439 -0.096575
C14   C     C_R   0.618902 0.499407 0.187722 0.015533
C15   C     C_R   0.245168 0.413987 0.859981 -0.142621
C16   C     C_R   0.205398 0.382060 0.964639 0.041749
C17   C     C_R   0.304793 0.401025 0.021836 -0.122857
C18   C     C_2   0.381142 0.080796 0.429933 0.570344
C19   C     C_2   0.752941 0.888092 0.374410 0.659439
C20   C     C_2   0.834097 0.693636 0.595616 0.619163
C21   C     C_2   0.061348 0.325493 0.013271 0.565119
C22   C     C_R   0.494435 0.440715 0.863358 0.030024
C23   C     C_R   0.552803 0.462025 0.027972 0.029853
C24   C     C_R   0.699901 0.480393 0.972750 0.051696
C25   C     C_R   0.744472 0.460265 0.866828 -0.100359
C26   C     C_R   0.643865 0.435221 0.813711 -0.066063
C27   C     C_R   0.514591 0.473779 0.135980 -0.121820
C28   C     C_R   0.762337 0.521469 0.131581 -0.089445
Cu1   Cu    Cu3+1 0.361370 0.499980 0.499980 1.009090
Cu2   Cu    Cu3+1 0.638630 0.500020 0.500020 1.024111
H1    H     H_    0.843796 0.543989 0.170377 0.154665
H2    H     H_    0.269307 0.379715 0.103128 0.148516
H3    H     H_    0.687771 0.405988 0.734739 0.163876
H4    H     H_    0.710524 0.114890 0.483729 0.175693
H5    H     H_    0.321146 0.971785 0.325928 0.362356
H6    H     H_    0.837939 0.760978 0.265963 0.332302
H7    H     H_    0.680346 0.767864 0.711979 0.331508
H8    H     H_    0.881297 0.243587 0.993043 0.354013
H9    H     H_    0.415093 0.908852 0.553897 0.098667
H10   H     H_    0.092930 0.635182 0.610297 0.153623
H11   H     H_    0.124889 0.449852 0.444789 0.219923
H12   H     H_    0.900840 0.423004 0.474205 0.207364
H13   H     H_    0.857805 0.462350 0.824869 0.129375
H14   H     H_    0.913576 0.531500 0.981889 0.127319
H15   H     H_    0.404095 0.464138 0.181509 0.131272
H16   H     H_    0.165405 0.408871 0.817520 0.166533
N1    N     N_2   0.152660 0.501340 0.501130 -0.356013
N2    N     N_2   0.846520 0.501370 0.501160 -0.371929
O1    O     O_R   0.382960 0.678040 0.499980 -0.485923
O2    O     O_R   0.411132 0.002036 0.344040 -0.677966
O3    O     O_2   0.868676 0.943364 0.359976 -0.467049
O4    O     O_R   0.742239 0.783433 0.315461 -0.673739
O5    O     O_2   0.878101 0.793966 0.558844 -0.493434
O6    O     O_R   0.720784 0.685134 0.686260 -0.683777
O7    O     O_2   0.017316 0.315087 0.107344 -0.512195
O8    O     O_R   0.976660 0.281037 0.951144 -0.708989
O9    O     O_R   0.617100 0.678080 0.500020 -0.445462
O10   O     O_R   0.325800 0.499940 0.650950 -0.509758
O11   O     O_R   0.559930 0.499980 0.650990 -0.476882
O12   O     O_R   0.382900 0.321920 0.499980 -0.457862
O13   O     O_R   0.617040 0.321960 0.500020 -0.525023
O14   O     O_R   0.440070 0.500020 0.349010 -0.505685
O15   O     O_R   0.674200 0.500060 0.349050 -0.477858
O16   O     O_2   0.256800 0.106919 0.472902 -0.467975

loop_
_geom_bond_atom_site_label_1
_geom_bond_atom_site_label_2
_ccdc_geom_bond_type
C12   C17   A    
C2    C22   A    
C21   O8    S    
C2    C4    S    
C23   C24   A    
C13   C28   A    
C6    C7    D    
C6    C19   S    
C1    O9    A    
C14   C27   A    
C8    H10   S    
C26   H3    S    
C10   O12   A    
H6    O4    S    
Cu1   O12   S    
C11   O14   A    
Cu2   O11   S    
C25   H13   S    
H5    O2    S    
H11   N1    S    
C8    N1    D    
H8    O8    S    
C5    C10   S    
Cu1   O1    S    
Cu2   O15   S    
C24   C25   A    
C16   C21   S    
C2    C15   A    
C12   C23   A    
C18   O16   D    
Cu1   Cu2   S    
Cu1   N1    S    
H7    O6    S    
C20   O5    D    
C4    O11   A    
Cu2   N2    S    
C25   C26   A    
C23   C27   A    
C1    C7    S    
C13   H14   S    
C11   C14   S    
C10   O13   A    
C27   H15   S    
C15   C16   A    
Cu2   O9    S    
C19   O3    D    
C12   C22   A    
Cu1   O10   S    
C18   O2    S    
C9    N2    D    
C20   O6    S    
C22   C26   A    
Cu2   O13   S    
C4    O10   A    
C21   O7    D    
C17   H2    S    
C7    H9    S    
Cu1   O14   S    
C8    C9    S    
H12   N2    S    
C5    C18   S    
C9    C20   S    
C15   H16   S    
C14   C28   A    
C3    H4    S    
C3    C6    S    
C11   O15   A    
C1    O1    A    
C19   O4    S    
C28   H1    S    
C13   C24   A    
C16   C17   A    
C3    C5    D    
