data_mof_unit_41809.cif
_audit_creation_date              2012-12-10T17:24:46-0500
_audit_creation_method            fapswitch 2.2
_symmetry_space_group_name_H-M    P1
_symmetry_Int_Tables_number       1
_space_group_crystal_system       triclinic
_cell_length_a                    23.457275
_cell_length_b                    10.76592
_cell_length_c                    9.65266
_cell_angle_alpha                 90.079047
_cell_angle_beta                  90.091375
_cell_angle_gamma                 91.787271
_cell_volume                      2436.48302931

loop_
_atom_site_label
_atom_site_type_symbol
_atom_type_description
_atom_site_fract_x
_atom_site_fract_y
_atom_site_fract_z
_atom_type_partial_charge
C1    C     C_R   0.500715 0.263154 0.499945 0.749611
C2    C     C_R   0.119498 0.507377 0.389582 0.629608
C3    C     C_R   0.239787 0.398389 0.396041 0.654457
C4    C     C_R   0.391095 0.492643 0.499986 0.994179
C5    C     C_R   0.299516 0.409329 0.395291 -0.088650
C6    C     C_R   0.328232 0.478729 0.500069 -0.238496
C7    C     C_R   0.296286 0.531690 0.607339 0.602980
C8    C     C_R   0.236914 0.521694 0.605749 -0.294419
C9    C     C_R   0.208384 0.456300 0.499730 0.115044
C10   C     C_R   0.752802 0.361762 0.467441 0.691528
C11   C     C_R   0.693820 0.374589 0.471035 -0.345381
C12   C     C_R   0.965064 0.332024 0.704778 -0.209753
C13   C     C_R   0.670718 0.490496 0.498950 -0.077724
C14   C     C_R   0.707162 0.594927 0.521623 0.110999
C15   C     C_R   0.766279 0.581369 0.517988 -0.233234
C16   C     C_R   0.498263 0.737180 0.500019 0.892506
C17   C     C_R   0.789207 0.465290 0.491158 0.205356
C18   C     C_R   0.394623 0.129089 0.552119 -0.185290
C19   C     C_R   0.343300 0.064286 0.575231 -0.233703
C20   C     C_R   0.341454 0.935228 0.572810 -0.132568
C21   C     C_R   0.390919 0.870080 0.547876 0.605679
C22   C     C_R   0.443867 0.933610 0.525609 -0.037372
C23   C     C_R   0.024769 0.330289 0.708683 0.160234
C24   C     C_R   0.445316 0.065097 0.526721 0.031282
C25   C     C_R   0.497351 0.129524 0.500007 -0.033718
C26   C     C_R   0.547033 0.066427 0.472539 -0.169848
C27   C     C_R   0.546102 0.938084 0.473421 -0.215060
C28   C     C_R   0.608689 0.500083 0.499952 0.826201
C29   C     C_R   0.495350 0.871312 0.500002 -0.085027
C30   C     C_R   0.594713 0.611182 0.138869 0.242020
C31   C     C_R   0.646820 0.611222 0.067368 0.050263
C32   C     C_R   0.645413 0.607668 0.923538 -0.229492
C33   C     C_R   0.592630 0.616255 0.859056 0.205545
C34   C     C_R   0.057290 0.388145 0.601561 -0.028681
C35   C     C_R   0.544983 0.557365 0.925572 0.101884
C36   C     C_R   0.545461 0.556244 0.074131 0.117921
C37   C     C_R   0.457257 0.445033 0.073358 -0.036190
C38   C     C_R   0.457292 0.444872 0.925966 0.001024
C39   C     C_R   0.880053 0.507209 0.380203 0.565472
C40   C     C_R   0.876793 0.395131 0.593517 0.617802
C41   C     C_R   0.936557 0.390163 0.596154 -0.056097
C42   C     C_R   0.968289 0.446705 0.488645 -0.011612
C43   C     C_R   0.939815 0.505142 0.378940 -0.013435
C44   C     C_R   0.028536 0.446173 0.491366 -0.060007
C45   C     C_R   0.059840 0.505105 0.384108 -0.031537
C46   C     C_R   0.030952 0.561739 0.274571 -0.148226
C47   C     C_R   0.971594 0.561502 0.271848 -0.155710
C48   C     C_R   0.117607 0.391055 0.600327 0.592476
Cu1   Cu    Cu3+1 0.500000 0.499990 0.640660 0.994225
Cu2   Cu    Cu3+1 0.500000 0.500010 0.359340 0.994031
F1    F     F_    0.385925 0.745275 0.542757 -0.667637
F2    F     F_    0.212230 0.330851 0.296044 -0.628984
F3    F     F_    0.322227 0.595338 0.712635 -0.603631
F4    F     F_    0.774556 0.249141 0.439626 -0.637925
H1    H     H_    0.941165 0.288013 0.788288 0.191970
H2    H     H_    0.683801 0.634744 0.867528 0.173521
H3    H     H_    0.422341 0.398717 0.871324 0.148968
H4    H     H_    0.054117 0.607026 0.190771 0.191889
H5    H     H_    0.950747 0.606679 0.186236 0.189290
H6    H     H_    0.212842 0.565911 0.686682 0.210367
H7    H     H_    0.700377 0.774833 0.468019 0.239788
H8    H     H_    0.700326 0.748119 0.639977 0.235419
H9    H     H_    0.038688 0.313458 0.914394 0.231199
H10   H     H_    0.037007 0.177834 0.825610 0.230884
H11   H     H_    0.587635 0.791248 0.190361 0.204002
H12   H     H_    0.666033 0.294063 0.452077 0.160445
H13   H     H_    0.623959 0.708840 0.306800 0.238567
H14   H     H_    0.716344 0.723725 0.098959 0.238246
H15   H     H_    0.727719 0.570219 0.116140 0.265230
H16   H     H_    0.593566 0.723048 0.684131 0.260539
H17   H     H_    0.547194 0.771352 0.812449 0.245631
H18   H     H_    0.317342 0.377502 0.193949 0.272218
H19   H     H_    0.320846 0.251339 0.297595 0.254344
H20   H     H_    0.794549 0.661382 0.535448 0.174673
H21   H     H_    0.586804 0.116932 0.451953 0.139275
H22   H     H_    0.394088 0.229432 0.553476 0.136378
H23   H     H_    0.304759 0.114434 0.594005 0.186421
H24   H     H_    0.301315 0.885118 0.589468 0.187328
H25   H     H_    0.585352 0.890458 0.454350 0.148476
H26   H     H_    0.422443 0.398703 0.127392 0.157104
N1    N     N_R   0.849940 0.453811 0.487146 -0.442661
N2    N     N_3   0.330940 0.346419 0.290748 -0.565089
N3    N     N_R   0.147075 0.450770 0.496167 -0.437545
N4    N     N_R   0.500540 0.501210 0.147910 -0.183769
N5    N     N_R   0.500560 0.501290 0.852040 -0.189292
N6    N     N_3   0.684555 0.715003 0.545080 -0.639159
N7    N     N_3   0.051668 0.270525 0.822966 -0.487925
N8    N     N_3   0.588511 0.705651 0.241319 -0.523775
N9    N     N_3   0.699223 0.640236 0.138469 -0.571618
N10   N     N_3   0.586409 0.732510 0.789790 -0.585614
O1    O     O_R   0.500000 0.319640 0.618810 -0.588296
O2    O     O_R   0.582120 0.500020 0.618760 -0.585373
O3    O     O_R   0.582120 0.500050 0.381190 -0.570041
O4    O     O_2   0.852184 0.562585 0.275820 -0.536960
O5    O     O_2   0.845794 0.343583 0.697413 -0.511636
O6    O     O_2   0.146848 0.334528 0.701441 -0.477792
O7    O     O_2   0.149858 0.567146 0.289899 -0.497500
O8    O     O_R   0.500000 0.319660 0.381240 -0.579791
O9    O     O_R   0.417880 0.499950 0.618810 -0.527987
O10   O     O_R   0.417880 0.499980 0.381240 -0.555706
O11   O     O_R   0.500000 0.680340 0.618760 -0.577153
O12   O     O_R   0.500000 0.680360 0.381190 -0.540413

loop_
_geom_bond_atom_site_label_1
_geom_bond_atom_site_label_2
_ccdc_geom_bond_type
C22   C29   A    
C27   C29   A    
C11   C13   A    
C41   C42   A    
C19   C20   A    
Cu2   N4    S    
C7    C8    A    
C45   C46   A    
H8    N6    S    
C12   C23   A    
H13   N8    S    
C37   C38   A    
C18   C24   A    
C27   H25   S    
Cu1   O11   S    
C30   C31   A    
C10   C17   A    
C18   C19   A    
C19   H23   S    
C35   C36   A    
C2    O7    S    
C8    C9    A    
C31   N9    S    
C13   C28   S    
H10   N7    S    
C11   H12   S    
C1    O1    A    
C23   N7    S    
C13   C14   A    
C46   H4    S    
C1    C25   S    
C2    N3    A    
H16   N10   S    
C42   C44   A    
Cu1   O1    S    
H15   N9    S    
H14   N9    S    
C2    C45   A    
C37   H26   S    
Cu2   O8    S    
C38   N5    A    
Cu1   N5    S    
C34   C44   A    
C24   C25   A    
C14   N6    S    
C4    C6    S    
H7    N6    S    
C39   C43   A    
C16   C29   S    
C28   O3    A    
C39   O4    S    
C12   C41   A    
C3    C9    A    
Cu1   O9    S    
C38   H3    S    
C31   C32   A    
C23   C34   A    
C26   H21   S    
C26   C27   A    
C28   O2    A    
C39   N1    A    
C9    N3    S    
C16   O12   A    
C40   C41   A    
Cu2   O12   S    
C4    O10   A    
C22   C24   A    
C34   C48   A    
C42   C43   A    
C7    F3    S    
Cu1   O2    S    
C30   N8    S    
H19   N2    S    
C21   F1    S    
C44   C45   A    
H11   N8    S    
C15   C17   A    
C46   C47   A    
C18   H22   S    
C48   O6    S    
H9    N7    S    
C40   N1    A    
C3    C5    A    
C1    O8    A    
C3    F2    S    
Cu2   O3    S    
C6    C7    A    
C37   N4    A    
C30   C36   A    
Cu2   O10   S    
C48   N3    A    
C20   H24   S    
C32   C33   A    
C25   C26   A    
C33   N10   S    
C8    H6    S    
C5    N2    S    
C35   N5    A    
C5    C6    A    
H17   N10   S    
C36   N4    A    
C33   C35   A    
C17   N1    S    
C10   F4    S    
C12   H1    S    
C10   C11   A    
C47   H5    S    
C16   O11   A    
C15   H20   S    
C20   C21   A    
Cu1   Cu2   S    
C4    O9    A    
C14   C15   A    
C40   O5    S    
C21   C22   A    
C43   C47   A    
C32   H2    S    
H18   N2    S    
