data_mof_unit_7197.cif
_audit_creation_date              2012-10-26T18:43:28-0400
_audit_creation_method            fapswitch 2.2
_symmetry_space_group_name_H-M    P1
_symmetry_Int_Tables_number       1
_space_group_crystal_system       triclinic
_cell_length_a                    10.912521
_cell_length_b                    10.893387
_cell_length_c                    9.66153
_cell_angle_alpha                 89.502734
_cell_angle_beta                  90.970827
_cell_angle_gamma                 90.564088
_cell_volume                      1148.24561978

loop_
_atom_site_label
_atom_site_type_symbol
_atom_type_description
_atom_site_fract_x
_atom_site_fract_y
_atom_site_fract_z
_atom_type_partial_charge
C1    C     C_R   0.506480 0.262181 0.500844 0.601207
C2    C     C_R   0.494984 0.932536 0.625398 0.003474
C3    C     C_3   0.583231 0.903327 0.739325 -0.235571
C4    C     C_R   0.260109 0.502924 0.499193 0.571002
C5    C     C_3   0.625572 0.035610 0.727581 0.035981
C6    C     C_R   0.552450 0.594929 0.073739 0.120665
C7    C     C_R   0.429046 0.419788 0.073800 0.091056
C8    C     C_R   0.433406 0.415240 0.925784 0.072525
C9    C     C_R   0.559778 0.589849 0.927782 0.107432
C10   C     C_3   0.695642 0.614778 0.937604 -0.116070
C11   C     C_3   0.680095 0.640329 0.090241 -0.241052
C12   C     C_3   0.877704 0.499841 0.499982 -0.012165
C13   C     C_R   0.494532 0.736798 0.499492 0.530420
C14   C     C_R   0.739567 0.505254 0.500293 0.557711
C15   C     C_3   0.070438 0.367469 0.548238 -0.017881
C16   C     C_3   0.922555 0.365149 0.532671 -0.004963
C17   C     C_3   0.073211 0.601573 0.596572 -0.272727
C18   C     C_3   0.067038 0.534902 0.349795 -0.081166
C19   C     C_3   0.121360 0.500490 0.497938 0.009827
C20   C     C_2   0.111042 0.342593 0.698625 0.150958
C21   C     C_3   0.614405 0.107339 0.864703 -0.235477
C22   C     C_3   0.714765 0.079305 0.972426 -0.385460
C23   C     C_3   0.932476 0.592622 0.606482 -0.275489
C24   C     C_2   0.749883 0.038368 0.658732 0.292970
C25   C     C_2   0.336365 0.344702 0.143952 0.379717
C26   C     C_2   0.126019 0.259612 0.471371 0.330244
C27   C     C_2   0.367129 0.314188 0.853541 0.273429
C28   C     C_2   0.770388 0.500481 0.921399 0.209964
C29   C     C_2   0.873067 0.281159 0.415154 0.213796
C30   C     C_2   0.860901 0.320445 0.666256 0.206900
C31   C     C_3   0.116839 0.657761 0.284696 -0.302665
C32   C     C_3   0.090588 0.665748 0.128938 -0.406834
C33   C     C_3   0.925610 0.541547 0.356063 -0.216772
C34   C     C_R   0.518656 0.058422 0.625965 0.026164
C35   C     C_R   0.511756 0.127144 0.501414 -0.005671
C36   C     C_R   0.489408 0.063946 0.376761 -0.150633
C37   C     C_R   0.476328 0.936619 0.375942 -0.155588
C38   C     C_R   0.484167 0.869644 0.500186 -0.001825
Cu1   Cu    Cu3+1 0.499990 0.499980 0.640670 0.951363
Cu2   Cu    Cu3+1 0.500010 0.500020 0.359330 0.955557
H1    H     H_    0.892220 0.636403 0.335691 0.112471
H2    H     H_    0.683330 0.739829 0.114998 0.097620
H3    H     H_    0.115247 0.598342 0.701622 0.136544
H4    H     H_    0.908798 0.564465 0.712422 0.178637
H5    H     H_    0.090074 0.459158 0.279527 0.262604
H6    H     H_    0.886452 0.485424 0.270811 0.199028
H7    H     H_    0.134750 0.415666 0.769084 0.142664
H8    H     H_    0.725836 0.978620 0.985922 0.160722
H9    H     H_    0.803068 0.122051 0.941703 0.236872
H10   H     H_    0.689320 0.118792 0.073495 0.130605
H11   H     H_    0.613660 0.207482 0.843833 0.199163
H12   H     H_    0.099532 0.694355 0.558472 0.137938
H13   H     H_    0.525708 0.083175 0.912629 0.179824
H14   H     H_    0.756490 0.061672 0.549899 0.104614
H15   H     H_    0.362522 0.267276 0.206789 0.166863
H16   H     H_    0.090454 0.167513 0.490095 0.166709
H17   H     H_    0.334385 0.324952 0.750275 0.197485
H18   H     H_    0.727477 0.416152 0.885851 0.165721
H19   H     H_    0.782652 0.239692 0.421754 0.142775
H20   H     H_    0.901969 0.331989 0.767618 0.192459
H21   H     H_    0.130760 0.586455 0.075065 0.212783
H22   H     H_    0.990374 0.668168 0.107919 0.193732
H23   H     H_    0.892528 0.685225 0.588835 0.134490
H24   H     H_    0.131945 0.751410 0.086510 0.152701
H25   H     H_    0.074298 0.738552 0.333394 0.147827
H26   H     H_    0.216507 0.671152 0.300234 0.186669
H27   H     H_    0.484356 0.112101 0.278667 0.129546
H28   H     H_    0.465264 0.890579 0.277516 0.139966
H29   H     H_    0.534671 0.879103 0.836271 0.130236
H30   H     H_    0.652902 0.834689 0.710224 0.140975
H31   H     H_    0.727654 0.695385 0.876783 0.121340
H32   H     H_    0.736321 0.582964 0.160019 0.178304
N1    N     N_R   0.500800 0.500930 0.147930 -0.277468
N2    N     N_R   0.500800 0.500890 0.852020 -0.293352
O1    O     O_R   0.500000 0.319640 0.618810 -0.499666
O2    O     O_2   0.842476 0.006431 0.721351 -0.501598
O3    O     O_2   0.227948 0.361023 0.117918 -0.467851
O4    O     O_2   0.210536 0.271555 0.392161 -0.506018
O5    O     O_2   0.347679 0.215115 0.909299 -0.517746
O6    O     O_2   0.878621 0.500225 0.955401 -0.558857
O7    O     O_2   0.927126 0.267656 0.306689 -0.509464
O8    O     O_2   0.755896 0.282288 0.664367 -0.568744
O9    O     O_R   0.500010 0.319680 0.381230 -0.529374
O10   O     O_R   0.317690 0.499960 0.618790 -0.555061
O11   O     O_R   0.317700 0.500000 0.381210 -0.474313
O12   O     O_R   0.499990 0.680320 0.618770 -0.507520
O13   O     O_R   0.500000 0.680360 0.381190 -0.519539
O14   O     O_R   0.682300 0.500000 0.618790 -0.475073
O15   O     O_R   0.682310 0.500040 0.381210 -0.526309
O16   O     O_2   0.109738 0.238299 0.747082 -0.466286

loop_
_geom_bond_atom_site_label_1
_geom_bond_atom_site_label_2
_ccdc_geom_bond_type
C31   H26   S    
C22   H8    S    
C35   C36   A    
C6    C9    A    
C36   H27   S    
C7    C8    A    
C7    N1    A    
C15   C19   S    
C12   C23   S    
C17   C23   S    
C25   O3    D    
Cu2   O13   S    
C36   C37   A    
C3    H29   S    
Cu1   O10   S    
C18   C19   S    
C27   O5    D    
C16   C30   S    
C15   C16   S    
C37   H28   S    
Cu2   N1    S    
C11   H2    S    
C34   C35   A    
Cu1   N2    S    
C4    C19   S    
C12   C16   S    
C30   H20   S    
C13   O12   A    
Cu1   O1    S    
Cu2   O15   S    
C9    C10   S    
C22   H10   S    
C10   H31   S    
C2    C34   A    
C23   H23   S    
C21   C22   S    
C33   H6    S    
Cu2   O9    S    
Cu1   O14   S    
C17   H12   S    
C15   C20   S    
C1    O1    A    
C29   H19   S    
C3    H30   S    
C32   H24   S    
C27   H17   S    
C6    C11   S    
C11   H32   S    
C24   O2    D    
C15   C26   S    
C4    O11   A    
C16   C29   S    
C20   O16   D    
C23   H4    S    
Cu2   O11   S    
C30   O8    D    
C17   H3    S    
C14   O15   A    
C29   O7    D    
C37   C38   A    
C2    C38   A    
C31   C32   S    
C4    O10   A    
C5    C34   S    
C13   O13   A    
C8    N2    A    
C26   O4    D    
C13   C38   S    
C22   H9    S    
C12   C14   S    
C9    N2    A    
C18   H5    S    
C21   H11   S    
C1    C35   S    
C6    N1    A    
C10   C28   S    
C31   H25   S    
C25   H15   S    
C3    C5    S    
C26   H16   S    
C32   H21   S    
C28   H18   S    
C1    O9    A    
C7    C25   S    
C33   H1    S    
C2    C3    S    
C32   H22   S    
C21   H13   S    
C5    C24   S    
C17   C19   S    
C28   O6    D    
C18   C33   S    
C20   H7    S    
C10   C11   S    
C14   O14   A    
Cu1   Cu2   S    
C5    C21   S    
C8    C27   S    
C18   C31   S    
Cu1   O12   S    
C12   C33   S    
C24   H14   S    
