data_mof_unit_23373.cif
_audit_creation_date              2012-12-10T16:51:31-0500
_audit_creation_method            fapswitch 2.2
_symmetry_space_group_name_H-M    P1
_symmetry_Int_Tables_number       1
_space_group_crystal_system       triclinic
_cell_length_a                    7.805913
_cell_length_b                    8.568551
_cell_length_c                    12.603965
_cell_angle_alpha                 92.459267
_cell_angle_beta                  102.565425
_cell_angle_gamma                 93.912608
_cell_volume                      819.466066244

loop_
_atom_site_label
_atom_site_type_symbol
_atom_type_description
_atom_site_fract_x
_atom_site_fract_y
_atom_site_fract_z
_atom_type_partial_charge
C1    C     C_R   0.040922 0.793909 0.490448 0.880130
C2    C     C_R   0.191021 0.590920 0.820391 -0.128849
C3    C     C_2   0.048488 0.952242 0.462316 -0.209757
C4    C     C_R   0.114868 0.532408 0.706989 0.865529
C5    C     C_2   0.928783 0.040725 0.492613 -0.454847
C6    C     C_R   0.952533 0.205195 0.495910 0.992389
C7    C     C_R   0.889666 0.486926 0.292041 0.885865
C8    C     C_R   0.855319 0.403643 0.995737 -0.191770
C9    C     C_R   0.826318 0.477450 0.176235 -0.055578
C10   C     C_R   0.083740 0.654065 0.884139 -0.220151
C11   C     C_R   0.147389 0.684412 0.995530 -0.113244
C12   C     C_R   0.428812 0.586909 0.981259 0.077633
C13   C     C_R   0.314501 0.643397 0.045043 -0.189694
C14   C     C_2   0.169985 0.002107 0.390957 0.950585
C15   C     C_R   0.371987 0.580924 0.867375 0.096907
C16   C     C_R   0.596642 0.533622 0.024873 0.080640
C17   C     C_R   0.698930 0.472428 0.954450 0.161897
C18   C     C_R   0.650624 0.492283 0.844319 -0.277270
C19   C     C_R   0.498754 0.562639 0.804453 -0.179314
C20   C     C_R   0.665852 0.538017 0.135660 -0.264823
C21   C     C_R   0.919802 0.406738 0.107157 -0.177675
H1    H     H_    0.043107 0.356820 0.139074 0.186502
H2    H     H_    0.062922 0.731362 0.044676 0.163516
H3    H     H_    0.484403 0.605162 0.724919 0.171006
H4    H     H_    0.409455 0.993471 0.355721 0.332018
H5    H     H_    0.826823 0.994135 0.531945 0.189886
H6    H     H_    0.471466 0.365913 0.426667 0.203032
H7    H     H_    0.528548 0.641080 0.565786 0.188947
H8    H     H_    0.734145 0.460865 0.790014 0.185945
H9    H     H_    0.930961 0.353699 0.941936 0.154892
H10   H     H_    0.599174 0.591814 0.192171 0.164682
H11   H     H_    0.950372 0.678731 0.848110 0.165484
H12   H     H_    0.349231 0.658228 0.132549 0.142523
N1    N     N_2   0.434800 0.456690 0.470850 -0.163362
N2    N     N_2   0.565200 0.543310 0.529150 -0.178848
O1    O     O_R   0.893060 0.738880 0.507150 -0.619599
O2    O     O_R   0.340642 0.952921 0.409806 -0.800534
O3    O     O_R   0.172250 0.711130 0.488470 -0.595171
O4    O     O_R   0.944700 0.520730 0.667600 -0.631455
O5    O     O_R   0.223890 0.492980 0.648920 -0.627219
O6    O     O_R   0.827750 0.288870 0.511530 -0.621926
O7    O     O_R   0.106940 0.261120 0.492850 -0.588062
O8    O     O_R   0.776110 0.507020 0.351080 -0.632381
O9    O     O_R   0.055300 0.479270 0.332400 -0.607797
O10   O     O_2   0.118762 0.082845 0.314363 -0.643437
Zn1   Zn    Zn3+2 0.813580 0.518530 0.512470 0.946414
Zn2   Zn    Zn3+2 0.186420 0.481470 0.487530 0.986340

loop_
_geom_bond_atom_site_label_1
_geom_bond_atom_site_label_2
_ccdc_geom_bond_type
O5    Zn2   S    
C2    C4    S    
O6    Zn1   S    
O9    Zn2   S    
C15   C19   A    
O1    Zn1   S    
C7    O8    A    
C14   O10   D    
C9    C20   A    
C8    C17   A    
C4    O4    A    
C16   C20   A    
C8    H9    S    
C3    C5    D    
C8    C21   A    
C18   H8    S    
C21   H1    S    
C14   O2    S    
C13   H12   S    
C2    C15   A    
C11   C13   A    
C9    C21   A    
O3    Zn2   S    
C3    C14   S    
C1    O3    A    
O4    Zn1   S    
C12   C16   A    
C11   H2    S    
C19   H3    S    
C12   C15   A    
O7    Zn2   S    
H6    N1    S    
C5    C6    S    
O8    Zn1   S    
C10   C11   A    
C5    H5    S    
C2    C10   A    
C10   H11   S    
C12   C13   A    
C1    O1    A    
C17   C18   A    
N1    N2    D    
C6    O7    A    
C7    C9    S    
C18   C19   A    
N1    Zn2   S    
H4    O2    S    
C7    O9    A    
N2    Zn1   S    
C20   H10   S    
C4    O5    A    
H7    N2    S    
C16   C17   A    
C1    C3    S    
C6    O6    A    
