data_mof_unit_63357.cif
_audit_creation_date              2012-12-10T16:56:22-0500
_audit_creation_method            fapswitch 2.2
_symmetry_space_group_name_H-M    P1
_symmetry_Int_Tables_number       1
_space_group_crystal_system       triclinic
_cell_length_a                    18.706601
_cell_length_b                    18.86371
_cell_length_c                    18.599631
_cell_angle_alpha                 109.021286
_cell_angle_beta                  109.377613
_cell_angle_gamma                 109.164143
_cell_volume                      5104.79124525

loop_
_atom_site_label
_atom_site_type_symbol
_atom_type_description
_atom_site_fract_x
_atom_site_fract_y
_atom_site_fract_z
_atom_type_partial_charge
C1    C     C_R   0.616233 0.618202 0.495870 0.880375
C2    C     C_2   0.818222 0.507956 0.829306 -0.353795
C3    C     C_2   0.761906 0.580750 0.758841 0.031981
C4    C     C_R   0.379648 0.499245 0.379670 0.882888
C5    C     C_2   0.696345 0.507593 0.685940 -0.386402
C6    C     C_2   0.259574 0.182337 0.507882 -0.156089
C7    C     C_2   0.181849 0.176848 0.488829 -0.332702
C8    C     C_2   0.321093 0.243794 0.497146 -0.158741
C9    C     C_2   0.323738 0.319234 0.512773 -0.328344
C10   C     C_R   0.007157 0.618764 0.126607 0.933230
C11   C     C_R   0.126699 0.498974 0.126165 0.874215
C12   C     C_3   0.178383 0.422219 0.210792 -0.241135
C13   C     C_R   0.006753 0.381702 0.886856 0.925986
C14   C     C_R   0.886249 0.502151 0.888416 0.946490
C15   C     C_R   0.997089 0.117120 0.618106 0.929252
C16   C     C_R   0.383031 0.381698 0.502970 0.936867
C17   C     C_R   0.881776 0.885695 0.505037 0.930119
C18   C     C_R   0.998580 0.878556 0.382112 0.937009
C19   C     C_R   0.118571 0.116986 0.497456 0.936278
C20   C     C_2   0.004659 0.745869 0.328571 -0.146436
C21   C     C_2   0.989193 0.805791 0.314418 -0.331668
C22   C     C_2   0.994346 0.673511 0.257000 -0.153863
C23   C     C_3   0.227166 0.488138 0.308634 0.058166
C24   C     C_2   0.013175 0.685864 0.197304 -0.337184
C25   C     C_2   0.924873 0.187206 0.675588 -0.157776
C26   C     C_2   0.994760 0.177655 0.687006 -0.329000
C27   C     C_2   0.927056 0.248072 0.750305 -0.149196
C28   C     C_R   0.623346 0.502781 0.620766 0.935650
C29   C     C_2   0.001839 0.319672 0.812974 -0.333396
C30   C     C_3   0.326962 0.573805 0.294050 -0.178691
C31   C     C_3   0.239568 0.563663 0.289673 -0.223604
C32   C     C_3   0.192397 0.497916 0.192152 -0.055583
C33   C     C_3   0.277936 0.507428 0.196703 0.278433
C34   C     C_3   0.312856 0.497981 0.312497 -0.054552
C35   C     C_3   0.265537 0.431868 0.214828 -0.233116
C36   C     C_1   0.710408 0.647206 0.430154 0.215204
C37   C     C_1   0.768094 0.663840 0.776965 0.207186
C38   C     C_3   0.388681 0.530689 0.152409 -0.778118
C39   C     C_1   0.200648 0.477123 0.371896 0.160543
C40   C     C_2   0.739735 0.820914 0.493793 -0.164630
C41   C     C_2   0.819877 0.831598 0.519528 -0.306824
C42   C     C_2   0.679259 0.757485 0.503878 -0.218824
C43   C     C_2   0.672355 0.679119 0.481164 -0.162647
C44   C     C_2   0.833468 0.577521 0.819144 -0.194857
H1    H     H_    0.226439 0.616352 0.318226 0.143960
H2    H     H_    0.389150 0.634820 0.328866 0.135314
H3    H     H_    0.961659 0.797722 0.248985 0.158857
H4    H     H_    0.975602 0.611979 0.255726 0.169630
H5    H     H_    0.041642 0.749829 0.204588 0.158387
H6    H     H_    0.865187 0.147623 0.613136 0.165048
H7    H     H_    0.050661 0.210107 0.751728 0.157898
H8    H     H_    0.866988 0.235484 0.752407 0.163741
H9    H     H_    0.059495 0.337731 0.805806 0.155056
H10   H     H_    0.278253 0.379101 0.185506 0.159897
H11   H     H_    0.116298 0.361113 0.176106 0.164091
H12   H     H_    0.898072 0.633406 0.857498 0.172113
H13   H     H_    0.718986 0.857982 0.466335 0.169395
H14   H     H_    0.842014 0.800734 0.555438 0.164694
H15   H     H_    0.640162 0.775378 0.530197 0.170245
H16   H     H_    0.255597 0.470354 0.069777 0.219449
H17   H     H_    0.402889 0.541497 0.102324 0.243326
H18   H     H_    0.393447 0.473335 0.151829 0.234766
H19   H     H_    0.437876 0.588229 0.217235 0.245603
H20   H     H_    0.752418 0.455676 0.798135 0.158636
H21   H     H_    0.699976 0.448513 0.668627 0.152644
H22   H     H_    0.276633 0.139427 0.527774 0.167451
H23   H     H_    0.161128 0.212817 0.459508 0.161892
H24   H     H_    0.366078 0.228405 0.479565 0.166292
H25   H     H_    0.285816 0.338681 0.539962 0.162253
H26   H     H_    0.022292 0.748526 0.391609 0.168741
N1    N     N_1   0.740472 0.621693 0.389571 -0.206405
N2    N     N_1   0.773107 0.730310 0.791451 -0.203803
N3    N     N_2   0.302357 0.517327 0.133028 -0.293081
N4    N     N_1   0.179817 0.468411 0.421821 -0.206868
O1    O     O_R   0.591160 0.539400 0.449620 -0.618796
O2    O     O_R   0.050520 0.090460 0.641000 -0.625123
O3    O     O_R   0.857760 0.909540 0.448230 -0.618853
O4    O     O_R   0.589730 0.641530 0.550350 -0.618229
O5    O     O_R   0.961340 0.909540 0.551790 -0.627089
O6    O     O_R   0.949480 0.909540 0.359000 -0.619666
O7    O     O_R   0.053060 0.909550 0.462560 -0.618773
O8    O     O_R   0.038660 0.090460 0.448210 -0.620817
O9    O     O_R   0.142240 0.090460 0.551770 -0.616533
O10   O     O_R   0.408980 0.448930 0.357910 -0.628602
O11   O     O_R   0.407550 0.551060 0.458650 -0.623819
O12   O     O_R   0.056790 0.641480 0.096140 -0.626079
O13   O     O_R   0.410270 0.358470 0.449650 -0.619523
O14   O     O_R   0.408840 0.460600 0.550380 -0.618260
O15   O     O_R   0.592450 0.448940 0.541350 -0.624453
O16   O     O_R   0.591020 0.551070 0.642090 -0.604296
O17   O     O_R   0.954670 0.539370 0.096190 -0.614683
O18   O     O_R   0.047640 0.448900 0.098680 -0.627254
O19   O     O_R   0.149770 0.551010 0.098640 -0.615159
O20   O     O_R   0.957150 0.358410 0.917750 -0.617327
O21   O     O_R   0.059270 0.460520 0.917700 -0.623348
O22   O     O_R   0.864170 0.448890 0.915250 -0.626540
O23   O     O_R   0.966300 0.551000 0.915200 -0.617321
O24   O     O_R   0.946940 0.090450 0.537440 -0.619526
Zn1   Zn    Zn3+2 0.500950 0.431810 0.432740 0.960147
Zn2   Zn    Zn3+2 0.499050 0.568190 0.567260 0.979198
Zn3   Zn    Zn3+2 0.938780 0.431770 0.006970 0.956291
Zn4   Zn    Zn3+2 0.075160 0.568130 0.006910 0.964307
Zn5   Zn    Zn3+2 0.930840 1.000000 0.430850 0.961188
Zn6   Zn    Zn3+2 0.069160 1.000000 0.569150 0.957014

loop_
_geom_bond_atom_site_label_1
_geom_bond_atom_site_label_2
_ccdc_geom_bond_type
O2    Zn6   S    
C22   H4    S    
C27   C29   D    
C18   C21   S    
C12   C23   S    
O15   Zn1   S    
C13   C29   S    
C9    C16   S    
C9    H25   S    
C41   H14   S    
C30   C31   S    
O24   Zn5   S    
H16   N3    S    
C17   O5    A    
C18   O7    A    
C34   C35   S    
C39   N4    T    
C14   O22   A    
C25   H6    S    
C11   O18   A    
C1    C43   S    
O20   Zn3   S    
C2    C44   D    
C8    C9    D    
O1    Zn1   S    
C16   O13   A    
O8    Zn5   S    
C28   O15   A    
C19   O8    A    
O23   Zn4   S    
C36   N1    T    
C38   H17   S    
C11   O19   A    
C40   C42   S    
C15   O2    A    
O22   Zn3   S    
C12   C32   S    
C35   H10   S    
C1    O4    A    
C20   H26   S    
O17   Zn3   S    
C19   O9    A    
O16   Zn2   S    
C2    H20   S    
O13   Zn1   S    
C4    C34   S    
C3    C44   S    
O9    Zn6   S    
C30   C34   S    
O6    Zn5   S    
C1    O1    A    
C5    H21   S    
C15   C26   S    
C6    C8    S    
C4    O11   A    
C10   C24   S    
C25   C26   D    
C23   C31   S    
O19   Zn4   S    
C5    C28   S    
C44   H12   S    
C31   C32   S    
C4    O10   A    
C23   C34   S    
C17   O3    A    
C12   C35   S    
O14   Zn2   S    
O18   Zn3   S    
C33   N3    S    
C40   C41   D    
C20   C22   S    
C11   C32   S    
C8    H24   S    
C7    C19   S    
O4    Zn2   S    
C22   C24   D    
O5    Zn6   S    
O3    Zn5   S    
C42   C43   D    
C15   O24   A    
O12   Zn4   S    
C27   H8    S    
C14   O23   A    
C38   H19   S    
C24   H5    S    
C10   O12   A    
C40   H13   S    
C30   C33   S    
O10   Zn1   S    
C30   H2    S    
C3    C5    D    
C42   H15   S    
C10   O17   A    
O21   Zn4   S    
C6    C7    D    
C25   C27   S    
C13   O20   A    
C32   C33   S    
O11   Zn2   S    
C26   H7    S    
C13   O21   A    
C29   H9    S    
C23   C39   S    
C33   C35   S    
C2    C14   S    
C17   C41   S    
C12   H11   S    
C7    H23   S    
C6    H22   S    
C20   C21   D    
C3    C37   S    
C18   O6    A    
C31   H1    S    
C37   N2    T    
C16   O14   A    
C36   C43   S    
C28   O16   A    
C38   H18   S    
C38   N3    S    
C21   H3    S    
O7    Zn6   S    
