data_mof_unit_6670.cif
_audit_creation_date              2012-12-11T14:21:10-0500
_audit_creation_method            fapswitch 2.2
_symmetry_space_group_name_H-M    P1
_symmetry_Int_Tables_number       1
_space_group_crystal_system       triclinic
_cell_length_a                    21.950931
_cell_length_b                    7.207584
_cell_length_c                    14.936031
_cell_angle_alpha                 89.988078
_cell_angle_beta                  107.173702
_cell_angle_gamma                 89.996804
_cell_volume                      2257.71670301

loop_
_atom_site_label
_atom_site_type_symbol
_atom_type_description
_atom_site_fract_x
_atom_site_fract_y
_atom_site_fract_z
_atom_type_partial_charge
O1    O     O_R   0.584770 0.505770 0.002090 -0.539417
O2    O     O_R   0.415230 0.005770 0.997910 -0.539417
O3    O     O_R   0.467060 0.173340 0.861950 -0.537699
O4    O     O_R   0.532940 0.673340 0.138050 -0.537700
C1    C     C_R   0.455249 0.344179 0.825913 0.677892
C2    C     C_R   0.544749 0.844130 0.174090 0.677916
O5    O     O_R   0.587510 0.175890 0.993210 -0.541019
O6    O     O_R   0.412490 0.675890 0.006790 -0.541014
O7    O     O_R   0.536540 0.008150 0.130100 -0.536429
O8    O     O_R   0.463460 0.508150 0.869900 -0.536425
C3    C     C_R   0.612964 0.344934 0.997443 0.730838
C4    C     C_R   0.387035 0.844940 0.002557 0.730892
O9    O     O_3   0.483140 0.340040 0.044760 -0.376839
O10   O     O_3   0.516860 0.840040 0.955240 -0.376862
V1    V     V_3+5 0.503130 0.064190 0.991700 1.445796
V2    V     V_3+5 0.496870 0.564190 0.008300 1.445854
C5    C     C_2   0.214046 0.727589 0.003602 -0.121512
C6    C     C_2   0.785964 0.227598 0.996422 -0.121412
C7    C     C_2   0.180335 0.886698 0.996313 -0.296385
C8    C     C_2   0.819665 0.386708 0.003690 -0.296466
H1    H     H_    0.190975 0.596798 0.009505 0.140937
H2    H     H_    0.809044 0.096810 0.990538 0.140988
C9    C     C_2   0.281929 0.714604 0.003352 -0.123643
C10   C     C_2   0.718082 0.214600 0.996674 -0.123641
C11   C     C_2   0.319951 0.861448 0.003557 -0.286460
C12   C     C_2   0.680048 0.361439 0.996441 -0.286658
H3    H     H_    0.301114 0.575628 0.003696 0.142789
H4    H     H_    0.698908 0.075624 0.996354 0.142847
H5    H     H_    0.302043 0.001265 0.004146 0.137439
H6    H     H_    0.697946 0.501257 0.995829 0.137490
C13   C     C_R   0.925470 0.885082 0.724223 -0.029979
C14   C     C_R   0.074546 0.384817 0.275768 -0.029969
C15   C     C_R   0.571861 0.849184 0.275905 -0.034301
C16   C     C_R   0.428138 0.349471 0.724102 -0.034314
C17   C     C_R   0.934908 0.862718 0.567849 -0.146982
C18   C     C_R   0.065127 0.359559 0.432056 -0.146940
C19   C     C_R   0.963258 0.882438 0.663857 -0.166773
C20   C     C_R   0.036750 0.380132 0.336099 -0.166766
C21   C     C_R   0.859110 0.872130 0.688563 -0.188712
C22   C     C_R   0.140934 0.372997 0.311422 -0.188738
C23   C     C_R   0.828865 0.852346 0.591137 0.101682
C24   C     C_R   0.171202 0.352173 0.408788 0.101679
C25   C     C_R   0.868385 0.845861 0.531231 0.059766
C26   C     C_R   0.131682 0.343679 0.468652 0.059760
C27   C     C_R   0.761132 0.839146 0.551320 -0.052587
C28   C     C_R   0.238957 0.339730 0.448584 -0.052569
C29   C     C_R   0.734350 0.822978 0.452132 -0.050612
C30   C     C_R   0.265748 0.322343 0.547717 -0.050635
C31   C     C_R   0.776498 0.788964 0.397097 0.337178
C32   C     C_R   0.223654 0.286351 0.602618 0.337207
C33   C     C_R   0.841814 0.812999 0.435831 -0.189683
C34   C     C_R   0.158299 0.309667 0.563947 -0.189602
C35   C     C_R   0.719428 0.839826 0.607503 -0.168371
C36   C     C_R   0.280677 0.342283 0.392431 -0.168429
C37   C     C_R   0.653499 0.832715 0.569314 0.324628
C38   C     C_R   0.346620 0.335923 0.430635 0.324733
C39   C     C_R   0.626291 0.827581 0.471126 0.046555
C40   C     C_R   0.373812 0.329713 0.528814 0.046356
C41   C     C_R   0.666667 0.836400 0.412184 0.043437
C42   C     C_R   0.333396 0.336589 0.587741 0.043415
C43   C     C_R   0.559734 0.810937 0.430162 -0.163356
C44   C     C_R   0.440398 0.313962 0.569782 -0.163357
C45   C     C_R   0.533122 0.817405 0.333290 -0.146689
C46   C     C_R   0.466970 0.319563 0.666679 -0.146876
C47   C     C_R   0.637738 0.864721 0.315198 -0.209320
C48   C     C_R   0.362234 0.363975 0.684809 -0.209235
H7    H     H_    0.872542 0.793716 0.391485 0.144191
H8    H     H_    0.127597 0.288856 0.608210 0.144092
H9    H     H_    0.014682 0.892260 0.691245 0.110198
H10   H     H_    0.985303 0.388963 0.308709 0.110204
H11   H     H_    0.832990 0.877298 0.739226 0.090224
H12   H     H_    0.167055 0.379629 0.260790 0.090206
H13   H     H_    0.527644 0.787980 0.471799 0.126418
H14   H     H_    0.472553 0.292488 0.528113 0.126838
O11   O     O_R   0.036450 0.233070 0.130130 -0.537155
O12   O     O_R   0.963550 0.733070 0.869870 -0.537164
O13   O     O_R   0.912470 0.560570 0.006790 -0.543815
O14   O     O_R   0.087530 0.060570 0.993210 -0.543819
C49   C     C_R   0.886981 0.391910 0.002554 0.730850
C50   C     C_R   0.113019 0.891904 0.997447 0.730838
O15   O     O_R   0.032920 0.562940 0.138050 -0.539128
O16   O     O_R   0.967080 0.062940 0.861950 -0.539139
O17   O     O_R   0.084790 0.730500 0.002090 -0.537860
O18   O     O_R   0.915210 0.230500 0.997910 -0.537844
C51   C     C_R   0.045146 0.394369 0.174470 0.683011
C52   C     C_R   0.954856 0.894417 0.825528 0.683016
O19   O     O_3   0.016820 0.396170 0.955260 -0.378152
O20   O     O_3   0.983180 0.896170 0.044740 -0.378138
V3    V     V_3+5 0.996880 0.672090 0.008300 1.426951
V4    V     V_3+5 0.003120 0.172090 0.991700 1.426966
O21   O     O_3   0.757059 0.713224 0.308498 -0.653022
H15   H     H_    0.722504 0.623406 0.306752 0.289037
O22   O     O_3   0.243221 0.209344 0.690950 -0.652981
H16   H     H_    0.277975 0.120408 0.692428 0.289149
H17   H     H_    0.736321 0.845697 0.682774 0.145017
H18   H     H_    0.263786 0.349108 0.317178 0.145011
H19   H     H_    0.201872 0.018923 0.989316 0.134703
H20   H     H_    0.798119 0.518929 0.010672 0.134727
H21   H     H_    0.665587 0.898078 0.268611 0.153572
H22   H     H_    0.334291 0.395953 0.731443 0.153431
H23   H     H_    0.482144 0.799502 0.303073 0.117182
H24   H     H_    0.517986 0.302540 0.696885 0.117309
O23   O     O_3   0.617647 0.836395 0.631259 -0.646042
H25   H     H_    0.578754 0.910706 0.603390 0.283158
O24   O     O_3   0.382486 0.341431 0.368733 -0.645972
H26   H     H_    0.421242 0.416128 0.396838 0.282946
H27   H     H_    0.965156 0.857455 0.522177 0.118347
H28   H     H_    0.034878 0.352713 0.477690 0.118357

loop_
_geom_bond_atom_site_label_1
_geom_bond_atom_site_label_2
_ccdc_geom_bond_type
C40   C44   A    
C20   H10   S    
O22   H16   S    
C19   H9    S    
C18   H28   S    
O1    C3    A    
C45   H23   S    
O2    C4    A    
C16   C48   A    
C2    O7    A    
C7    H19   S    
C15   C47   A    
C21   C23   A    
O14   V4    S    
C46   H24   S    
O13   V3    S    
C5    C9    S    
O18   V4    S    
C6    C10   S    
C17   C19   A    
C10   C12   D    
C49   O18   A    
O14   C50   A    
C39   C41   A    
C35   H17   S    
C40   C42   A    
C37   O23   S    
C24   C28   A    
C27   C29   A    
C48   H22   S    
C43   C45   A    
C44   C46   A    
O11   V4    S    
O19   V4    S    
O11   C51   A    
C13   C21   A    
C31   C33   A    
C32   C34   A    
C9    H3    S    
C17   C25   A    
C36   H18   S    
C34   H8    S    
C15   C45   A    
O12   V3    S    
O15   V3    S    
C26   C34   A    
C30   C32   A    
C42   C48   A    
O6    V2    S    
C13   C52   S    
C23   C25   A    
C24   C26   A    
C31   O21   S    
C50   O17   A    
C30   C42   A    
C28   C30   A    
C35   C37   A    
C11   H5    S    
O17   V3    S    
C36   C38   A    
C47   H21   S    
C29   C31   A    
O21   H15   S    
O5    V1    S    
C3    C12   S    
C43   H13   S    
O16   C52   A    
C27   C35   A    
C5    H1    S    
C13   C19   A    
O4    V2    S    
O5    C3    A    
O6    C4    A    
C1    C16   S    
C28   C36   A    
C16   C46   A    
O13   C49   A    
O1    V2    S    
C33   H7    S    
O2    V1    S    
O4    C2    A    
C12   H6    S    
C14   C20   A    
C37   C39   A    
C18   C26   A    
O12   C52   A    
O3    V1    S    
C21   H11   S    
C22   H12   S    
C8    C49   S    
C6    H2    S    
C10   H4    S    
O3    C1    A    
C32   O22   S    
C39   C43   A    
O24   H26   S    
O16   V4    S    
C2    C15   S    
C4    C11   S    
C18   C20   A    
O7    V1    S    
C1    O8    A    
O8    V2    S    
C41   C47   A    
C25   C33   A    
C14   C51   S    
C22   C24   A    
C5    C7    D    
C38   C40   A    
C6    C8    D    
C14   C22   A    
C7    C50   S    
C38   O24   S    
C17   H27   S    
C29   C41   A    
C9    C11   D    
C8    H20   S    
O20   V3    S    
O9    V2    S    
O23   H25   S    
C23   C27   A    
O10   V1    S    
C44   H14   S    
O15   C51   A    
