data_mof_unit_59341.cif
_audit_creation_date              2012-12-11T15:33:39-0500
_audit_creation_method            fapswitch 2.2
_symmetry_space_group_name_H-M    P1
_symmetry_Int_Tables_number       1
_space_group_crystal_system       triclinic
_cell_length_a                    27.137779
_cell_length_b                    7.202819
_cell_length_c                    22.732724
_cell_angle_alpha                 90.004847
_cell_angle_beta                  101.123663
_cell_angle_gamma                 90.004018
_cell_volume                      4360.05133837

loop_
_atom_site_label
_atom_site_type_symbol
_atom_type_description
_atom_site_fract_x
_atom_site_fract_y
_atom_site_fract_z
_atom_type_partial_charge
O1    O     O_R   0.207310 0.594030 0.676830 -0.532120
O2    O     O_R   0.792690 0.405970 0.323170 -0.532121
O3    O     O_R   0.292690 0.094030 0.823170 -0.532112
O4    O     O_R   0.707310 0.905970 0.176830 -0.532112
O5    O     O_R   0.197320 0.262370 0.795700 -0.539779
O6    O     O_R   0.802680 0.737630 0.204300 -0.539780
O7    O     O_R   0.302680 0.762370 0.704300 -0.539780
O8    O     O_R   0.697320 0.237630 0.295700 -0.539780
C1    C     C_R   0.184658 0.432515 0.811934 0.673261
C2    C     C_R   0.815342 0.567485 0.188066 0.673261
C3    C     C_R   0.315342 0.932515 0.688067 0.673229
C4    C     C_R   0.684658 0.067485 0.311933 0.673230
O9    O     O_R   0.201410 0.264250 0.675590 -0.534049
O10   O     O_R   0.798590 0.735750 0.324410 -0.534049
O11   O     O_R   0.298590 0.764250 0.824410 -0.534040
O12   O     O_R   0.701410 0.235750 0.175590 -0.534039
O13   O     O_R   0.296810 0.094940 0.702210 -0.538093
O14   O     O_R   0.703190 0.905060 0.297790 -0.538094
O15   O     O_R   0.203190 0.594940 0.797790 -0.538097
O16   O     O_R   0.796810 0.405060 0.202210 -0.538096
C5    C     C_R   0.189801 0.432488 0.653435 0.685464
C6    C     C_R   0.810199 0.567512 0.346564 0.685464
C7    C     C_R   0.310197 0.932513 0.846563 0.685474
C8    C     C_R   0.689802 0.067487 0.153437 0.685473
O17   O     O_3   0.281300 0.427390 0.758870 -0.372260
O18   O     O_3   0.718700 0.572610 0.241130 -0.372260
O19   O     O_3   0.218700 0.927390 0.741130 -0.372275
O20   O     O_3   0.781300 0.072610 0.258870 -0.372275
V1    V     V_3+5 0.244190 0.152150 0.748350 1.410426
V2    V     V_3+5 0.755810 0.847850 0.251650 1.410426
V3    V     V_3+5 0.255810 0.652150 0.751650 1.410419
V4    V     V_3+5 0.744190 0.347850 0.248350 1.410419
C9    C     C_R   0.655054 0.062653 0.094898 -0.038110
C10   C     C_R   0.344946 0.937347 0.905102 -0.038110
C11   C     C_R   0.844951 0.562804 0.405105 -0.038204
C12   C     C_R   0.155049 0.437196 0.594894 -0.038204
C13   C     C_R   0.640017 0.125695 0.988727 -0.156637
C14   C     C_R   0.359983 0.874305 0.011273 -0.156637
C15   C     C_R   0.860066 0.627143 0.511199 -0.156688
C16   C     C_R   0.139934 0.372857 0.488801 -0.156688
C17   C     C_R   0.672582 0.116287 0.043879 -0.170612
C18   C     C_R   0.327418 0.883713 0.956121 -0.170612
C19   C     C_R   0.827476 0.617287 0.456076 -0.170552
C20   C     C_R   0.172524 0.382713 0.543924 -0.170551
C21   C     C_R   0.604046 0.018755 0.090458 -0.197972
C22   C     C_R   0.395954 0.981245 0.909542 -0.197972
C23   C     C_R   0.895931 0.518447 0.409573 -0.198012
C24   C     C_R   0.104069 0.481553 0.590427 -0.198012
C25   C     C_R   0.569271 0.030253 0.034632 0.060761
C26   C     C_R   0.430729 0.969747 0.965368 0.060761
C27   C     C_R   0.930733 0.530369 0.465371 0.060737
C28   C     C_R   0.069267 0.469631 0.534629 0.060737
C29   C     C_R   0.588371 0.084856 0.983055 0.121287
C30   C     C_R   0.411629 0.915144 0.016945 0.121287
C31   C     C_R   0.911690 0.585929 0.516889 0.121312
C32   C     C_R   0.088310 0.414070 0.483111 0.121312
C33   C     C_R   0.516420 0.991780 0.028578 0.011004
C34   C     C_R   0.483580 0.008220 0.971422 0.011004
C35   C     C_R   0.983561 0.491468 0.471445 0.010999
C36   C     C_R   0.016439 0.508532 0.528555 0.010999
C37   C     C_R   0.504545 0.062095 0.921902 -0.171042
C38   C     C_R   0.495455 0.937905 0.078098 -0.171042
C39   C     C_R   0.995534 0.563459 0.578008 -0.171039
C40   C     C_R   0.004466 0.436541 0.421992 -0.171039
C41   C     C_R   0.555680 0.099654 0.926850 0.136889
C42   C     C_R   0.444320 0.900345 0.073150 0.136889
C43   C     C_R   0.944418 0.601361 0.573048 0.136882
C44   C     C_R   0.055582 0.398639 0.426952 0.136881
H1    H     H_    0.406993 0.019208 0.868179 0.093785
H2    H     H_    0.593007 0.980792 0.131821 0.093785
H3    H     H_    0.093063 0.520092 0.631758 0.093860
H4    H     H_    0.906937 0.479908 0.368241 0.093860
H5    H     H_    0.288238 0.847650 0.953167 0.110463
H6    H     H_    0.711762 0.152350 0.046833 0.110463
H7    H     H_    0.211679 0.346268 0.546901 0.110513
H8    H     H_    0.788321 0.653732 0.453099 0.110513
H9    H     H_    0.655924 0.167995 0.950733 0.132229
H10   H     H_    0.344076 0.832005 0.049267 0.132229
H11   H     H_    0.844201 0.670142 0.549150 0.132238
H12   H     H_    0.155799 0.329858 0.450850 0.132238
H13   H     H_    0.481795 0.077092 0.877940 0.125951
H14   H     H_    0.518205 0.922907 0.122060 0.125951
H15   H     H_    0.018320 0.579076 0.621924 0.125954
H16   H     H_    0.981680 0.420924 0.378076 0.125954
C45   C     C_R   0.629647 0.881845 0.367809 -0.160619
C46   C     C_R   0.370353 0.118155 0.632190 -0.160620
C47   C     C_R   0.870347 0.381847 0.132182 -0.160616
C48   C     C_R   0.129653 0.618153 0.867818 -0.160616
H17   H     H_    0.644962 0.754283 0.353634 0.124707
H18   H     H_    0.355038 0.245717 0.646366 0.124707
H19   H     H_    0.855028 0.254288 0.146352 0.124698
H20   H     H_    0.144972 0.745712 0.853648 0.124698
C49   C     C_R   0.593737 0.868886 0.404324 -0.140519
C50   C     C_R   0.406263 0.131114 0.595676 -0.140519
C51   C     C_R   0.906257 0.368889 0.095667 -0.140519
C52   C     C_R   0.093743 0.631111 0.904333 -0.140519
H21   H     H_    0.582707 0.732261 0.416895 0.133807
H22   H     H_    0.417293 0.267739 0.583105 0.133807
H23   H     H_    0.917283 0.232265 0.083091 0.133804
H24   H     H_    0.082717 0.767735 0.916909 0.133804
C53   C     C_R   0.572560 0.029371 0.424448 0.020129
C54   C     C_R   0.427440 0.970628 0.575552 0.020128
C55   C     C_R   0.927439 0.529372 0.075551 0.020133
C56   C     C_R   0.072561 0.470628 0.924449 0.020132
C57   C     C_R   0.588232 0.203600 0.406659 -0.134438
C58   C     C_R   0.411768 0.796400 0.593341 -0.134439
C59   C     C_R   0.911772 0.703599 0.093346 -0.134435
C60   C     C_R   0.088228 0.296401 0.906653 -0.134435
H25   H     H_    0.572795 0.330429 0.421184 0.138920
H26   H     H_    0.427205 0.669570 0.578816 0.138920
H27   H     H_    0.927213 0.830427 0.078827 0.138917
H28   H     H_    0.072787 0.169573 0.921173 0.138917
C61   C     C_R   0.624243 0.216702 0.370003 -0.160111
C62   C     C_R   0.375756 0.783298 0.629997 -0.160111
C63   C     C_R   0.875760 0.716701 0.130002 -0.160111
C64   C     C_R   0.124240 0.283299 0.869998 -0.160111
H29   H     H_    0.635448 0.353199 0.357541 0.120850
H30   H     H_    0.364552 0.646801 0.642459 0.120850
H31   H     H_    0.864560 0.853197 0.142470 0.120843
H32   H     H_    0.135440 0.146803 0.857530 0.120843
C65   C     C_R   0.645612 0.055862 0.350122 -0.047301
C66   C     C_R   0.354388 0.944138 0.649878 -0.047301
C67   C     C_R   0.854387 0.555862 0.149877 -0.047288
C68   C     C_R   0.145613 0.444138 0.850123 -0.047288
N1    N     N_R   0.514002 0.168479 0.483707 -0.279820
N2    N     N_R   0.485998 0.831521 0.516293 -0.279820
N3    N     N_R   0.986002 0.668474 0.016299 -0.279824
N4    N     N_R   0.013998 0.331525 0.983701 -0.279824
N5    N     N_R   0.480193 0.154491 0.519014 -0.285131
N6    N     N_R   0.519806 0.845509 0.480986 -0.285131
N7    N     N_R   0.019811 0.654486 0.980993 -0.285133
N8    N     N_R   0.980189 0.345513 0.019007 -0.285134
C69   C     C_R   0.465394 0.985738 0.536158 0.513080
C70   C     C_R   0.534606 0.014262 0.463842 0.513080
C71   C     C_R   0.034606 0.485738 0.963843 0.513095
C72   C     C_R   0.965394 0.514262 0.036157 0.513095
C73   C     C_3   0.574366 0.156689 0.870933 -0.789050
H33   H     H_    0.543800 0.160591 0.830665 0.211876
H34   H     H_    0.591048 0.297826 0.876962 0.211814
H35   H     H_    0.602958 0.056036 0.861795 0.210981
C74   C     C_3   0.425634 0.843310 0.129067 -0.789050
H36   H     H_    0.456200 0.839409 0.169334 0.211876
H37   H     H_    0.397042 0.943964 0.138205 0.210981
H38   H     H_    0.408952 0.702174 0.123038 0.211814
C75   C     C_3   0.925797 0.659510 0.628895 -0.789108
H39   H     H_    0.956387 0.663828 0.669131 0.211874
H40   H     H_    0.909169 0.800677 0.622659 0.211842
H41   H     H_    0.897175 0.559277 0.638217 0.210990
C76   C     C_3   0.074203 0.340490 0.371105 -0.789108
H42   H     H_    0.043613 0.336172 0.330869 0.211874
H43   H     H_    0.102825 0.440723 0.361782 0.210990
H44   H     H_    0.090831 0.199323 0.377341 0.211842

loop_
_geom_bond_atom_site_label_1
_geom_bond_atom_site_label_2
_ccdc_geom_bond_type
N1    C70   A    
O17   V3    S    
C48   C52   A    
O1    C5    A    
C56   C71   S    
C47   H19   S    
O19   V1    S    
C9    C21   A    
O3    C7    A    
C10   C18   A    
C48   C68   A    
O15   V3    S    
C75   H39   S    
C25   C33   A    
C33   C38   A    
C5    C12   S    
C53   C70   S    
O7    C3    A    
C6    C11   S    
C73   H34   S    
C35   C40   A    
C26   C30   A    
C58   C62   A    
C36   C39   A    
C40   C44   A    
C57   C61   A    
C14   C18   A    
N7    C71   A    
C76   H43   S    
C58   H26   S    
O4    C8    A    
C51   H23   S    
C76   H42   S    
C50   H22   S    
O1    V3    S    
C1    C68   S    
O13   V1    S    
O2    V4    S    
O3    V1    S    
C40   H16   S    
C22   H1    S    
C44   C76   S    
C46   C50   A    
C17   H6    S    
C45   C49   A    
C1    O15   A    
C15   C31   A    
C4    C65   S    
C48   H20   S    
N2    C69   A    
C2    O16   A    
C16   C32   A    
C47   C51   A    
C43   C75   S    
C16   H12   S    
C45   C65   A    
C10   C22   A    
C11   C19   A    
C16   C20   A    
O8    C4    A    
C13   C29   A    
C34   C37   A    
O11   C7    A    
C38   H14   S    
C11   C23   A    
C35   C36   A    
O12   C8    A    
N6    C70   A    
O10   V2    S    
N4    N8    A    
C75   H40   S    
C51   C55   A    
O5    V1    S    
C53   C57   A    
C73   H35   S    
C39   C43   A    
C63   C67   A    
C38   C42   A    
C26   C34   A    
O7    V3    S    
N3    C72   A    
C2    C67   S    
C46   H18   S    
C76   H44   S    
C49   C53   A    
C42   C74   S    
C45   H17   S    
O18   V4    S    
C23   C27   A    
C14   H10   S    
C32   C44   A    
C13   H9    S    
C64   H32   S    
C39   H15   S    
O8    V4    S    
C20   H7    S    
C55   C72   S    
O5    C1    A    
C37   C41   A    
C31   C43   A    
C14   C30   A    
C21   C25   A    
N8    C72   A    
C7    C10   S    
O9    C5    A    
C59   C63   A    
C62   H30   S    
C61   H29   S    
O6    V2    S    
C63   H31   S    
C52   C56   A    
N1    N5    A    
O14   V2    S    
N5    C69   A    
C74   H38   S    
C3    C66   S    
C27   C35   A    
C24   H3    S    
C49   H21   S    
C56   C60   A    
C75   H41   S    
C29   C41   A    
O16   V4    S    
O9    V1    S    
C19   H8    S    
C57   H25   S    
C3    O13   A    
C18   H5    S    
C64   C68   A    
C21   H2    S    
C59   H27   S    
O6    C2    A    
C15   C19   A    
O11   V3    S    
C30   C42   A    
O12   V4    S    
C73   H33   S    
C22   C26   A    
C8    C9    S    
C9    C17   A    
O10   C6    A    
C74   H37   S    
C54   C69   S    
C41   C73   S    
C37   H13   S    
O2    C6    A    
C47   C67   A    
C60   C64   A    
C33   C34   A    
C25   C29   A    
C52   H24   S    
O20   V2    S    
C12   C24   A    
C27   C31   A    
C13   C17   A    
C46   C66   A    
N4    C71   A    
N3    N7    A    
C23   H4    S    
C12   C20   A    
C62   C66   A    
C60   H28   S    
C24   C28   A    
C61   C65   A    
C50   C54   A    
C28   C36   A    
C54   C58   A    
C4    O14   A    
N2    N6    A    
C55   C59   A    
C74   H36   S    
O4    V2    S    
C28   C32   A    
C15   H11   S    
