data_mof_unit_32879.cif
_audit_creation_date              2012-12-11T14:46:00-0500
_audit_creation_method            fapswitch 2.2
_symmetry_space_group_name_H-M    P1
_symmetry_Int_Tables_number       1
_space_group_crystal_system       triclinic
_cell_length_a                    10.928121
_cell_length_b                    10.954107
_cell_length_c                    18.780136
_cell_angle_alpha                 89.894926
_cell_angle_beta                  90.684926
_cell_angle_gamma                 119.635117
_cell_volume                      1953.89458789

loop_
_atom_site_label
_atom_site_type_symbol
_atom_type_description
_atom_site_fract_x
_atom_site_fract_y
_atom_site_fract_z
_atom_type_partial_charge
C1    C     C_R   0.864731 0.637828 0.603397 0.569615
C2    C     C_R   0.453620 0.625733 0.771348 -0.128198
C3    C     C_R   0.418788 0.610483 0.699346 -0.115091
C4    C     C_R   0.355488 0.683209 0.669464 0.023962
C5    C     C_R   0.847382 0.180085 0.827389 -0.034131
C6    C     C_R   0.095466 0.249167 0.835958 -0.082892
C7    C     C_R   0.222239 0.283816 0.804028 -0.123254
C8    C     C_R   0.228158 0.275492 0.730613 -0.152279
C9    C     C_R   0.107829 0.234891 0.688586 -0.040285
C10   C     C_R   0.977748 0.205530 0.718942 0.037351
C11   C     C_R   0.972748 0.208583 0.794472 -0.007903
C12   C     C_R   0.276887 0.635053 0.602233 0.544403
C13   C     C_R   0.727966 0.142234 0.713541 0.009119
C14   C     C_R   0.737169 0.177048 0.785582 0.022381
C15   C     C_R   0.597051 0.094278 0.677947 -0.065121
C16   C     C_R   0.493845 0.117585 0.707040 -0.136652
C17   C     C_R   0.512647 0.174218 0.774820 -0.156218
C18   C     C_R   0.632569 0.202796 0.814178 -0.078906
C19   C     C_R   0.853055 0.173299 0.677494 -0.009382
C20   C     C_R   0.733279 0.535440 0.713706 -0.189213
C21   C     C_R   0.724000 0.547629 0.786763 -0.178215
C22   C     C_R   0.795831 0.679239 0.818703 -0.018575
C23   C     C_R   0.863811 0.226772 0.603573 0.541023
C24   C     C_R   0.862956 0.800029 0.776954 -0.112129
C25   C     C_R   0.877335 0.789389 0.704466 0.259904
C26   C     C_R   0.817134 0.655754 0.672800 0.032487
C27   C     C_R   0.402163 0.617595 0.296321 -0.135865
C28   C     C_R   0.422590 0.626425 0.223917 -0.125400
C29   C     C_R   0.373616 0.699034 0.180962 0.028678
C30   C     C_R   0.312058 0.771016 0.211768 -0.156333
C31   C     C_R   0.290636 0.761550 0.284869 -0.136799
C32   C     C_R   0.330910 0.679948 0.326776 0.029103
C33   C     C_R   0.698075 0.086335 0.299084 -0.128520
C34   C     C_R   0.864250 0.638976 0.398038 0.548647
C35   C     C_R   0.677775 0.048638 0.227792 -0.132591
C36   C     C_R   0.792332 0.073068 0.185726 0.028258
C37   C     C_R   0.926827 0.127649 0.216709 -0.139553
C38   C     C_R   0.947615 0.166353 0.288183 -0.141051
C39   C     C_R   0.834176 0.151431 0.328889 0.027228
C40   C     C_R   0.899566 0.786875 0.295137 -0.135792
C41   C     C_R   0.896923 0.795666 0.222421 -0.132183
C42   C     C_R   0.808385 0.676844 0.181186 0.032432
C43   C     C_R   0.718890 0.549086 0.213992 -0.149435
C44   C     C_R   0.725322 0.538756 0.287519 -0.139960
C45   C     C_R   0.272074 0.635290 0.396978 0.547286
C46   C     C_R   0.820237 0.656969 0.327815 0.027778
C47   C     C_R   0.809487 0.109891 0.897348 0.534705
C48   C     C_R   0.459554 0.724507 0.889788 0.565565
C49   C     C_R   0.792234 0.697961 0.894486 0.548842
C50   C     C_R   0.768117 0.042430 0.109795 0.560794
C51   C     C_R   0.402790 0.707231 0.105634 0.550559
C52   C     C_R   0.796419 0.698338 0.106122 0.546067
C53   C     C_R   0.860462 0.225859 0.396620 0.550932
C54   C     C_R   0.345755 0.784359 0.709976 -0.138047
C55   C     C_R   0.383274 0.802367 0.781659 -0.115073
C56   C     C_R   0.431427 0.718010 0.813420 0.025552
Cr1   Cr    Cr6+3 0.791660 0.390250 0.499930 1.007968
Cr2   Cr    Cr6+3 0.098520 0.708290 0.500540 1.012436
Cr3   Cr    Cr6+3 0.109770 0.401430 0.499480 1.008663
Cr4   Cr    Cr6+3 0.874790 0.925890 0.000070 1.002007
Cr5   Cr    Cr6+3 0.574120 0.948670 0.999300 1.006815
Cr6   Cr    Cr6+3 0.551420 0.625320 0.000920 0.997767
H1    H     H_    0.304545 0.845569 0.686404 0.107293
H2    H     H_    0.400138 0.092718 0.676576 0.082037
H3    H     H_    0.577155 0.045924 0.625710 0.132849
H4    H     H_    0.433355 0.193303 0.797552 0.100108
H5    H     H_    0.683685 0.431321 0.690369 0.163330
H6    H     H_    0.662369 0.456036 0.818681 0.125493
H7    H     H_    0.910315 0.903738 0.800866 0.151739
H8    H     H_    0.435090 0.555607 0.327793 0.127813
H9    H     H_    0.475860 0.574776 0.201359 0.142383
H10   H     H_    0.277924 0.830852 0.179383 0.122028
H11   H     H_    0.368441 0.877285 0.812532 0.145082
H12   H     H_    0.234686 0.810392 0.307644 0.139709
H13   H     H_    0.608598 0.072452 0.329607 0.130497
H14   H     H_    0.573429 0.005670 0.204647 0.131753
H15   H     H_    0.016794 0.146353 0.185221 0.129058
H16   H     H_    0.053642 0.216380 0.310073 0.133047
H17   H     H_    0.971996 0.879806 0.325156 0.131911
H18   H     H_    0.964352 0.896886 0.198648 0.134205
H19   H     H_    0.646541 0.457887 0.182914 0.124444
H20   H     H_    0.662677 0.437053 0.312063 0.135486
H21   H     H_    0.491809 0.560948 0.795010 0.128869
H22   H     H_    0.432615 0.535175 0.668275 0.128109
H23   H     H_    0.315803 0.316215 0.836505 0.113153
H24   H     H_    0.325542 0.295837 0.706088 0.092542
H25   H     H_    0.095482 0.260325 0.893219 0.137320
H26   H     H_    0.118757 0.217749 0.633217 0.158901
H27   H     H_    0.644502 0.248555 0.866596 0.136369
O1    O     O_R   0.766500 0.250040 0.579790 -0.524720
O2    O     O_R   0.218690 0.701900 0.425960 -0.509827
O3    O     O_R   0.249490 0.516440 0.419420 -0.523768
O4    O     O_R   0.982880 0.281910 0.424890 -0.503022
O5    O     O_3   0.999980 0.499990 0.499980 -0.241360
O6    O     O_R   0.895110 0.806860 0.920430 -0.515422
O7    O     O_R   0.872260 0.046970 0.925000 -0.507846
O8    O     O_R   0.691430 0.085060 0.918550 -0.526520
O9    O     O_R   0.451490 0.822460 0.925250 -0.498734
O10   O     O_R   0.413330 0.603360 0.920440 -0.515346
O11   O     O_R   0.676110 0.626250 0.926750 -0.522194
O12   O     O_R   0.798570 0.516780 0.574780 -0.519449
O13   O     O_R   0.895350 0.809870 0.080950 -0.527407
O14   O     O_R   0.872490 0.049760 0.073800 -0.506998
O15   O     O_R   0.691680 0.088070 0.079070 -0.511776
O16   O     O_R   0.451720 0.825250 0.074050 -0.518084
O17   O     O_R   0.413580 0.606370 0.080960 -0.516169
O18   O     O_R   0.676340 0.629040 0.075550 -0.508360
O19   O     O_3   0.666780 0.833290 0.000090 -0.291735
O20   O     O_R   0.984000 0.732950 0.581090 -0.484018
O21   O     O_R   0.218600 0.700890 0.574760 -0.513896
O22   O     O_R   0.249390 0.515350 0.579940 -0.527940
O23   O     O_R   0.982790 0.280900 0.573700 -0.511524
O24   O     O_R   0.766600 0.251130 0.419260 -0.525481
O25   O     O_R   0.798660 0.517790 0.425980 -0.506732
O26   O     O_R   0.984100 0.734040 0.420570 -0.524708
O27   O     O_3   0.961785 0.908951 0.666113 -0.561090
C57   C     C_3   0.103049 0.951994 0.684360 -0.106117
H28   H     H_    0.122870 0.862490 0.685586 0.132048
H29   H     H_    0.131297 0.003065 0.737550 0.117282
H30   H     H_    0.172081 0.026307 0.643435 0.122105

loop_
_geom_bond_atom_site_label_1
_geom_bond_atom_site_label_2
_ccdc_geom_bond_type
C55   C56   A    
C50   O15   A    
Cr2   O20   S    
C41   C42   A    
C14   C18   A    
C20   H5    S    
C35   C36   A    
C41   H18   S    
C12   O21   A    
C7    C8    A    
C39   C53   S    
C40   C46   A    
C23   O23   A    
C5    C47   S    
C52   O13   A    
C17   H4    S    
C33   C39   A    
C28   C29   A    
C5    C11   A    
C44   H20   S    
C57   H29   S    
C9    H26   S    
C29   C51   S    
C38   C39   A    
Cr3   O4    S    
Cr6   O19   S    
C54   H1    S    
C15   C16   A    
C15   H3    S    
O27   C57   S    
C32   C45   S    
C45   O3    A    
Cr5   O19   S    
C1    O20   A    
C33   H13   S    
Cr5   O9    S    
C52   O18   A    
C44   C46   A    
C8    C9    A    
Cr3   O22   S    
C47   O7    A    
C34   C46   S    
Cr3   O5    S    
C4    C12   S    
Cr4   O14   S    
Cr5   O16   S    
Cr2   O2    S    
Cr4   O19   S    
Cr3   O3    S    
C50   O14   A    
C21   C22   A    
C2    H21   S    
Cr4   O13   S    
C53   O24   A    
C24   H7    S    
C17   C18   A    
C35   H14   S    
C23   O1    A    
Cr1   O1    S    
C13   C19   A    
C53   O4    A    
Cr5   O15   S    
C24   C25   A    
C57   H30   S    
C6    C11   A    
C16   C17   A    
C31   H12   S    
Cr1   O24   S    
Cr6   O18   S    
C38   H16   S    
C25   C26   A    
C37   H15   S    
C6    H25   S    
C19   C23   S    
C43   C44   A    
C37   C38   A    
C31   C32   A    
C10   C19   A    
C51   O16   A    
Cr3   O23   S    
C40   H17   S    
C49   O6    A    
C5    C14   A    
C6    C7    A    
C27   H8    S    
C22   C49   S    
Cr6   O11   S    
Cr4   O7    S    
C40   C41   A    
Cr1   O5    S    
C13   C15   A    
C21   H6    S    
C1    C26   S    
C43   H19   S    
C22   C24   A    
C25   O27   S    
C28   H9    S    
C42   C43   A    
C3    C4    A    
C1    O12   A    
C27   C28   A    
C36   C50   S    
C9    C10   A    
C48   C56   S    
C48   O10   A    
C54   C55   A    
C36   C37   A    
C4    C54   A    
C27   C32   A    
Cr2   O21   S    
C18   H27   S    
Cr5   O8    S    
C30   H10   S    
Cr1   O25   S    
Cr6   O17   S    
C34   O25   A    
Cr1   O12   S    
C47   O8    A    
C2    C3    A    
C34   O26   A    
C2    C56   A    
C57   H28   S    
C49   O11   A    
C30   C31   A    
Cr2   O26   S    
C7    H23   S    
C20   C26   A    
C51   O17   A    
C33   C35   A    
C8    H24   S    
C48   O9    A    
Cr2   O5    S    
C45   O2    A    
C10   C11   A    
C29   C30   A    
Cr6   O10   S    
C55   H11   S    
Cr4   O6    S    
C20   C21   A    
C3    H22   S    
C16   H2    S    
C13   C14   A    
C12   O22   A    
C42   C52   S    
