data_mof_unit_12652.cif
_audit_creation_date              2012-12-10T18:59:16-0500
_audit_creation_method            fapswitch 2.2
_symmetry_space_group_name_H-M    P1
_symmetry_Int_Tables_number       1
_space_group_crystal_system       triclinic
_cell_length_a                    10.796983
_cell_length_b                    10.889784
_cell_length_c                    9.611607
_cell_angle_alpha                 90.930758
_cell_angle_beta                  90.377064
_cell_angle_gamma                 93.169288
_cell_volume                      1128.19313148

loop_
_atom_site_label
_atom_site_type_symbol
_atom_type_description
_atom_site_fract_x
_atom_site_fract_y
_atom_site_fract_z
_atom_type_partial_charge
C1    C     C_R   0.497388 0.262522 0.498225 0.849191
C2    C     C_R   0.072855 0.597973 0.591191 0.055229
C3    C     C_R   0.130490 0.517110 0.498345 -0.069999
C4    C     C_R   0.060361 0.443150 0.403743 -0.229839
C5    C     C_R   0.932636 0.442738 0.404846 -0.197032
C6    C     C_R   0.872544 0.516077 0.500752 -0.092246
C7    C     C_R   0.425237 0.060239 0.590644 -0.024942
C8    C     C_R   0.489842 0.128775 0.490318 -0.177556
C9    C     C_R   0.552182 0.065913 0.383754 0.408123
C10   C     C_R   0.556024 0.937147 0.387400 -0.312518
C11   C     C_R   0.505377 0.871417 0.500044 -0.166107
C12   C     C_R   0.263230 0.505265 0.499642 0.784580
C13   C     C_R   0.443707 0.936093 0.601785 0.016373
C14   C     C_3   0.460167 0.949480 0.757455 0.285064
C15   C     C_3   0.422990 0.080267 0.744335 -0.502442
C16   C     C_R   0.589607 0.566143 0.075580 0.246200
C17   C     C_R   0.416954 0.428823 0.074985 -0.103123
C18   C     C_R   0.414214 0.428899 0.927211 0.159346
C19   C     C_R   0.589988 0.565782 0.928201 0.195912
C20   C     C_3   0.608229 0.701763 0.928656 -0.433174
C21   C     C_3   0.611386 0.701708 0.085193 -0.498046
C22   C     C_R   0.504264 0.737721 0.500827 0.799232
C23   C     C_R   0.737719 0.505881 0.500487 0.797022
C24   C     C_R   0.142139 0.681147 0.680582 -0.314643
C25   C     C_R   0.083093 0.750770 0.781336 0.493240
C26   C     C_R   0.954403 0.750872 0.780534 -0.211711
C27   C     C_R   0.884630 0.678548 0.684419 -0.281400
C28   C     C_R   0.941891 0.596779 0.593080 0.104543
Cu1   Cu    Cu3+1 0.499990 0.499980 0.640670 0.916174
Cu2   Cu    Cu3+1 0.500010 0.500020 0.359330 0.935386
H1    H     H_    0.104650 0.382240 0.331476 0.148160
H2    H     H_    0.326788 0.091257 0.780530 0.175348
H3    H     H_    0.493485 0.149851 0.784875 0.223225
H4    H     H_    0.349848 0.372258 0.132110 0.139792
H5    H     H_    0.697396 0.735096 0.883688 0.203857
H6    H     H_    0.524111 0.741941 0.887201 0.236659
H7    H     H_    0.704077 0.729411 0.130117 0.190999
H8    H     H_    0.532280 0.748684 0.131087 0.217451
H9    H     H_    0.241943 0.692459 0.675527 0.165746
H10   H     H_    0.908604 0.807390 0.855190 0.155690
H11   H     H_    0.786011 0.688114 0.681861 0.163869
H12   H     H_    0.880200 0.381845 0.332979 0.172707
H13   H     H_    0.608085 0.890355 0.308923 0.163824
H14   H     H_    0.390453 0.891627 0.814287 0.135510
N1    N     N_R   0.500790 0.500930 0.147930 -0.204057
N2    N     N_R   0.500790 0.500890 0.852020 -0.205334
O1    O     O_R   0.500000 0.319640 0.618810 -0.609101
O2    O     O_R   0.500010 0.319680 0.381230 -0.554386
O3    O     O_R   0.319640 0.499980 0.618820 -0.598912
O4    O     O_R   0.319650 0.500020 0.381230 -0.586746
O5    O     O_R   0.499990 0.680320 0.618770 -0.596907
O6    O     O_R   0.500000 0.680360 0.381190 -0.582711
O7    O     O_R   0.680350 0.499980 0.618770 -0.580061
O8    O     O_R   0.680360 0.500020 0.381180 -0.574487
O9    O     O_3   0.581332 0.946322 0.818311 -0.597170
C29   C     C_3   0.682537 0.977359 0.729883 0.121796
H15   H     H_    0.663318 0.049534 0.654454 0.166228
H16   H     H_    0.709203 0.893470 0.673077 0.145601
C30   C     C_3   0.792791 0.027863 0.816671 -0.839831
H17   H     H_    0.798604 0.978171 0.916262 0.261514
H18   H     H_    0.879921 0.018735 0.757535 0.220149
H19   H     H_    0.783478 0.126996 0.839349 0.235937
C31   C     C_3   0.311005 0.347016 0.862736 -0.372806
C32   C     C_3   0.183591 0.399867 0.885309 -0.372879
C33   C     C_3   0.080645 0.320892 0.812341 -0.816983
H20   H     H_    0.098304 0.314648 0.698840 0.258162
H21   H     H_    0.075013 0.226821 0.855699 0.253853
H22   H     H_    0.990302 0.362917 0.828337 0.246466
H23   H     H_    0.162555 0.404813 0.998235 0.201091
H24   H     H_    0.184217 0.494272 0.844912 0.236127
H25   H     H_    0.324547 0.326593 0.752288 0.258935
H26   H     H_    0.310252 0.257066 0.915450 0.154142
O10   O     O_3   0.150175 0.824877 0.876421 -0.598743
C34   C     C_3   0.206370 0.749500 0.974394 0.033212
H27   H     H_    0.283913 0.701275 0.926011 0.141338
H28   H     H_    0.137858 0.680091 0.017874 0.148541
C35   C     C_3   0.258899 0.828870 0.095034 -0.789875
H29   H     H_    0.183654 0.878706 0.145291 0.252211
H30   H     H_    0.301141 0.769795 0.173460 0.220181
H31   H     H_    0.331119 0.896768 0.057605 0.231966
O11   O     O_3   0.631591 0.131161 0.296396 -0.581095
C36   C     C_3   0.582607 0.127147 0.160132 0.103535
H32   H     H_    0.483722 0.151922 0.158003 0.132922
H33   H     H_    0.590306 0.034209 0.112102 0.171365
C37   C     C_3   0.657811 0.220593 0.075000 -0.750344
H34   H     H_    0.755814 0.195080 0.070147 0.236925
H35   H     H_    0.618876 0.224708 0.968378 0.199149
H36   H     H_    0.656026 0.312963 0.124872 0.257409

loop_
_geom_bond_atom_site_label_1
_geom_bond_atom_site_label_2
_ccdc_geom_bond_type
O9    C29   S    
C16   C21   S    
C1    C8    S    
O10   C34   S    
Cu2   N1    S    
C19   C20   S    
C5    H12   S    
C12   O3    A    
C19   N2    A    
C7    C8    A    
Cu1   O3    S    
C35   H29   S    
Cu2   O8    S    
C26   C27   A    
C34   H28   S    
Cu1   O1    S    
Cu2   O2    S    
C17   N1    A    
C5    C6    A    
C18   C31   S    
C37   H36   S    
C24   H9    S    
C29   H15   S    
C3    C12   S    
C20   H5    S    
C6    C28   A    
C21   H8    S    
C8    C9    A    
C33   H21   S    
C34   C35   S    
C32   H24   S    
C9    C10   A    
C7    C15   S    
C14   O9    S    
Cu2   O4    S    
C30   H17   S    
C13   C14   S    
C18   N2    A    
C23   O7    A    
C37   H35   S    
C30   H18   S    
C34   H27   S    
C15   H2    S    
C24   C25   A    
C1    O1    A    
C25   C26   A    
C37   H34   S    
O11   C36   S    
Cu1   Cu2   S    
C27   H11   S    
C33   H22   S    
C17   C18   A    
C35   H30   S    
C32   H23   S    
C20   C21   S    
C31   H25   S    
C36   H32   S    
C36   H33   S    
C2    C24   A    
C17   H4    S    
C3    C4    A    
C23   O8    A    
C14   H14   S    
Cu1   O5    S    
C35   H31   S    
Cu2   O6    S    
C30   H19   S    
C10   H13   S    
C4    C5    A    
C16   N1    A    
C12   O4    A    
C1    O2    A    
C36   C37   S    
C11   C22   S    
C29   C30   S    
Cu1   N2    S    
C32   C33   S    
C2    C3    A    
C11   C13   A    
C26   H10   S    
Cu1   O7    S    
C16   C19   A    
C6    C23   S    
C29   H16   S    
C22   O6    A    
C25   O10   S    
C4    H1    S    
C10   C11   A    
C31   C32   S    
C20   H6    S    
C7    C13   A    
C21   H7    S    
C31   H26   S    
C33   H20   S    
C27   C28   A    
C14   C15   S    
C2    C28   A    
C15   H3    S    
C9    O11   S    
C22   O5    A    
