data_mof_unit_32530.cif
_audit_creation_date              2012-12-11T14:01:41-0500
_audit_creation_method            fapswitch 2.2
_symmetry_space_group_name_H-M    P1
_symmetry_Int_Tables_number       1
_space_group_crystal_system       triclinic
_cell_length_a                    18.98272
_cell_length_b                    10.964104
_cell_length_c                    18.883793
_cell_angle_alpha                 89.893074
_cell_angle_beta                  89.467551
_cell_angle_gamma                 89.847947
_cell_volume                      3930.06560836

loop_
_atom_site_label
_atom_site_type_symbol
_atom_type_description
_atom_site_fract_x
_atom_site_fract_y
_atom_site_fract_z
_atom_type_partial_charge
C1    C     C_R   0.272518 0.041051 0.853927 0.561032
C2    C     C_R   0.009540 0.665449 0.962733 -0.114409
C3    C     C_R   0.494750 0.166377 0.034964 -0.115303
C4    C     C_R   0.509540 0.165449 0.962733 -0.114409
C5    C     C_2   0.246722 0.577033 0.919618 -0.123752
C6    C     C_2   0.753324 0.577564 0.080335 -0.127312
C7    C     C_2   0.746722 0.077033 0.919618 -0.123752
C8    C     C_2   0.253323 0.077563 0.080335 -0.127312
C9    C     C_2   0.249228 0.578714 0.075206 -0.115573
C10   C     C_2   0.750658 0.578770 0.924642 -0.112856
C11   C     C_2   0.749228 0.078714 0.075206 -0.115573
C12   C     C_R   0.727465 0.041172 0.146026 0.553524
C13   C     C_2   0.250658 0.078770 0.924642 -0.112856
C14   C     C_2   0.285486 0.499730 0.034162 -0.168114
C15   C     C_2   0.714717 0.499949 0.965983 -0.168149
C16   C     C_2   0.785486 0.999730 0.034162 -0.168114
C17   C     C_2   0.214717 0.999949 0.965983 -0.168149
C18   C     C_2   0.296567 0.519902 0.958105 -0.048312
C19   C     C_2   0.703538 0.520652 0.041946 -0.047359
C20   C     C_2   0.796567 0.019902 0.958105 -0.048312
C21   C     C_2   0.203538 0.020652 0.041946 -0.047359
C22   C     C_2   0.452926 0.831408 0.566015 -0.084684
C23   C     C_R   0.772518 0.541051 0.853927 0.561032
C24   C     C_2   0.483055 0.836498 0.413322 -0.093447
C25   C     C_2   0.952926 0.331408 0.566015 -0.084684
C26   C     C_2   0.983055 0.336498 0.413322 -0.093447
C27   C     C_2   0.461614 0.736662 0.448377 -0.137758
C28   C     C_2   0.439760 0.738274 0.522697 -0.149756
C29   C     C_2   0.961615 0.236662 0.448377 -0.137758
C30   C     C_2   0.939760 0.238274 0.522697 -0.149756
C31   C     C_2   0.263341 0.603674 0.572812 0.062510
C32   C     C_2   0.730594 0.642865 0.434114 0.010494
C33   C     C_2   0.763341 0.103674 0.572812 0.062510
C34   C     C_R   0.227465 0.541172 0.146026 0.553524
C35   C     C_2   0.230594 0.142865 0.434114 0.010494
C36   C     C_2   0.234700 0.563438 0.424146 0.386814
C37   C     C_2   0.742452 0.620575 0.593526 0.388108
C38   C     C_2   0.734700 0.063438 0.424146 0.386814
C39   C     C_2   0.242452 0.120575 0.593526 0.388108
C40   C     C_R   0.471056 0.822061 0.853388 0.549609
C41   C     C_R   0.528859 0.822425 0.146652 0.530833
C42   C     C_R   0.971056 0.322061 0.853388 0.549609
C43   C     C_R   0.028858 0.322425 0.146652 0.530833
C44   C     C_2   0.251282 0.671592 0.449966 -0.134271
C45   C     C_R   0.489113 0.056835 0.072138 -0.086998
C46   C     C_2   0.787867 0.672291 0.548176 -0.111980
C47   C     C_2   0.751282 0.171592 0.449966 -0.134271
C48   C     C_2   0.287867 0.172291 0.548176 -0.111980
C49   C     C_2   0.244862 0.689909 0.525745 -0.117970
C50   C     C_2   0.768387 0.711519 0.477929 -0.077476
C51   C     C_2   0.744862 0.189909 0.525745 -0.117970
C52   C     C_2   0.268387 0.211519 0.477929 -0.077476
C53   C     C_R   0.260500 0.635119 0.851101 0.549441
C54   C     C_R   0.739506 0.635443 0.148857 0.551445
C55   C     C_R   0.760500 0.135119 0.851101 0.549441
C56   C     C_R   0.513639 0.055081 0.926398 -0.086620
C57   C     C_R   0.239506 0.135443 0.148857 0.551445
C58   C     C_R   0.270685 0.051326 0.651675 0.554110
C59   C     C_R   0.727350 0.046033 0.351009 0.562647
C60   C     C_R   0.770685 0.551326 0.651675 0.554110
C61   C     C_R   0.227350 0.546033 0.351009 0.562647
C62   C     C_R   0.437009 0.820003 0.640775 0.560700
C63   C     C_R   0.527218 0.824102 0.350554 0.566188
C64   C     C_R   0.937009 0.320003 0.640775 0.560700
C65   C     C_R   0.027218 0.324102 0.350554 0.566188
C66   C     C_R   0.262129 0.638647 0.645539 0.522829
C67   C     C_R   0.989113 0.556835 0.072138 -0.086998
C68   C     C_R   0.725645 0.683716 0.361942 0.564693
C69   C     C_R   0.762129 0.138648 0.645539 0.522829
C70   C     C_R   0.225645 0.183716 0.361942 0.564693
C71   C     C_R   0.501138 0.831200 0.074450 -0.004282
C72   C     C_R   0.498296 0.830213 0.925759 -0.005088
C73   C     C_R   0.001138 0.331200 0.074450 -0.004282
C74   C     C_R   0.998296 0.330213 0.925759 -0.005088
C75   C     C_R   0.497813 0.943759 0.037183 0.024211
C76   C     C_R   0.503324 0.943057 0.962210 0.022283
C77   C     C_R   0.997813 0.443759 0.037183 0.024211
C78   C     C_R   0.013639 0.555081 0.926398 -0.086620
C79   C     C_R   0.003324 0.443057 0.962210 0.022283
C80   C     C_R   0.498708 0.721026 0.964233 -0.146624
C81   C     C_R   0.498518 0.721558 0.036799 -0.146853
C82   C     C_R   0.998708 0.221026 0.964233 -0.146624
C83   C     C_R   0.998518 0.221558 0.036799 -0.146853
C84   C     C_1   0.312112 0.505808 0.554146 0.258087
C85   C     C_1   0.695311 0.530441 0.454275 0.273718
C86   C     C_1   0.812112 0.005808 0.554146 0.258087
C87   C     C_1   0.195311 0.030441 0.454275 0.273718
C88   C     C_1   0.360877 0.471599 0.927240 0.234735
C89   C     C_R   0.994750 0.666377 0.034964 -0.115303
C90   C     C_1   0.639044 0.473434 0.072773 0.237160
C91   C     C_1   0.860877 0.971599 0.927240 0.234735
C92   C     C_1   0.139044 0.973434 0.072773 0.237160
Cr1   Cr    Cr6+3 0.230530 0.836340 0.748870 1.059787
Cr2   Cr    Cr6+3 0.614360 0.677860 0.250770 1.067719
Cr3   Cr    Cr6+3 0.885640 0.177860 0.749230 1.072854
Cr4   Cr    Cr6+3 0.114360 0.177860 0.250770 1.067719
Cr5   Cr    Cr6+3 0.769470 0.836340 0.251130 1.029631
Cr6   Cr    Cr6+3 0.730530 0.336340 0.748870 1.059787
Cr7   Cr    Cr6+3 0.269470 0.336340 0.251130 1.029631
Cr8   Cr    Cr6+3 0.387420 0.989430 0.750820 1.038919
Cr9   Cr    Cr6+3 0.612580 0.989430 0.249180 1.049565
Cr10  Cr    Cr6+3 0.887420 0.489430 0.750820 1.038919
Cr11  Cr    Cr6+3 0.112580 0.489430 0.249180 1.049565
Cr12  Cr    Cr6+3 0.385640 0.677860 0.749230 1.072854
F1    F     F_    0.204546 0.475215 0.465361 -0.636246
F2    F     F_    0.671473 0.625836 0.584231 -0.597305
F3    F     F_    0.704546 0.975215 0.465361 -0.636246
F4    F     F_    0.171473 0.125836 0.584231 -0.597305
H1    H     H_    0.496118 0.633130 0.938375 0.172453
H2    H     H_    0.795793 0.790295 0.456647 0.190489
H3    H     H_    0.725784 0.278138 0.543510 0.166307
H4    H     H_    0.295793 0.290295 0.456647 0.190489
H5    H     H_    0.476085 0.061892 0.127895 0.135115
H6    H     H_    0.526594 0.058553 0.870572 0.141077
H7    H     H_    0.976085 0.561892 0.127895 0.135115
H8    H     H_    0.026593 0.558553 0.870572 0.141077
H9    H     H_    0.988544 0.752238 0.062508 0.146661
H10   H     H_    0.016834 0.750557 0.934524 0.147414
H11   H     H_    0.488544 0.252238 0.062508 0.146661
H12   H     H_    0.499473 0.633940 0.063331 0.171106
H13   H     H_    0.516834 0.250557 0.934524 0.147414
H14   H     H_    0.307258 0.416482 0.056592 0.156210
H15   H     H_    0.693217 0.416578 0.943865 0.154878
H16   H     H_    0.807258 0.916482 0.056592 0.156210
H17   H     H_    0.193217 0.916578 0.943865 0.154878
H18   H     H_    0.227728 0.662749 0.053698 0.108420
H19   H     H_    0.771888 0.662891 0.945877 0.109949
H20   H     H_    0.727728 0.162749 0.053698 0.108420
H21   H     H_    0.271888 0.162891 0.945877 0.109949
H22   H     H_    0.195925 0.597725 0.943878 0.104329
H23   H     H_    0.996118 0.133130 0.938375 0.172453
H24   H     H_    0.804109 0.597908 0.056040 0.103113
H25   H     H_    0.695926 0.097725 0.943878 0.104329
H26   H     H_    0.304109 0.097908 0.056040 0.103113
H27   H     H_    0.467028 0.646898 0.424617 0.172689
H28   H     H_    0.419365 0.654069 0.544401 0.163614
H29   H     H_    0.967028 0.146898 0.424617 0.172689
H30   H     H_    0.919365 0.154069 0.544401 0.163614
H31   H     H_    0.474768 0.927557 0.434076 0.109387
H32   H     H_    0.475248 0.916641 0.547423 0.128240
H33   H     H_    0.974768 0.427557 0.434076 0.109387
H34   H     H_    0.999473 0.133940 0.063331 0.171106
H35   H     H_    0.975248 0.416641 0.547423 0.128240
H36   H     H_    0.263526 0.748180 0.415379 0.078842
H37   H     H_    0.843900 0.675963 0.559245 0.125009
H38   H     H_    0.763526 0.248180 0.415379 0.078842
H39   H     H_    0.343900 0.175963 0.559245 0.125009
H40   H     H_    0.225784 0.778138 0.543510 0.166307
N1    N     N_1   0.353131 0.431048 0.540674 -0.325197
N2    N     N_1   0.665931 0.441699 0.469319 -0.265533
N3    N     N_1   0.853131 0.931049 0.540674 -0.325198
N4    N     N_1   0.165931 0.941699 0.469319 -0.265533
N5    N     N_1   0.412184 0.432441 0.902618 -0.316489
N6    N     N_1   0.587576 0.435216 0.097381 -0.322928
N7    N     N_1   0.912184 0.932441 0.902618 -0.316489
N8    N     N_1   0.087576 0.935216 0.097381 -0.322928
O1    O     O_R   0.215090 0.709860 0.828130 -0.521993
O2    O     O_R   0.543740 0.718170 0.330000 -0.514621
O3    O     O_R   0.956260 0.218170 0.670000 -0.465627
O4    O     O_R   0.043740 0.218170 0.330000 -0.514621
O5    O     O_R   0.320940 0.626760 0.674370 -0.530690
O6    O     O_R   0.679060 0.626760 0.325630 -0.493903
O7    O     O_R   0.820940 0.126760 0.674370 -0.530690
O8    O     O_R   0.179060 0.126760 0.325630 -0.493903
O9    O     O_3   0.334530 0.834540 0.749640 -0.293624
O10   O     O_3   0.665470 0.834540 0.250360 -0.270156
O11   O     O_3   0.834530 0.334540 0.749640 -0.293624
O12   O     O_R   0.784910 0.709860 0.171870 -0.522829
O13   O     O_3   0.165470 0.334540 0.250360 -0.270156
O14   O     O_R   0.236990 0.958390 0.823710 -0.496612
O15   O     O_R   0.763010 0.958390 0.176290 -0.504258
O16   O     O_R   0.736990 0.458390 0.823710 -0.496612
O17   O     O_R   0.263010 0.458390 0.176290 -0.504258
O18   O     O_R   0.332380 0.074750 0.830850 -0.499101
O19   O     O_R   0.667620 0.074750 0.169150 -0.504155
O20   O     O_R   0.832380 0.574750 0.830850 -0.499101
O21   O     O_R   0.167620 0.574750 0.169150 -0.504155
O22   O     O_R   0.445800 0.917770 0.825070 -0.504554
O23   O     O_R   0.715090 0.209860 0.828130 -0.521993
O24   O     O_R   0.554200 0.917770 0.174930 -0.513678
O25   O     O_R   0.945800 0.417770 0.825070 -0.504554
O26   O     O_R   0.054200 0.417770 0.174930 -0.513678
O27   O     O_R   0.456410 0.716580 0.829970 -0.499156
O28   O     O_R   0.543590 0.716580 0.170030 -0.510122
O29   O     O_R   0.956410 0.216580 0.829970 -0.499156
O30   O     O_R   0.043590 0.216580 0.170030 -0.510122
O31   O     O_R   0.321080 0.625290 0.822650 -0.474508
O32   O     O_R   0.678920 0.625290 0.177350 -0.472184
O33   O     O_R   0.821080 0.125290 0.822650 -0.474508
O34   O     O_R   0.284910 0.209860 0.171870 -0.522829
O35   O     O_R   0.178920 0.125290 0.177350 -0.472184
O36   O     O_R   0.214930 0.711450 0.668160 -0.499667
O37   O     O_R   0.785070 0.711450 0.331840 -0.526726
O38   O     O_R   0.714930 0.211450 0.668160 -0.499667
O39   O     O_R   0.285070 0.211450 0.331840 -0.526726
O40   O     O_R   0.236850 0.959870 0.675420 -0.469456
O41   O     O_R   0.763150 0.959870 0.324580 -0.518650
O42   O     O_R   0.736850 0.459870 0.675420 -0.469456
O43   O     O_R   0.263150 0.459870 0.324580 -0.518650
O44   O     O_R   0.332230 0.076350 0.670880 -0.561361
O45   O     O_R   0.445660 0.919250 0.676780 -0.490674
O46   O     O_R   0.667770 0.076350 0.329120 -0.496636
O47   O     O_R   0.832230 0.576350 0.670880 -0.561361
O48   O     O_R   0.167770 0.576350 0.329120 -0.496636
O49   O     O_R   0.554340 0.919250 0.323220 -0.485365
O50   O     O_R   0.945660 0.419250 0.676780 -0.490674
O51   O     O_R   0.054340 0.419250 0.323220 -0.485365
O52   O     O_R   0.456260 0.718170 0.670000 -0.465627

loop_
_geom_bond_atom_site_label_1
_geom_bond_atom_site_label_2
_ccdc_geom_bond_type
C44   C49   S    
C43   C73   S    
C31   C66   S    
C75   C76   A    
Cr10  O11   S    
C30   H30   S    
C22   H32   S    
Cr11  O26   S    
C14   C18   S    
C41   O24   A    
C67   C77   A    
C24   C27   D    
C7    C55   S    
Cr4   O13   S    
C72   C76   A    
C5    C18   D    
Cr8   O22   S    
Cr2   O10   S    
C2    H10   S    
Cr11  O51   S    
C15   C19   S    
C6    C19   D    
C81   H12   S    
C58   O44   A    
C15   H15   S    
Cr3   O3    S    
C55   O33   A    
Cr4   O35   S    
C5    C53   S    
Cr2   O32   S    
C57   O35   A    
C48   C52   S    
C10   C15   D    
C61   O48   A    
C46   H37   S    
C52   H4    S    
Cr10  O20   S    
Cr5   O10   S    
C48   H39   S    
Cr7   O39   S    
C1    O14   A    
C50   H2    S    
Cr6   O38   S    
C11   C16   D    
Cr5   O37   S    
C38   F3    S    
C67   H7    S    
Cr11  O48   S    
Cr12  O9    S    
C85   N2    T    
C35   C87   S    
C73   C77   A    
C23   O16   A    
C35   C70   S    
C70   O39   A    
C66   O36   A    
C80   H1    S    
C41   O28   A    
C68   O37   A    
C45   C75   A    
C90   N6    T    
C26   H33   S    
Cr2   O6    S    
Cr6   O11   S    
C37   C46   D    
C33   C69   S    
C87   N4    T    
C32   C68   S    
C40   O27   A    
Cr6   O16   S    
C84   N1    T    
C47   H38   S    
Cr1   O9    S    
C42   O25   A    
C54   O32   A    
C4    C56   A    
Cr10  O25   S    
C61   O43   A    
C25   H35   S    
Cr2   O28   S    
C74   C82   A    
C65   O4    A    
Cr9   O49   S    
C62   O52   A    
C83   H34   S    
C12   O15   A    
C77   C79   A    
C24   H31   S    
C39   F4    S    
Cr1   O14   S    
C20   C91   S    
C1    O18   A    
C42   C74   S    
Cr6   O42   S    
C8    H26   S    
Cr4   O30   S    
C6    H24   S    
Cr12  O5    S    
C78   C79   A    
C47   C51   S    
C23   O20   A    
C43   O30   A    
C39   C58   S    
C64   O50   A    
C3    C45   A    
C18   C88   S    
C31   C84   S    
Cr4   O8    S    
C66   O5    A    
C70   O8    A    
Cr8   O9    S    
Cr11  O21   S    
C25   C64   S    
C2    C89   A    
C9    C14   D    
C62   O45   A    
C91   N7    T    
C29   C30   S    
C2    C78   A    
Cr3   O7    S    
C8    C57   S    
C22   C62   S    
Cr8   O45   S    
C60   O47   A    
Cr7   O17   S    
C19   C90   S    
C16   C20   S    
C8    C21   D    
C41   C71   S    
C92   N8    T    
Cr1   O1    S    
Cr10  O50   S    
C32   C50   D    
C38   C47   D    
C3    H11   S    
C14   H14   S    
C12   O19   A    
C40   O22   A    
Cr8   O44   S    
C42   O29   A    
C5    H22   S    
Cr4   O4    S    
C89   H9    S    
C6    C54   S    
C24   C63   S    
C74   C79   A    
Cr8   O18   S    
C9    C34   S    
C36   C44   D    
Cr1   O40   S    
C1    C13   S    
C10   H19   S    
C35   C52   D    
Cr3   O29   S    
Cr11  O13   S    
Cr1   O36   S    
C25   C30   D    
Cr12  O31   S    
C51   H3    S    
C40   C72   S    
C36   F1    S    
C28   H28   S    
C26   C65   S    
C55   O23   A    
C78   H8    S    
C69   O7    A    
C54   O12   A    
C80   C81   A    
Cr3   O11   S    
Cr7   O34   S    
C11   C12   S    
C7    H25   S    
C36   C61   S    
C65   O51   A    
C68   O6    A    
C10   C23   S    
C33   C51   D    
Cr5   O12   S    
C29   H29   S    
C46   C50   S    
C43   O26   A    
C53   O1    A    
C9    H18   S    
Cr5   O15   S    
C71   C81   A    
C13   C17   D    
Cr9   O46   S    
C27   H27   S    
C88   N5    T    
C11   H20   S    
C82   H23   S    
C37   F2    S    
C72   C80   A    
C34   O17   A    
C86   N3    T    
C60   O42   A    
C71   C75   A    
C59   O46   A    
C17   H17   S    
C59   O41   A    
C32   C85   S    
C64   O3    A    
C58   O40   A    
C69   O38   A    
Cr10  O47   S    
C4    H13   S    
Cr12  O52   S    
C56   C76   A    
Cr9   O10   S    
C17   C21   S    
C37   C60   S    
Cr9   O19   S    
Cr3   O33   S    
C53   O31   A    
C38   C59   S    
C45   H5    S    
Cr7   O13   S    
C57   O34   A    
Cr12  O27   S    
C49   H40   S    
C26   C29   D    
Cr2   O2    S    
C7    C20   D    
C63   O49   A    
Cr7   O43   S    
C27   C28   S    
Cr9   O24   S    
C67   C89   A    
C56   H6    S    
C34   O21   A    
C22   C28   D    
C44   H36   S    
C31   C49   D    
C63   O2    A    
C82   C83   A    
Cr6   O23   S    
C16   H16   S    
C73   C83   A    
C33   C86   S    
C13   H21   S    
C3    C4    A    
C39   C48   D    
Cr5   O41   S    
C21   C92   S    
