data_mof_unit_64236.cif
_audit_creation_date              2012-12-10T19:32:05-0500
_audit_creation_method            fapswitch 2.2
_symmetry_space_group_name_H-M    P1
_symmetry_Int_Tables_number       1
_space_group_crystal_system       triclinic
_cell_length_a                    18.740223
_cell_length_b                    18.65917
_cell_length_c                    18.743964
_cell_angle_alpha                 109.266246
_cell_angle_beta                  109.728484
_cell_angle_gamma                 109.332343
_cell_volume                      5050.84042555

loop_
_atom_site_label
_atom_site_type_symbol
_atom_type_description
_atom_site_fract_x
_atom_site_fract_y
_atom_site_fract_z
_atom_type_partial_charge
Br1   Br    Br    0.862718 0.419997 0.684183 -0.576662
Br2   Br    Br    0.927492 0.527315 0.258909 -0.496000
C1    C     C_R   0.380231 0.380001 0.500122 0.881472
C2    C     C_R   0.181002 0.181985 0.424997 0.132939
C3    C     C_3   0.128116 0.128401 0.327971 -0.492860
C4    C     C_R   0.621822 0.501184 0.620868 0.843906
C5    C     C_3   0.200570 0.198417 0.327955 -0.481306
C6    C     C_R   0.314590 0.495399 0.240107 0.130667
C7    C     C_R   0.311747 0.498584 0.313782 -0.104277
C8    C     C_R   0.241346 0.502338 0.323152 -0.214047
C9    C     C_R   0.176046 0.501876 0.257917 -0.211630
C10   C     C_R   0.182958 0.500530 0.185027 -0.097506
C11   C     C_R   0.253861 0.498199 0.179341 0.132511
C12   C     C_3   0.809254 0.497459 0.805848 0.109465
C13   C     C_3   0.295973 0.495019 0.124612 -0.496196
C14   C     C_3   0.366334 0.492815 0.194950 -0.479217
C15   C     C_R   0.764318 0.688098 0.516857 0.084857
C16   C     C_R   0.619490 0.620301 0.499604 0.873873
C17   C     C_R   0.686269 0.687690 0.502103 -0.082119
C18   C     C_R   0.677287 0.758788 0.500004 -0.212979
C19   C     C_R   0.741493 0.823052 0.499771 -0.218829
C20   C     C_R   0.815305 0.816943 0.504353 -0.087237
C21   C     C_R   0.828720 0.752748 0.518926 0.139192
C22   C     C_3   0.851537 0.690299 0.471590 -0.485696
C23   C     C_3   0.796654 0.574713 0.850143 -0.491208
C24   C     C_3   0.780224 0.618861 0.469219 -0.441031
C25   C     C_R   0.998072 0.379978 0.878205 0.904948
C26   C     C_R   0.876700 0.497571 0.874133 0.877740
C27   C     C_R   0.997144 0.620086 0.116886 0.876574
C28   C     C_R   0.379128 0.499736 0.379357 0.879857
C29   C     C_R   0.117780 0.500067 0.118105 0.870811
C30   C     C_R   0.999503 0.119964 0.619441 0.880187
C31   C     C_R   0.119881 0.120097 0.500168 0.878782
C32   C     C_R   0.001072 0.880666 0.380518 0.880577
C33   C     C_R   0.880038 0.879825 0.500131 0.873321
C34   C     C_3   0.720554 0.410844 0.756293 -0.354135
C35   C     C_R   0.923527 0.241368 0.743581 0.159067
C36   C     C_R   0.000097 0.314707 0.814469 -0.082815
C37   C     C_R   0.080229 0.324177 0.821207 -0.214972
C38   C     C_R   0.080619 0.259219 0.757065 -0.208673
C39   C     C_R   0.000818 0.186585 0.685139 -0.091336
C40   C     C_3   0.766930 0.513082 0.670535 -0.416240
C41   C     C_R   0.923839 0.180875 0.680627 0.134565
C42   C     C_3   0.826821 0.126019 0.628496 -0.494380
C43   C     C_3   0.826410 0.196037 0.700434 -0.471162
C44   C     C_R   0.010037 0.686709 0.259385 0.086408
C45   C     C_R   0.244440 0.242367 0.425003 0.130508
C46   C     C_R   0.997431 0.685992 0.182050 -0.083961
C47   C     C_R   0.986902 0.753128 0.170139 -0.214343
C48   C     C_R   0.987925 0.817951 0.235775 -0.209640
C49   C     C_R   0.002212 0.816835 0.314155 -0.076616
C50   C     C_R   0.014473 0.750697 0.323603 0.065821
C51   C     C_3   0.031074 0.714677 0.383663 -0.499966
C52   C     C_3   0.837677 0.510196 0.739638 0.111933
C53   C     C_3   0.027270 0.641765 0.310358 0.098412
C54   C     C_3   0.724865 0.575894 0.780950 -0.374315
C55   C     C_3   0.650992 0.412000 0.684869 -0.405529
C56   C     C_R   0.316073 0.314748 0.501755 -0.097663
C57   C     C_3   0.689871 0.501014 0.688262 0.126339
C58   C     C_R   0.323064 0.323399 0.581695 -0.217391
C59   C     C_R   0.258388 0.258536 0.581713 -0.210866
C60   C     C_R   0.185738 0.186867 0.501766 -0.091694
H1    H     H_    0.795463 0.576988 0.672721 0.135536
H2    H     H_    0.179047 0.237850 0.302229 0.204702
H3    H     H_    0.236407 0.504532 0.379698 0.167587
H4    H     H_    0.743303 0.461193 0.603940 0.223952
H5    H     H_    0.121540 0.503883 0.264895 0.178599
H6    H     H_    0.255350 0.433274 0.060643 0.197056
H7    H     H_    0.320543 0.556268 0.121494 0.213647
H8    H     H_    0.366820 0.430041 0.171451 0.213413
H9    H     H_    0.431396 0.553074 0.232879 0.201475
H10   H     H_    0.619044 0.762073 0.494064 0.155448
H11   H     H_    0.732702 0.875806 0.493946 0.156745
H12   H     H_    0.697807 0.403030 0.802380 0.183975
H13   H     H_    0.836938 0.682396 0.405931 0.205582
H14   H     H_    0.918297 0.704156 0.513324 0.210401
H15   H     H_    0.724156 0.569441 0.402135 0.222579
H16   H     H_    0.805807 0.591484 0.509598 0.205506
H17   H     H_    0.141715 0.380538 0.875969 0.154330
H18   H     H_    0.142365 0.266184 0.762856 0.155380
H19   H     H_    0.799381 0.123386 0.564454 0.225022
H20   H     H_    0.803339 0.061678 0.625978 0.194047
H21   H     H_    0.799127 0.234125 0.678045 0.232656
H22   H     H_    0.802161 0.171991 0.739108 0.204075
H23   H     H_    0.670819 0.567896 0.795663 0.189574
H24   H     H_    0.976836 0.754654 0.110351 0.148282
H25   H     H_    0.978552 0.868861 0.225787 0.157358
H26   H     H_    0.097127 0.758803 0.442780 0.188674
H27   H     H_    0.899387 0.573725 0.774762 0.148741
H28   H     H_    0.976337 0.692193 0.396487 0.224701
H29   H     H_    0.090851 0.643483 0.326858 0.113501
H30   H     H_    0.751756 0.640497 0.784186 0.176602
H31   H     H_    0.858779 0.637915 0.885376 0.173427
H32   H     H_    0.593538 0.400731 0.694409 0.155791
H33   H     H_    0.627943 0.357531 0.619904 0.197008
H34   H     H_    0.778223 0.568476 0.899295 0.184612
H35   H     H_    0.727871 0.353231 0.726723 0.194615
H36   H     H_    0.378395 0.379052 0.643282 0.156172
H37   H     H_    0.264386 0.264805 0.643312 0.156275
H38   H     H_    0.124431 0.063572 0.303181 0.197325
H39   H     H_    0.064563 0.126929 0.301632 0.216355
H40   H     H_    0.238308 0.173872 0.302510 0.212390
O1    O     O_R   0.408690 0.356690 0.448570 -0.620684
O2    O     O_R   0.947510 0.091650 0.539220 -0.615552
O3    O     O_R   0.143610 0.091630 0.552030 -0.626228
O4    O     O_R   0.408080 0.460090 0.551420 -0.622168
O5    O     O_R   0.039620 0.091690 0.448080 -0.619068
O6    O     O_R   0.052490 0.908450 0.460880 -0.621061
O7    O     O_R   0.948500 0.908500 0.356930 -0.625494
O8    O     O_R   0.960380 0.908410 0.552020 -0.619711
O9    O     O_R   0.856390 0.908470 0.448070 -0.621862
O10   O     O_R   0.592400 0.448300 0.540680 -0.625984
O11   O     O_R   0.591790 0.551700 0.643540 -0.633159
O12   O     O_R   0.049530 0.460080 0.906210 -0.606297
O13   O     O_R   0.591920 0.539910 0.448580 -0.622817
O14   O     O_R   0.591310 0.643310 0.551430 -0.622027
O15   O     O_R   0.408210 0.448300 0.356460 -0.621440
O16   O     O_R   0.407600 0.551700 0.459320 -0.622745
O17   O     O_R   0.946090 0.356720 0.906270 -0.630375
O18   O     O_R   0.853510 0.448360 0.905260 -0.633171
O19   O     O_R   0.956950 0.551730 0.905200 -0.621599
O20   O     O_R   0.945130 0.540000 0.088470 -0.578764
O21   O     O_R   0.048570 0.643360 0.088400 -0.632484
O22   O     O_R   0.037700 0.448350 0.089480 -0.608076
O23   O     O_R   0.141150 0.551720 0.089410 -0.628364
O24   O     O_R   0.051500 0.091600 0.643170 -0.626485
Zn1   Zn    Zn3+2 0.500410 0.430960 0.431320 0.954007
Zn2   Zn    Zn3+2 0.499590 0.569040 0.568680 0.950763
Zn3   Zn    Zn3+2 0.928260 0.431020 0.997380 1.001319
Zn4   Zn    Zn3+2 0.066400 0.569060 0.997290 0.969081
Zn5   Zn    Zn3+2 0.069430 0.000010 0.569450 0.954246
Zn6   Zn    Zn3+2 0.930570 0.000090 0.430650 0.962847

loop_
_geom_bond_atom_site_label_1
_geom_bond_atom_site_label_2
_ccdc_geom_bond_type
C23   H31   S    
C6    C11   A    
C2    C60   A    
C39   C41   A    
C17   C18   A    
C31   O5    A    
C23   C54   S    
O19   Zn4   S    
Br1   C52   S    
O4    Zn2   S    
O3    Zn5   S    
O11   Zn2   S    
C59   H37   S    
C42   C43   S    
C20   C33   S    
C32   C49   S    
C24   H16   S    
C15   C24   S    
C22   C24   S    
C29   O22   A    
C31   C60   S    
C58   H36   S    
Br2   C53   S    
C12   C34   S    
C36   C37   A    
C55   C57   S    
C25   C36   S    
C56   C58   A    
C13   C14   S    
C44   C50   A    
O13   Zn1   S    
C16   C17   S    
C30   O24   A    
O10   Zn1   S    
C53   H29   S    
O17   Zn3   S    
O23   Zn4   S    
C6    C7    A    
O6    Zn5   S    
C5    H40   S    
C44   C53   S    
C30   C39   S    
C30   O2    A    
C34   H35   S    
O1    Zn1   S    
C7    C8    A    
O20   Zn3   S    
O14   Zn2   S    
C6    C14   S    
C19   C20   A    
O12   Zn4   S    
C43   H21   S    
C14   H9    S    
O16   Zn2   S    
C4    C57   S    
C9    H5    S    
C44   C46   A    
C51   C53   S    
C1    O4    A    
C13   H7    S    
C19   H11   S    
C3    H39   S    
C24   H15   S    
C27   C46   S    
C49   C50   A    
C31   O3    A    
C52   H27   S    
C34   C55   S    
C26   O18   A    
C16   O14   A    
C37   C38   A    
C3    C5    S    
C26   O19   A    
C22   H14   S    
C28   O16   A    
O18   Zn3   S    
C58   C59   A    
C37   H17   S    
C35   C41   A    
C41   C42   S    
C25   O12   A    
C4    O11   A    
C35   C36   A    
C3    H38   S    
C21   C22   S    
C27   O20   A    
O7    Zn6   S    
C38   H18   S    
C48   C49   A    
C14   H8    S    
O8    Zn5   S    
C15   C21   A    
C10   C11   A    
O15   Zn1   S    
C33   O8    A    
C34   H12   S    
C7    C28   S    
C48   H25   S    
C46   C47   A    
C12   C52   S    
C42   H19   S    
C55   H32   S    
C11   C13   S    
C10   C29   S    
O2    Zn6   S    
C43   H22   S    
C29   O23   A    
C35   C43   S    
C33   O9    A    
C50   C51   S    
C8    H3    S    
C1    O1    A    
C38   C39   A    
C4    O10   A    
C47   H24   S    
C2    C3    S    
C16   O13   A    
C9    C10   A    
C22   H13   S    
C28   O15   A    
C25   O17   A    
C42   H20   S    
C54   C57   S    
C32   O6    A    
O21   Zn4   S    
C40   C52   S    
C45   C56   A    
C54   H23   S    
O24   Zn5   S    
C13   H6    S    
C27   O21   A    
O5    Zn6   S    
C15   C17   A    
O22   Zn3   S    
C51   H26   S    
C12   C23   S    
C59   C60   A    
C5    H2    S    
C8    C9    A    
C1    C56   S    
O9    Zn6   S    
C54   H30   S    
C18   C19   A    
C23   H34   S    
C47   C48   A    
C55   H33   S    
C40   C57   S    
C51   H28   S    
C40   H4    S    
C32   O7    A    
C20   C21   A    
C18   H10   S    
C12   C26   S    
C40   H1    S    
C5    C45   S    
C2    C45   A    
