data_mof_unit_63614.cif
_audit_creation_date              2012-12-10T19:58:40-0500
_audit_creation_method            fapswitch 2.2
_symmetry_space_group_name_H-M    P1
_symmetry_Int_Tables_number       1
_space_group_crystal_system       triclinic
_cell_length_a                    38.666467
_cell_length_b                    32.101399
_cell_length_c                    21.671039
_cell_angle_alpha                 90.015094
_cell_angle_beta                  123.951083
_cell_angle_gamma                 89.98098
_cell_volume                      22313.2196169

loop_
_atom_site_label
_atom_site_type_symbol
_atom_type_description
_atom_site_fract_x
_atom_site_fract_y
_atom_site_fract_z
_atom_type_partial_charge
C1    C     C_R   0.919325 0.000000 0.419033 0.905166
C2    C     C_R   0.966860 0.984974 0.248700 0.196091
C3    C     C_1   0.500019 0.337794 0.000053 0.004200
C4    C     C_1   0.000014 0.875081 0.000033 -0.175955
C5    C     C_1   0.500014 0.375081 0.000033 -0.175954
C6    C     C_1   0.500007 0.124780 0.000033 -0.104318
C7    C     C_1   0.000007 0.624780 0.000033 -0.104322
C8    C     C_R   0.479687 0.771899 0.932013 0.287992
C9    C     C_R   0.520529 0.771880 0.067953 0.287265
C10   C     C_R   0.979687 0.271899 0.932013 0.287992
C11   C     C_R   0.020530 0.271880 0.067953 0.287266
C12   C     C_R   0.927915 0.029607 0.611844 -0.183004
C13   C     C_R   0.533752 0.485815 0.752500 0.190732
C14   C     C_R   0.072190 0.030196 0.387998 -0.182467
C15   C     C_R   0.427915 0.529606 0.611844 -0.183005
C16   C     C_R   0.572190 0.530196 0.387998 -0.182470
C17   C     C_R   0.500105 0.793479 0.999996 -0.101037
C18   C     C_R   0.000105 0.293479 0.999996 -0.101035
C19   C     C_R   0.020683 0.228125 0.068084 0.097875
C20   C     C_R   0.979489 0.228146 0.931821 0.096704
C21   C     C_R   0.520683 0.728125 0.068084 0.097872
C22   C     C_R   0.479489 0.728146 0.931821 0.096701
C23   C     C_R   0.000065 0.206610 0.999936 -0.047942
C24   C     C_R   0.466860 0.484974 0.248700 0.196091
C25   C     C_R   0.500065 0.706609 0.999936 -0.047943
C26   C     C_1   0.500079 0.838051 0.000018 0.170123
C27   C     C_1   0.000079 0.338051 0.000018 0.170124
C28   C     C_1   0.000021 0.162057 0.999901 0.090876
C29   C     C_1   0.500021 0.662057 0.999900 0.090874
C30   C     C_R   0.896083 0.051384 0.609269 -0.279604
C31   C     C_R   0.103820 0.052139 0.390214 -0.277467
C32   C     C_R   0.396083 0.551383 0.609269 -0.279602
C33   C     C_R   0.603820 0.552139 0.390214 -0.277465
C34   C     C_R   0.900939 0.064878 0.674878 0.230342
C35   C     C_R   0.033672 0.988991 0.815784 -0.214824
C36   C     C_R   0.098669 0.065625 0.324356 0.227633
C37   C     C_R   0.400939 0.564877 0.674878 0.230339
C38   C     C_R   0.598669 0.565625 0.324356 0.227631
C39   C     C_R   0.937471 0.054422 0.743816 0.366749
C40   C     C_R   0.062113 0.054901 0.255604 0.367155
C41   C     C_R   0.437471 0.554421 0.743816 0.366750
C42   C     C_R   0.562113 0.554901 0.255604 0.367155
C43   C     C_R   0.967182 0.026702 0.747044 -0.023824
C44   C     C_R   0.032721 0.026913 0.252804 -0.020626
C45   C     C_R   0.467183 0.526701 0.747044 -0.023826
C46   C     C_R   0.966980 0.987812 0.185031 -0.230691
C47   C     C_R   0.532721 0.526913 0.252804 -0.020626
C48   C     C_R   0.964427 0.018378 0.680674 0.023543
C49   C     C_R   0.035714 0.018665 0.319342 0.016343
C50   C     C_R   0.464428 0.518378 0.680674 0.023547
C51   C     C_R   0.535714 0.518665 0.319342 0.016343
C52   C     C_3   0.103049 0.997058 0.781591 -0.769994
C53   C     C_3   0.891426 0.967697 0.179492 -0.772713
C54   C     C_3   0.603055 0.497055 0.781616 -0.770012
C55   C     C_3   0.391426 0.467697 0.179492 -0.772711
C56   C     C_3   0.808043 0.085045 0.383681 -0.767673
C57   C     C_R   0.533672 0.488991 0.815785 -0.214821
C58   C     C_3   0.185699 0.085567 0.620370 -0.752806
C59   C     C_3   0.308043 0.585045 0.383682 -0.767605
C60   C     C_3   0.685699 0.585567 0.620371 -0.752772
C61   C     C_3   0.916895 0.193297 0.835314 -0.625369
C62   C     C_3   0.083242 0.193172 0.164498 -0.627900
C63   C     C_3   0.416896 0.693297 0.835313 -0.625363
C64   C     C_3   0.583242 0.693172 0.164499 -0.627894
C65   C     C_3   0.845084 0.071159 0.693225 -0.725645
C66   C     C_3   0.154222 0.072345 0.305302 -0.727262
C67   C     C_3   0.345084 0.571158 0.693224 -0.725634
C68   C     C_R   0.466979 0.487812 0.185031 -0.230692
C69   C     C_3   0.654222 0.572345 0.305303 -0.727255
C70   C     C_3   0.692228 0.905616 0.240361 -0.733042
C71   C     C_3   0.306875 0.911304 0.873919 -0.742390
C72   C     C_3   0.192228 0.405615 0.240362 -0.733038
C73   C     C_3   0.806875 0.411304 0.873918 -0.742378
C74   C     C_R   0.000488 0.008060 0.813590 -0.135111
C75   C     C_R   0.999632 0.007757 0.186621 -0.127511
C76   C     C_R   0.500488 0.508060 0.813590 -0.135113
C77   C     C_R   0.080665 0.000002 0.580917 0.887257
C78   C     C_R   0.499632 0.507757 0.186621 -0.127513
C79   C     C_R   0.728611 0.961442 0.225293 0.228199
C80   C     C_R   0.271355 0.975720 0.816004 0.231894
C81   C     C_R   0.228611 0.461442 0.225293 0.228194
C82   C     C_R   0.771355 0.475720 0.816004 0.231876
C83   C     C_R   0.706499 0.999132 0.208331 0.095187
C84   C     C_R   0.293434 0.999070 0.793868 0.093599
C85   C     C_R   0.206499 0.499132 0.208331 0.095178
C86   C     C_R   0.793434 0.499070 0.793868 0.093574
C87   C     C_R   0.727658 0.036993 0.235238 -0.302007
C88   C     C_R   0.419325 0.500000 0.419033 0.905165
C89   C     C_R   0.272225 0.023041 0.728951 -0.292065
C90   C     C_R   0.227658 0.536993 0.235239 -0.302000
C91   C     C_R   0.772225 0.523041 0.728952 -0.292031
C92   C     C_R   0.771228 0.037875 0.279708 0.231265
C93   C     C_R   0.228676 0.024610 0.685650 0.235027
C94   C     C_R   0.271228 0.537875 0.279709 0.231244
C95   C     C_R   0.728676 0.524610 0.685651 0.235009
C96   C     C_R   0.793349 0.000265 0.295432 0.097009
C97   C     C_R   0.206602 0.001126 0.707706 0.093361
C98   C     C_R   0.293349 0.500265 0.295433 0.097010
C99   C     C_R   0.580665 0.500002 0.580918 0.887259
C100  C     C_R   0.706602 0.501126 0.707706 0.093357
C101  C     C_R   0.772188 0.962417 0.268322 -0.311518
C102  C     C_R   0.227795 0.977196 0.772629 -0.311222
C103  C     C_R   0.272188 0.462417 0.268322 -0.311514
C104  C     C_R   0.727795 0.477196 0.772629 -0.311223
C105  C     C_R   0.000305 0.999891 0.620426 0.873478
C106  C     C_R   0.000142 0.999883 0.380028 0.898188
C107  C     C_R   0.500306 0.499891 0.620427 0.873470
C108  C     C_R   0.500142 0.499883 0.380028 0.898183
C109  C     C_1   0.662022 0.999561 0.162530 0.000760
C110  C     C_R   0.998717 0.999802 0.684757 -0.129831
C111  C     C_1   0.337938 0.999551 0.838192 0.003335
C112  C     C_1   0.162022 0.499562 0.162530 0.000763
C113  C     C_1   0.837938 0.499551 0.838192 0.003340
C114  C     C_1   0.837830 0.000041 0.338535 -0.009007
C115  C     C_1   0.162127 0.000407 0.663182 -0.002037
C116  C     C_1   0.337830 0.500042 0.338535 -0.009010
C117  C     C_1   0.662127 0.500407 0.663183 -0.002040
C118  C     C_1   0.875119 0.999984 0.375154 -0.178581
C119  C     C_1   0.124850 0.000063 0.625578 -0.185396
C120  C     C_1   0.375119 0.499984 0.375154 -0.178583
C121  C     C_R   0.001730 0.999749 0.315673 -0.134023
C122  C     C_1   0.624850 0.500063 0.625578 -0.185394
C123  C     C_1   0.624731 0.999824 0.124645 -0.154931
C124  C     C_1   0.375242 0.999831 0.875439 -0.153459
C125  C     C_1   0.124731 0.499824 0.124645 -0.154924
C126  C     C_1   0.875243 0.499831 0.875439 -0.153451
C127  C     C_1   0.500046 0.875336 0.000017 -0.108491
C128  C     C_1   0.000046 0.375336 0.000017 -0.108493
C129  C     C_R   0.000004 0.919304 0.000007 0.906892
C130  C     C_R   0.500004 0.419304 0.000007 0.906891
C131  C     C_R   0.000051 0.003603 0.879685 0.949972
C132  C     C_R   0.498717 0.499802 0.684758 -0.129840
C133  C     C_R   0.999967 0.003503 0.120367 0.948569
C134  C     C_R   0.500051 0.503603 0.879685 0.949973
C135  C     C_R   0.499967 0.503503 0.120367 0.948570
C136  C     C_R   0.999996 0.080653 0.999921 1.015280
C137  C     C_R   0.499996 0.580653 0.999921 1.015280
C138  C     C_R   0.500009 0.919540 0.000001 0.883464
C139  C     C_R   0.000009 0.419540 0.000001 0.883467
C140  C     C_R   0.580513 0.000001 0.080410 0.902111
C141  C     C_R   0.419478 0.000010 0.919583 0.900786
C142  C     C_R   0.080513 0.500001 0.080410 0.902122
C143  C     C_R   0.501730 0.499750 0.315673 -0.134025
C144  C     C_R   0.919478 0.500010 0.919583 0.900797
C145  C     C_1   0.999995 0.124817 0.999887 -0.073626
C146  C     C_1   0.499995 0.624817 0.999887 -0.073630
C147  C     C_R   0.500001 0.080565 0.000008 0.893803
C148  C     C_R   0.000001 0.580565 0.000008 0.893826
C149  C     C_R   0.462176 0.228425 0.967865 0.361313
C150  C     C_R   0.537861 0.228402 0.032280 0.361449
C151  C     C_R   0.962142 0.728425 0.967305 0.361322
C152  C     C_R   0.037895 0.728402 0.032840 0.361459
C153  C     C_R   0.500017 0.206602 0.000069 -0.056952
C154  C     C_R   0.033751 0.985815 0.752499 0.190720
C155  C     C_R   0.000017 0.706602 0.000069 -0.056949
C156  C     C_R   0.037699 0.771831 0.032664 -0.212421
C157  C     C_R   0.962341 0.771852 0.967481 -0.213979
C158  C     C_R   0.537665 0.271830 0.032107 -0.212419
C159  C     C_R   0.462375 0.271852 0.968039 -0.213987
C160  C     C_R   0.000021 0.793395 0.000070 0.019681
C161  C     C_R   0.500021 0.293395 0.000070 0.019686
C162  C     C_1   0.500013 0.162069 0.000052 0.127142
C163  C     C_1   0.000013 0.662069 0.000052 0.127144
C164  C     C_1   0.000019 0.837794 0.000053 0.004200
Cl1   Cl    Cl    0.414103 0.202296 0.926933 -0.597575
Cl2   Cl    Cl    0.048874 0.086379 0.178974 -0.656911
Cl3   Cl    Cl    0.450236 0.585986 0.820144 -0.657105
Cl4   Cl    Cl    0.548874 0.586379 0.178974 -0.656912
Cl5   Cl    Cl    0.585932 0.202245 0.073209 -0.601670
Cl6   Cl    Cl    0.914026 0.702297 0.925662 -0.597623
Cl7   Cl    Cl    0.086008 0.702245 0.074479 -0.601716
Cl8   Cl    Cl    0.453458 0.799704 0.847003 -0.616150
Cl9   Cl    Cl    0.546823 0.799663 0.152999 -0.621358
Cl10  Cl    Cl    0.953457 0.299704 0.847003 -0.616156
Cl11  Cl    Cl    0.046824 0.299663 0.152999 -0.621362
Cl12  Cl    Cl    0.950237 0.085986 0.820144 -0.657104
H1    H     H_    0.933196 0.788758 0.942267 0.187478
H2    H     H_    0.131667 0.060256 0.443501 0.166125
H3    H     H_    0.171140 0.427943 0.242975 0.252092
H4    H     H_    0.776914 0.448745 0.907736 0.229162
H5    H     H_    0.779771 0.391595 0.833895 0.237596
H6    H     H_    0.824735 0.395244 0.928599 0.245471
H7    H     H_    0.827662 0.415134 0.854054 0.251206
H8    H     H_    0.368296 0.559411 0.555896 0.154249
H9    H     H_    0.631667 0.560256 0.443501 0.166128
H10   H     H_    0.059586 0.975570 0.866868 0.180479
H11   H     H_    0.942030 0.973406 0.134181 0.176915
H12   H     H_    0.559586 0.475569 0.866868 0.180477
H13   H     H_    0.442030 0.473406 0.134180 0.176914
H14   H     H_    0.789563 0.933605 0.280988 0.158396
H15   H     H_    0.210447 0.959206 0.789019 0.155271
H16   H     H_    0.289563 0.433605 0.280988 0.158398
H17   H     H_    0.066845 0.788720 0.057875 0.187926
H18   H     H_    0.710447 0.459206 0.789020 0.155274
H19   H     H_    0.710278 0.065840 0.222015 0.168676
H20   H     H_    0.289580 0.040976 0.712521 0.162485
H21   H     H_    0.210278 0.565841 0.222016 0.168711
H22   H     H_    0.789580 0.540977 0.712521 0.162531
H23   H     H_    0.063076 0.949703 0.714258 0.246207
H24   H     H_    0.130073 0.980301 0.788241 0.236081
H25   H     H_    0.113091 0.011338 0.835882 0.256093
H26   H     H_    0.093103 0.021911 0.739143 0.237724
H27   H     H_    0.939903 0.939402 0.277715 0.242999
H28   H     H_    0.433256 0.288759 0.943256 0.187467
H29   H     H_    0.868069 0.960490 0.192486 0.245272
H30   H     H_    0.888607 0.944006 0.139569 0.234488
H31   H     H_    0.884564 0.999238 0.154131 0.258129
H32   H     H_    0.563079 0.449710 0.714253 0.246210
H33   H     H_    0.630078 0.480298 0.788261 0.236084
H34   H     H_    0.613097 0.511323 0.835916 0.256087
H35   H     H_    0.593115 0.521916 0.739186 0.237729
H36   H     H_    0.439903 0.439403 0.277716 0.243005
H37   H     H_    0.368069 0.460489 0.192485 0.245274
H38   H     H_    0.388608 0.444005 0.139569 0.234495
H39   H     H_    0.566785 0.288720 0.056887 0.187921
H40   H     H_    0.384564 0.499237 0.154129 0.258122
H41   H     H_    0.776266 0.101586 0.272753 0.236095
H42   H     H_    0.781667 0.087918 0.390402 0.237789
H43   H     H_    0.825830 0.114714 0.401221 0.246986
H44   H     H_    0.829253 0.059833 0.420342 0.240304
H45   H     H_    0.223550 0.054048 0.594981 0.223187
H46   H     H_    0.201312 0.114215 0.618811 0.237177
H47   H     H_    0.184949 0.086869 0.670907 0.249844
H48   H     H_    0.153127 0.085173 0.570703 0.242099
H49   H     H_    0.276266 0.601586 0.272754 0.236094
H50   H     H_    0.923568 0.021445 0.559494 0.151536
H51   H     H_    0.281668 0.587918 0.390403 0.237815
H52   H     H_    0.325830 0.614714 0.401222 0.246984
H53   H     H_    0.329253 0.559833 0.420342 0.240290
H54   H     H_    0.723550 0.554049 0.594981 0.223204
H55   H     H_    0.701312 0.614216 0.618813 0.237202
H56   H     H_    0.684948 0.586869 0.670907 0.249834
H57   H     H_    0.653127 0.585173 0.570704 0.242092
H58   H     H_    0.962218 0.218492 0.823267 0.278838
H59   H     H_    0.896904 0.221312 0.821122 0.242563
H60   H     H_    0.915844 0.174324 0.877095 0.240510
H61   H     H_    0.076697 0.022064 0.440485 0.153945
H62   H     H_    0.904334 0.174178 0.784345 0.262976
H63   H     H_    0.037981 0.218472 0.176649 0.279009
H64   H     H_    0.103272 0.221147 0.178708 0.241488
H65   H     H_    0.084248 0.174181 0.122670 0.240409
H66   H     H_    0.095793 0.174043 0.215444 0.263137
H67   H     H_    0.462219 0.718492 0.823268 0.278839
H68   H     H_    0.396904 0.721312 0.821121 0.242564
H69   H     H_    0.415844 0.674324 0.877094 0.240507
H70   H     H_    0.404335 0.674178 0.784344 0.262978
H71   H     H_    0.537980 0.718472 0.176648 0.279009
H72   H     H_    0.423568 0.521444 0.559494 0.151538
H73   H     H_    0.603271 0.721147 0.178710 0.241489
H74   H     H_    0.584248 0.674182 0.122672 0.240406
H75   H     H_    0.595792 0.674043 0.215445 0.263140
H76   H     H_    0.852217 0.107245 0.621901 0.224581
H77   H     H_    0.826374 0.045584 0.653876 0.223898
H78   H     H_    0.823541 0.094344 0.692490 0.237618
H79   H     H_    0.865040 0.058347 0.750441 0.270997
H80   H     H_    0.147099 0.108314 0.376786 0.223877
H81   H     H_    0.173190 0.046881 0.344701 0.224115
H82   H     H_    0.175523 0.095695 0.305695 0.236778
H83   H     H_    0.576697 0.522064 0.440485 0.153945
H84   H     H_    0.134232 0.059428 0.248169 0.271457
H85   H     H_    0.352216 0.607244 0.621901 0.224591
H86   H     H_    0.326374 0.545582 0.653875 0.223899
H87   H     H_    0.323540 0.594343 0.692489 0.237622
H88   H     H_    0.365039 0.558345 0.750440 0.270992
H89   H     H_    0.647099 0.608314 0.376787 0.223886
H90   H     H_    0.673190 0.546881 0.344701 0.224117
H91   H     H_    0.675524 0.595695 0.305696 0.236783
H92   H     H_    0.634233 0.559428 0.248169 0.271453
H93   H     H_    0.723430 0.900960 0.188306 0.229006
H94   H     H_    0.868296 0.059412 0.555897 0.154246
H95   H     H_    0.718865 0.898052 0.297750 0.235730
H96   H     H_    0.674431 0.876628 0.213271 0.252102
H97   H     H_    0.671139 0.927943 0.242972 0.252087
H98   H     H_    0.276914 0.948745 0.907736 0.229166
H99   H     H_    0.279771 0.891595 0.833896 0.237591
H100  H     H_    0.324735 0.895245 0.928599 0.245472
H101  H     H_    0.327663 0.915134 0.854055 0.251208
H102  H     H_    0.223430 0.400960 0.188306 0.229010
H103  H     H_    0.218866 0.398051 0.297751 0.235727
H104  H     H_    0.174431 0.376628 0.213272 0.252101
N1    N     N_2   0.069265 0.968077 0.758279 -0.311616
N2    N     N_2   0.040887 0.205459 0.136264 -0.266187
N3    N     N_2   0.459275 0.705499 0.863612 -0.267432
N4    N     N_2   0.540886 0.705459 0.136264 -0.266188
N5    N     N_2   0.870162 0.091132 0.671285 -0.278002
N6    N     N_2   0.129163 0.092107 0.327503 -0.278544
N7    N     N_2   0.370162 0.591131 0.671284 -0.278000
N8    N     N_2   0.629163 0.592107 0.327503 -0.278542
N9    N     N_2   0.707295 0.922763 0.197813 -0.306456
N10   N     N_2   0.292704 0.951345 0.882165 -0.302373
N11   N     N_2   0.207295 0.422763 0.197814 -0.306460
N12   N     N_2   0.932763 0.966519 0.247418 -0.308276
N13   N     N_2   0.792704 0.451345 0.882165 -0.302387
N14   N     N_2   0.569266 0.468077 0.758280 -0.311606
N15   N     N_2   0.432763 0.466520 0.247417 -0.308275
N16   N     N_2   0.792521 0.076600 0.306798 -0.294073
N17   N     N_2   0.207399 0.048979 0.619373 -0.313405
N18   N     N_2   0.292521 0.576600 0.306799 -0.294083
N19   N     N_2   0.707399 0.548979 0.619374 -0.313405
N20   N     N_2   0.959275 0.205499 0.863612 -0.267431
O1    O     O_R   0.939010 0.034430 0.439030 -0.608648
O2    O     O_R   0.439000 0.999980 0.990770 -0.607654
O3    O     O_R   0.061000 0.499980 0.009230 -0.609470
O4    O     O_R   0.939000 0.499980 0.990770 -0.607702
O5    O     O_R   0.499990 0.061030 0.051640 -0.609317
O6    O     O_R   0.500010 0.061030 0.948360 -0.609826
O7    O     O_R   0.999990 0.561030 0.051640 -0.609330
O8    O     O_R   0.000010 0.561030 0.948360 -0.609842
O9    O     O_R   0.939020 0.965580 0.438990 -0.617317
O10   O     O_R   0.060980 0.965580 0.561010 -0.614769
O11   O     O_R   0.439020 0.465580 0.438990 -0.617314
O12   O     O_R   0.060990 0.034430 0.560970 -0.619534
O13   O     O_R   0.560980 0.465580 0.561010 -0.614772
O14   O     O_R   0.999990 0.034430 0.591600 -0.610390
O15   O     O_R   0.000010 0.034430 0.408400 -0.608063
O16   O     O_R   0.499990 0.534430 0.591600 -0.610388
O17   O     O_R   0.500010 0.534430 0.408400 -0.608063
O18   O     O_R   0.000000 0.965580 0.591570 -0.634300
O19   O     O_R   0.000000 0.965580 0.408430 -0.633083
O20   O     O_R   0.500000 0.465580 0.591570 -0.634300
O21   O     O_R   0.500000 0.465580 0.408430 -0.633082
O22   O     O_R   0.034430 0.939010 0.034360 -0.616429
O23   O     O_R   0.439010 0.534430 0.439030 -0.608650
O24   O     O_R   0.965570 0.939010 0.965640 -0.617872
O25   O     O_R   0.534430 0.439010 0.034360 -0.616429
O26   O     O_R   0.465570 0.439010 0.965640 -0.617872
O27   O     O_R   0.034440 0.999990 0.942790 -0.636777
O28   O     O_R   0.965560 0.999990 0.057210 -0.636089
O29   O     O_R   0.534440 0.499990 0.942790 -0.636781
O30   O     O_R   0.465560 0.499990 0.057210 -0.636091
O31   O     O_R   0.965580 0.000000 0.873950 -0.600288
O32   O     O_R   0.034420 0.000000 0.126050 -0.601233
O33   O     O_R   0.465580 0.500000 0.873950 -0.600287
O34   O     O_R   0.560990 0.534430 0.560970 -0.619533
O35   O     O_R   0.534420 0.500000 0.126050 -0.601232
O36   O     O_R   0.034440 0.060980 0.034440 -0.592468
O37   O     O_R   0.965560 0.060980 0.965560 -0.591127
O38   O     O_R   0.534440 0.560980 0.034440 -0.592469
O39   O     O_R   0.465560 0.560980 0.965560 -0.591128
O40   O     O_R   0.500010 0.939050 0.051750 -0.603803
O41   O     O_R   0.499990 0.939050 0.948250 -0.602281
O42   O     O_R   0.000010 0.439050 0.051750 -0.603803
O43   O     O_R   0.999990 0.439050 0.948250 -0.602282
O44   O     O_R   0.560990 0.000040 0.112660 -0.612376
O45   O     O_R   0.439010 0.000040 0.887340 -0.611874
O46   O     O_R   0.060990 0.500040 0.112660 -0.612331
O47   O     O_R   0.939010 0.500040 0.887340 -0.611830
O48   O     O_R   0.561000 0.999980 0.009230 -0.609420
Zn1   Zn    Zn3+2 1.000000 0.045980 0.500000 0.992953
Zn2   Zn    Zn3+2 0.500000 0.000050 0.930960 1.018091
Zn3   Zn    Zn3+2 1.000000 0.500050 0.069040 1.017588
Zn4   Zn    Zn3+2 0.000000 0.500050 0.930960 1.018071
Zn5   Zn    Zn3+2 0.500000 0.545980 0.500000 0.992953
Zn6   Zn    Zn3+2 0.000000 0.954030 0.500000 0.965125
Zn7   Zn    Zn3+2 0.500000 0.454030 0.500000 0.965136
Zn8   Zn    Zn3+2 0.045980 0.999990 0.045940 1.000451
Zn9   Zn    Zn3+2 0.954020 0.999990 0.954060 1.000162
Zn10  Zn    Zn3+2 0.545980 0.499990 0.045940 1.000445
Zn11  Zn    Zn3+2 0.454020 0.499990 0.954060 1.000157
Zn12  Zn    Zn3+2 0.500000 0.000050 0.069040 1.017605

loop_
_geom_bond_atom_site_label_1
_geom_bond_atom_site_label_2
_ccdc_geom_bond_type
C10   Cl10  S    
C105  C110  S    
C142  O3    A    
O4    Zn3   S    
H4    N13   S    
C35   C154  A    
C36   N6    S    
C66   H81   S    
C55   H38   S    
C56   H42   S    
C15   C32   A    
H102  N11   S    
C13   N14   S    
C151  Cl6   S    
C57   C76   A    
C128  C139  S    
C34   N5    S    
C100  C104  A    
C65   N5    S    
C52   H25   S    
C136  O36   A    
C149  C153  A    
H89   N8    S    
O18   Zn6   S    
C54   H33   S    
C152  C156  A    
C10   C20   A    
C65   H77   S    
C71   H99   S    
C159  C161  A    
C151  C155  A    
C97   C115  S    
C80   C84   A    
C61   N20   S    
O36   Zn8   S    
C96   C114  S    
C133  O32   A    
H32   N14   S    
C133  O28   A    
C25   C29   S    
C137  C146  S    
C129  O24   A    
O16   Zn5   S    
C29   C146  T    
C142  O46   A    
C7    C163  T    
C139  O43   A    
H27   N12   S    
C19   C23   A    
H71   N4    S    
C24   N15   S    
C130  O25   A    
C131  O31   A    
C27   C128  T    
C156  C160  A    
C58   H47   S    
O43   Zn4   S    
C102  H15   S    
C28   C145  T    
C59   H52   S    
C112  C125  T    
C64   H74   S    
C5    C130  S    
C157  C160  A    
C45   C76   A    
C140  O44   A    
C136  O37   A    
C151  C157  A    
C56   H44   S    
C2    C121  A    
C16   H83   S    
C111  C124  T    
H58   N20   S    
C72   N11   S    
O17   Zn5   S    
C60   H57   S    
C8    C17   A    
C105  O14   A    
C69   H91   S    
C14   H61   S    
C67   H87   S    
C85   C90   A    
C51   C143  A    
C33   C38   A    
C87   H19   S    
C9    C21   A    
C45   C50   A    
C137  O39   A    
C65   H79   S    
C13   C132  A    
O23   Zn5   S    
C69   N8    S    
C15   H72   S    
C134  O29   A    
C135  O35   A    
C41   C45   A    
C31   C36   A    
O10   Zn6   S    
C100  C117  S    
C140  O48   A    
O30   Zn11  S    
H85   N7    S    
C48   C110  A    
C11   C18   A    
C60   H55   S    
C16   C51   A    
C14   C31   A    
C85   C112  S    
C80   N10   S    
C37   N7    S    
C38   N8    S    
O46   Zn3   S    
O25   Zn10  S    
C68   H13   S    
C10   C18   A    
O19   Zn6   S    
C66   H84   S    
C73   H7    S    
C13   C57   A    
O28   Zn9   S    
C24   C143  A    
C92   C96   A    
C144  O47   A    
C2    N12   S    
H54   N19   S    
O47   Zn4   S    
C98   C116  S    
C22   C25   A    
C8    C22   A    
O35   Zn10  S    
C9    Cl9   S    
C52   H24   S    
C55   N15   S    
C56   N16   S    
C74   C131  S    
C46   C75   A    
C106  O15   A    
C148  O7    A    
O12   Zn1   S    
C63   H69   S    
C108  O17   A    
C30   C34   A    
C31   H2    S    
C34   C39   A    
C66   N6    S    
C149  Cl1   S    
O21   Zn7   S    
C3    C161  S    
C109  C123  T    
C113  C126  T    
C155  C163  S    
C23   C28   S    
H49   N18   S    
C116  C120  T    
C80   C102  A    
C72   H104  S    
C117  C122  T    
H93   N9    S    
C59   N18   S    
O41   Zn2   S    
C64   N4    S    
C12   H50   S    
C20   C23   A    
C49   C121  A    
C53   H30   S    
H80   N6    S    
C32   C37   A    
C94   N18   S    
H98   N10   S    
C88   O23   A    
C54   N14   S    
C71   N10   S    
C115  C119  T    
C61   H59   S    
C124  C141  S    
C59   H53   S    
C93   C97   A    
C62   H65   S    
C81   C103  A    
C21   C25   A    
O29   Zn10  S    
C82   C104  A    
C108  O21   A    
C107  C132  S    
C66   H82   S    
C55   H37   S    
C131  O27   A    
O14   Zn1   S    
C6    C147  S    
C159  H28   S    
C35   H10   S    
C63   H68   S    
C126  C144  S    
O8    Zn4   S    
C52   H26   S    
C26   C127  T    
C108  C143  S    
C89   C93   A    
C91   C95   A    
C54   H34   S    
C70   H97   S    
C104  H18   S    
C79   C101  A    
O15   Zn1   S    
C47   C78   A    
C87   C92   A    
C105  O18   A    
C81   C85   A    
C107  O20   A    
C83   C87   A    
C35   C74   A    
C30   H94   S    
C12   C48   A    
C93   N17   S    
H76   N5    S    
C67   H86   S    
O5    Zn12  S    
C90   H21   S    
O37   Zn9   S    
C147  O6    A    
C11   C19   A    
C71   H101  S    
O39   Zn11  S    
C86   C113  S    
C61   H62   S    
C160  C164  S    
C86   C91   A    
C94   C98   A    
C98   C103  A    
O13   Zn7   S    
C62   H64   S    
O22   Zn8   S    
C19   N2    S    
C158  C161  A    
C52   N1    S    
C130  O26   A    
C91   H22   S    
O20   Zn7   S    
C150  C153  A    
C127  C138  S    
C46   H11   S    
C88   C120  S    
C59   H51   S    
C78   C135  S    
C97   C102  A    
C96   C101  A    
O44   Zn12  S    
C42   Cl4   S    
C90   C94   A    
C68   C78   A    
C141  O2    A    
H63   N2    S    
C84   C111  S    
C99   O13   A    
O24   Zn9   S    
C101  H14   S    
C69   H90   S    
C76   C134  S    
C95   C100  A    
C47   C51   A    
C82   C86   A    
C60   N19   S    
H41   N16   S    
C152  C155  A    
C137  O38   A    
C65   H78   S    
O48   Zn2   S    
C71   H100  S    
O38   Zn10  S    
C81   N11   S    
C50   C132  A    
C106  O19   A    
C99   C122  S    
C135  O30   A    
O33   Zn11  S    
C1    O9    A    
C88   O11   A    
C58   H48   S    
C150  C158  A    
C12   C30   A    
C60   H56   S    
C62   N2    S    
C3    C5    T    
C82   N13   S    
C70   H95   S    
C75   C133  S    
C4    C129  S    
O32   Zn8   S    
C92   N16   S    
C11   Cl11  S    
C153  C162  S    
O26   Zn11  S    
C79   C83   A    
C73   H6    S    
C156  H17   S    
O42   Zn3   S    
C24   C68   A    
C64   H73   S    
C14   C49   A    
O11   Zn7   S    
O31   Zn9   S    
C154  N1    S    
C33   H9    S    
C99   O34   A    
C141  O45   A    
C56   H43   S    
C8    Cl8   S    
O7    Zn3   S    
C44   C49   A    
O1    Zn1   S    
C69   H92   S    
C67   H88   S    
C58   H46   S    
C63   N3    S    
C148  O8    A    
C2    C46   A    
H45   N17   S    
C17   C26   S    
C138  O40   A    
C21   N4    S    
C38   C42   A    
C22   N3    S    
C150  Cl5   S    
H23   N1    S    
O45   Zn2   S    
C73   H5    S    
C73   N13   S    
C15   C50   A    
C57   H12   S    
C67   N7    S    
H67   N3    S    
C107  O16   A    
C6    C162  T    
C53   H29   S    
O3    Zn4   S    
C4    C164  T    
C138  O41   A    
C43   C48   A    
C40   Cl2   S    
C136  C145  S    
C42   C47   A    
C144  O4    A    
C43   C74   A    
C77   O10   A    
C37   C41   A    
C1    O1    A    
C62   H66   S    
C139  O42   A    
C70   N9    S    
C36   C40   A    
C55   H40   S    
C152  Cl7   S    
O6    Zn2   S    
C39   C43   A    
C158  H39   S    
C89   H20   S    
O2    Zn12  S    
C123  C140  S    
C44   C75   A    
C53   N12   S    
C110  C154  A    
C16   C33   A    
C64   H75   S    
C70   H96   S    
C40   C44   A    
C125  C142  S    
O34   Zn5   S    
C83   C109  S    
C157  H1    S    
C149  C159  A    
C114  C118  T    
C79   N9    S    
C9    C17   A    
C54   H35   S    
O40   Zn12  S    
C84   C89   A    
C58   N17   S    
C7    C148  S    
C63   H70   S    
C134  O33   A    
C95   N19   S    
C32   H8    S    
C18   C27   S    
C39   Cl12  S    
C77   C119  S    
O9    Zn6   S    
O27   Zn8   S    
C147  O5    A    
C72   H103  S    
C129  O22   A    
H36   N15   S    
C41   Cl3   S    
C106  C121  S    
C20   N20   S    
C53   H31   S    
C1    C118  S    
C77   O12   A    
C61   H60   S    
C103  H16   S    
C72   H3    S    
