data_mof_unit_32068.cif
_audit_creation_date              2012-12-11T18:07:00-0500
_audit_creation_method            fapswitch 2.2
_symmetry_space_group_name_H-M    P1
_symmetry_Int_Tables_number       1
_space_group_crystal_system       triclinic
_cell_length_a                    8.25495
_cell_length_b                    12.719954
_cell_length_c                    26.937786
_cell_angle_alpha                 95.92553
_cell_angle_beta                  93.237087
_cell_angle_gamma                 81.239931
_cell_volume                      2778.21533303

loop_
_atom_site_label
_atom_site_type_symbol
_atom_type_description
_atom_site_fract_x
_atom_site_fract_y
_atom_site_fract_z
_atom_type_partial_charge
Ba1   Ba    Ba6+2 0.859560 0.448380 0.523550 1.741337
Ba2   Ba    Ba6+2 0.330270 0.551530 0.476440 1.744062
C1    C     C_3   0.642192 0.079713 0.663650 -0.323005
C2    C     C_3   0.663540 0.180844 0.640739 0.260469
C3    C     C_3   0.484407 0.717945 0.628177 0.335434
C4    C     C_3   0.473637 0.753525 0.683923 0.414132
C5    C     C_3   0.964971 0.844373 0.340337 0.216704
C6    C     C_3   0.019710 0.867135 0.289950 0.129136
C7    C     C_3   0.518489 0.807106 0.309787 0.287699
C8    C     C_3   0.427031 0.897816 0.281198 0.801318
C9    C     C_R   0.034936 0.404970 0.178447 0.625756
C10   C     C_R   0.857746 0.570398 0.171111 0.703603
C11   C     C_2   0.739792 0.537251 0.270363 0.598490
C12   C     C_3   0.174030 0.221546 0.661516 0.297884
C13   C     C_3   0.727316 0.590456 0.323179 -0.175210
C14   C     C_1   0.985250 0.479222 0.342045 0.039088
C15   C     C_2   0.024060 0.471974 0.293968 -0.155133
C16   C     C_2   0.891693 0.497578 0.253839 0.129914
C17   C     C_R   0.010006 0.486057 0.098928 -0.079957
C18   C     C_R   0.078088 0.402596 0.127781 -0.037038
C19   C     C_R   0.188427 0.318712 0.105352 -0.022590
C20   C     C_R   0.898142 0.569695 0.120923 -0.058404
C21   C     C_2   0.847686 0.534983 0.359123 -0.355688
C22   C     C_2   0.352274 0.474313 0.641336 0.315362
C23   C     C_3   0.144621 0.200487 0.714536 -0.300503
C24   C     C_R   0.203013 0.399302 0.974364 0.019914
C25   C     C_R   0.032434 0.575324 0.970208 0.021427
C26   C     C_R   0.138872 0.487785 0.947164 0.054865
C27   C     C_R   0.304746 0.313083 0.948954 -0.093176
C28   C     C_R   0.343625 0.314484 0.899275 -0.048328
C29   C     C_R   0.283841 0.402015 0.872404 -0.033627
C30   C     C_R   0.181672 0.488995 0.896354 -0.078046
C31   C     C_R   0.122637 0.577493 0.869544 -0.047359
C32   C     C_R   0.166462 0.578262 0.819574 0.618277
C33   C     C_R   0.323433 0.403936 0.821963 0.583335
C34   C     C_3   0.194463 0.225260 0.422995 0.293577
C35   C     C_2   0.462154 0.472870 0.729489 -0.105295
C36   C     C_3   0.501838 0.481821 0.675786 -0.116867
C37   C     C_1   0.209116 0.521670 0.657068 -0.010873
C38   C     C_2   0.171469 0.521263 0.704410 -0.169407
C39   C     C_2   0.304177 0.493219 0.743711 0.192158
C40   C     C_R   0.163333 0.399842 0.025611 0.018842
C41   C     C_R   0.053060 0.486111 0.048047 0.062465
C42   C     C_R   0.984925 0.572682 0.020176 0.021349
C43   C     C_R   0.230077 0.317169 0.055631 -0.088837
C44   C     C_R   0.827843 0.652376 0.092447 -0.007761
C45   C     C_3   0.172822 0.107998 0.416166 0.066852
C46   C     C_R   0.978158 0.663586 0.942355 -0.092298
C47   C     C_R   0.022079 0.664377 0.893339 -0.040996
C48   C     C_R   0.869532 0.653842 0.043373 -0.090020
C49   C     C_R   0.751046 0.820029 0.477420 -0.251514
C50   C     C_R   0.436960 0.188889 0.521589 -0.282143
C51   C     C_R   0.412971 0.009788 0.537912 -0.084100
C52   C     C_R   0.350547 0.117867 0.541040 -0.015153
C53   C     C_R   0.578951 0.152575 0.495208 0.074783
C54   C     C_R   0.640909 0.041486 0.489620 -0.001557
C55   C     C_R   0.556799 0.969747 0.511878 -0.035441
C56   C     C_3   0.980425 0.776790 0.580081 0.301664
C57   C     C_R   0.615298 0.859204 0.505795 0.061732
C58   C     C_R   0.838790 0.889131 0.457464 -0.054648
C59   C     C_R   0.781895 0.999115 0.462072 -0.036295
C60   C     C_3   0.973499 0.896907 0.591028 -0.286619
C61   C     C_3   0.703521 0.307390 0.374909 0.288533
C62   C     C_3   0.713896 0.275148 0.319130 -0.256370
H1    H     H_    0.770935 0.163088 0.616499 0.075724
H2    H     H_    0.072394 0.094134 0.388144 0.098775
H3    H     H_    0.141885 0.082514 0.452008 0.071223
H4    H     H_    0.855961 0.757825 0.570800 -0.014849
H5    H     H_    0.059614 0.749894 0.547898 0.049244
H6    H     H_    0.906951 0.924767 0.625632 0.148936
H7    H     H_    0.909347 0.938545 0.559858 0.045998
H8    H     H_    0.099736 0.917325 0.596148 0.156070
H9    H     H_    0.825171 0.324020 0.390042 -0.011948
H10   H     H_    0.611283 0.380272 0.381007 0.052539
H11   H     H_    0.620405 0.016124 0.633650 0.097465
H12   H     H_    0.802588 0.200716 0.312310 0.153611
H13   H     H_    0.755607 0.338769 0.300348 0.030483
H14   H     H_    0.591309 0.261635 0.302854 0.177989
H15   H     H_    0.550652 0.205349 0.617979 0.024004
H16   H     H_    0.535621 0.095558 0.688093 0.167114
H17   H     H_    0.360905 0.703758 0.613209 -0.036124
H18   H     H_    0.571850 0.642524 0.622894 -0.015956
H19   H     H_    0.422472 0.693611 0.702981 -0.018873
H20   H     H_    0.753990 0.051835 0.686355 0.164513
H21   H     H_    0.165370 0.270899 0.740637 0.102166
H22   H     H_    0.946320 0.759209 0.338446 -0.001473
H23   H     H_    0.849075 0.898123 0.349392 0.031241
H24   H     H_    0.134244 0.812984 0.280756 0.148378
H25   H     H_    0.038679 0.952007 0.291673 0.109532
H26   H     H_    0.610992 0.761530 0.284455 0.089532
H27   H     H_    0.581371 0.840499 0.344028 -0.042727
H28   H     H_    0.313288 0.932412 0.299803 0.036874
H29   H     H_    0.099133 0.298735 0.654320 0.092942
H30   H     H_    0.150932 0.450014 0.283913 0.169271
H31   H     H_    0.244040 0.253321 0.126341 0.146736
H32   H     H_    0.561995 0.457767 0.757026 0.129867
H33   H     H_    0.421775 0.245947 0.881892 0.134256
H34   H     H_    0.355452 0.241985 0.966203 0.079092
H35   H     H_    0.317156 0.250013 0.042063 0.081399
H36   H     H_    0.739299 0.717371 0.108109 0.165429
H37   H     H_    0.903247 0.735127 0.957490 0.081435
H38   H     H_    0.305541 0.227927 0.658621 0.005746
H39   H     H_    0.976269 0.734235 0.874017 0.145447
H40   H     H_    0.044781 0.540755 0.714905 0.167112
H41   H     H_    0.806188 0.719668 0.024514 0.080338
H42   H     H_    0.838956 0.564166 0.398340 0.094374
H43   H     H_    0.343840 0.958006 0.554455 0.108504
H44   H     H_    0.850933 0.049724 0.444830 0.080556
H45   H     H_    0.796885 0.735320 0.474350 0.038370
H46   H     H_    0.386651 0.272675 0.523833 0.139357
H47   H     H_    0.016139 0.186285 0.717345 0.153153
H48   H     H_    0.229776 0.129584 0.725370 0.176611
H49   H     H_    0.322703 0.234621 0.433587 0.015459
H50   H     H_    0.115806 0.262645 0.453853 0.038970
N1    N     N_R   0.927019 0.489509 0.200292 -0.421892
N2    N     N_R   0.264243 0.491488 0.795862 -0.423377
O1    O     O_2   0.907040 0.557650 0.617910 -0.458202
O2    O     O_3   0.657616 0.222611 0.397238 -0.595923
O3    O     O_3   0.128314 0.137755 0.628138 -0.593756
O4    O     O_2   0.282660 0.442310 0.382060 -0.447446
O5    O     O_3   0.050670 0.442340 0.442260 -0.509988
O6    O     O_3   0.504750 0.639360 0.411530 -0.462600
O7    O     O_3   0.152440 0.270735 0.378015 -0.610991
O8    O     O_3   0.618400 0.630290 0.524520 -0.477175
O9    O     O_3   0.090070 0.694820 0.435810 -0.472660
O10   O     O_2   0.171837 0.882814 0.469306 -0.448626
O11   O     O_3   0.090150 0.865701 0.375711 -0.561802
O12   O     O_3   0.139040 0.557570 0.557730 -0.456871
O13   O     O_3   0.571310 0.369620 0.475470 -0.475296
O14   O     O_2   0.348200 0.764910 0.523260 -0.465506
O15   O     O_3   0.539109 0.798002 0.604381 -0.625986
O16   O     O_2   0.412290 0.538762 0.325106 -0.432082
O17   O     O_3   0.406355 0.742406 0.323185 -0.567568
O18   O     O_2   0.092214 0.331016 0.202690 -0.558459
O19   O     O_2   0.409477 0.327068 0.801218 -0.588424
O20   O     O_2   0.760957 0.644860 0.188885 -0.475593
O21   O     O_2   0.119131 0.657151 0.797400 -0.541146
O22   O     O_3   0.684960 0.360550 0.588460 -0.435826
O23   O     O_2   0.843106 0.420641 0.672818 -0.503251
O24   O     O_3   0.041460 0.728893 0.623019 -0.591493
O25   O     O_3   0.689004 0.260683 0.679146 -0.584627
O26   O     O_2   0.841490 0.235060 0.476710 -0.507185
O27   O     O_3   0.099640 0.305100 0.564190 -0.439623
O28   O     O_2   0.011852 0.115883 0.536530 -0.511420
P1    P     P_3+3 0.072810 0.589830 0.610360 1.067576
P2    P     P_3+3 0.661990 0.251250 0.462170 1.001250
P3    P     P_3+3 0.148412 0.167659 0.566981 0.961415
P4    P     P_3+3 0.116900 0.410080 0.389630 1.011815
P5    P     P_3+3 0.043265 0.833719 0.434163 0.987713
P6    P     P_3+3 0.679582 0.382991 0.653710 1.048597
P7    P     P_3+3 0.533175 0.763735 0.539877 0.961349
P8    P     P_3+3 0.514819 0.626372 0.346093 1.065229
Br1   Br    Br    0.373636 0.020701 0.396483 -0.616064
Br2   Br    Br    0.328998 0.888139 0.695093 -0.518348
Br3   Br    Br    0.689602 0.768198 0.713664 -0.485901
Br4   Br    Br    0.867908 0.842817 0.234994 -0.467165
Br5   Br    Br    0.549493 0.016039 0.280045 -0.466938
F1    F     F_    0.388490 0.859352 0.232734 -0.625833
F2    F     F_    0.604411 0.543077 0.238904 -0.644606
F3    F     F_    0.359159 0.404537 0.599592 -0.735086

loop_
_geom_bond_atom_site_label_1
_geom_bond_atom_site_label_2
_ccdc_geom_bond_type
C25   C46   A    
C56   C60   S    
C53   C54   A    
C62   H13   S    
O26   P2    D    
O15   P7    S    
C17   C18   A    
Ba1   O12   S    
C34   H50   S    
C7    H27   S    
C46   H37   S    
C5    C6    S    
C51   C52   A    
O22   P6    S    
O27   P3    S    
C28   H33   S    
C35   C36   S    
C11   C16   D    
Ba1   O13   S    
C3    C4    S    
O10   P5    D    
O12   P1    S    
C12   H38   S    
C5    H22   S    
C1    H16   S    
O3    P3    S    
C10   C20   A    
C22   C37   D    
C54   C55   A    
C60   H6    S    
C34   C45   S    
O1    P1    D    
Ba1   Ba2   S    
C59   H44   S    
C2    H1    S    
Ba1   O26   S    
C23   H48   S    
Ba1   P1    S    
C25   C42   A    
C5    H23   S    
C56   O24   S    
C50   C52   A    
C14   C15   D    
C48   H41   S    
C22   C36   S    
C50   H46   S    
C9    N1    Am   
C7    C8    S    
C8    F1    S    
C12   H29   S    
C4    Br3   S    
C50   C53   A    
C10   N1    Am   
C13   C21   S    
C8    H28   S    
C49   H45   S    
Ba1   P2    S    
O17   P8    S    
O28   P3    D    
C34   H49   S    
C45   H3    S    
C13   P8    S    
C17   C41   A    
O25   P6    S    
C31   C32   A    
C19   C43   A    
Ba2   O6    S    
C9    C18   A    
O2    P2    S    
C17   C20   A    
C2    H15   S    
C43   H35   S    
C9    O18   D    
C33   O19   D    
C37   C38   D    
C61   O2    S    
Ba2   O4    S    
C53   P2    S    
C19   H31   S    
C21   H42   S    
C35   H32   S    
C58   C59   A    
C6    H24   S    
C40   C43   A    
O6    P8    S    
O24   P1    S    
C41   C42   A    
C61   H9    S    
C27   C28   A    
Ba1   O27   S    
C15   H30   S    
C38   H40   S    
C3    H17   S    
C7    H26   S    
C51   H43   S    
C29   C30   A    
C26   C30   A    
C37   P1    S    
C32   O21   D    
C23   H21   S    
C15   C16   S    
C62   H12   S    
O5    P4    S    
C60   H8    S    
C33   N2    Am   
Ba1   O1    S    
O7    P4    S    
C8    Br5   S    
O13   P2    S    
C4    Br2   S    
O9    P5    S    
C27   H34   S    
C56   H4    S    
C46   C47   A    
C20   C44   A    
O8    P7    S    
O4    P4    D    
C14   C21   D    
C57   P7    S    
C11   C13   S    
O16   P8    D    
C29   C33   A    
C49   C57   A    
C40   C41   A    
C39   N2    S    
C1    C2    S    
C2    O25   S    
C1    H11   S    
C24   C40   A    
Ba2   O5    S    
C42   C48   A    
C44   H36   S    
C38   C39   S    
C51   C55   A    
C4    H19   S    
C45   H2    S    
C62   H14   S    
C16   N1    S    
C47   H39   S    
C22   F3    S    
C56   H5    S    
C6    H25   S    
C61   H10   S    
Ba2   O8    S    
C45   Br1   S    
C44   C48   A    
O23   P6    D    
C24   C26   A    
C14   P4    S    
C30   C31   A    
Ba1   O8    S    
O11   P5    S    
C3    H18   S    
C28   C29   A    
C32   N2    Am   
C34   O7    S    
Ba2   O14   S    
Ba2   O13   S    
C60   H7    S    
C58   P5    S    
C12   C23   S    
C35   C39   D    
C6    Br4   S    
Ba1   O5    S    
C55   C57   A    
C23   H47   S    
C61   C62   S    
Ba2   O9    S    
C3    O15   S    
C11   F2    S    
C18   C19   A    
C24   C27   A    
C12   O3    S    
C10   O20   D    
C31   C47   A    
C1    H20   S    
C54   C59   A    
C49   C58   A    
O14   P7    D    
C5    O11   S    
Ba2   P4    S    
C36   P6    S    
Ba1   O22   S    
Ba2   O12   S    
C52   P3    S    
C25   C26   A    
C7    O17   S    
