data_mof_unit_29366.cif
_audit_creation_date              2012-10-26T19:21:30-0400
_audit_creation_method            fapswitch 2.2
_symmetry_space_group_name_H-M    P1
_symmetry_Int_Tables_number       1
_space_group_crystal_system       triclinic
_cell_length_a                    9.839879
_cell_length_b                    11.070688
_cell_length_c                    15.611731
_cell_angle_alpha                 95.173585
_cell_angle_beta                  79.694907
_cell_angle_gamma                 112.351101
_cell_volume                      1547.05318986

loop_
_atom_site_label
_atom_site_type_symbol
_atom_type_description
_atom_site_fract_x
_atom_site_fract_y
_atom_site_fract_z
_atom_type_partial_charge
C1    C     C_R   0.557226 0.746591 0.507240 0.536784
C2    C     C_2   0.489978 0.062840 0.514755 -0.133246
C3    C     C_2   0.914823 0.478091 0.501268 0.050395
C4    C     C_2   0.069951 0.496292 0.514353 0.045461
C5    C     C_R   0.409824 0.480349 0.663336 0.600652
C6    C     C_R   0.589915 0.517801 0.335944 0.591200
C7    C     C_R   0.350337 0.440796 0.755291 0.010796
C8    C     C_R   0.645641 0.524904 0.239848 0.008547
C9    C     C_R   0.161515 0.296873 0.864688 0.068985
C10   C     C_R   0.847713 0.552452 0.116135 0.068094
C11   C     C_R   0.204815 0.347555 0.779959 0.180157
C12   C     C_R   0.443652 0.254264 0.491185 0.541345
C13   C     C_R   0.799750 0.561857 0.206432 0.185874
C14   C     C_R   0.448490 0.482376 0.816632 0.204687
C15   C     C_R   0.543811 0.489481 0.179905 0.214574
C16   C     C_R   0.417516 0.411299 0.892908 0.019274
C17   C     C_R   0.588106 0.459403 0.092031 0.031590
C18   C     C_R   0.269029 0.327240 0.920949 -0.068729
C19   C     C_R   0.741767 0.501522 0.058702 -0.060878
C20   C     C_R   0.528630 0.426886 0.944754 0.022062
C21   C     C_R   0.483050 0.399315 0.034186 0.021420
C22   C     C_2   0.004663 0.209990 0.893057 0.634071
C23   C     C_R   0.337610 0.305837 0.060354 0.073998
C24   C     C_2   0.009502 0.596071 0.082671 0.650004
C25   C     C_2   0.297716 0.226506 0.139645 0.650253
C26   C     C_2   0.735984 0.435771 0.817520 0.652485
C27   C     C_2   0.312311 0.043117 0.413207 0.604346
C28   C     C_2   0.732180 0.979058 0.541343 0.608827
C29   C     C_2   0.111806 0.374015 0.386292 0.757224
C30   C     C_2   0.912939 0.667700 0.586038 0.737219
C31   C     C_R   0.681996 0.458760 0.910582 0.084189
C32   C     C_R   0.233237 0.271144 0.003270 -0.075118
C33   C     C_R   0.785894 0.495237 0.968059 -0.075638
C34   C     C_2   0.589324 0.888036 0.514439 0.026272
C35   C     C_2   0.413566 0.115001 0.476653 0.038859
C36   C     C_2   0.485897 0.929597 0.495979 -0.138924
Cl1   Cl    Cl    0.374014 0.516087 0.207348 -0.483258
Cl2   Cl    Cl    0.593259 0.638660 0.806278 -0.453933
Cl3   Cl    Cl    0.937759 0.630873 0.274943 -0.458766
Cl4   Cl    Cl    0.073207 0.294158 0.706918 -0.524391
Cu1   Cu    Cu3+1 0.362980 0.479380 0.485080 1.133997
Cu2   Cu    Cu3+1 0.637020 0.520620 0.514920 1.137116
H1    H     H_    0.124215 0.197850 0.023179 0.199774
H2    H     H_    0.905919 0.483778 0.717198 0.351483
H3    H     H_    0.138645 0.884067 0.384392 0.391868
H4    H     H_    0.900997 0.154797 0.528249 0.368041
H5    H     H_    0.017971 0.354785 0.278415 0.378323
H6    H     H_    0.097961 0.823913 0.603464 0.365789
H7    H     H_    0.902080 0.520111 0.940994 0.198913
H8    H     H_    0.560868 0.122531 0.560712 0.191700
H9    H     H_    0.390354 0.860344 0.469933 0.220901
H10   H     H_    0.111232 0.549690 0.571836 0.171724
H11   H     H_    0.856654 0.395770 0.461501 0.180616
H12   H     H_    0.815555 0.179218 0.978509 0.360989
H13   H     H_    0.181637 0.546434 0.024283 0.361623
H14   H     H_    0.134636 0.110421 0.227664 0.395817
N1    N     N_2   0.842890 0.551600 0.537350 -0.247781
N2    N     N_2   0.157110 0.448400 0.462650 -0.234984
O1    O     O_R   0.426810 0.668300 0.492040 -0.519200
O2    O     O_R   0.920943 0.245560 0.965761 -0.660008
O3    O     O_2   0.089149 0.711214 0.089276 -0.415758
O4    O     O_R   0.070358 0.505146 0.044261 -0.644000
O5    O     O_2   0.394259 0.208782 0.170487 -0.445445
O6    O     O_R   0.148355 0.166501 0.176555 -0.649124
O7    O     O_2   0.655397 0.349561 0.774230 -0.490256
O8    O     O_R   0.881563 0.509742 0.780293 -0.641041
O9    O     O_2   0.323135 0.094329 0.344856 -0.424895
O10   O     O_R   0.201024 0.920982 0.432554 -0.649405
O11   O     O_2   0.787941 0.944511 0.593804 -0.388459
O12   O     O_R   0.573190 0.331700 0.507960 -0.536550
O13   O     O_R   0.804966 0.102691 0.504964 -0.694944
O14   O     O_2   0.142824 0.277296 0.366518 -0.434391
O15   O     O_R   0.041272 0.415167 0.331111 -0.626964
O16   O     O_2   0.837501 0.704737 0.645111 -0.360481
O17   O     O_R   0.063981 0.743897 0.563876 -0.682891
O18   O     O_R   0.658240 0.703130 0.517240 -0.446871
O19   O     O_R   0.341760 0.296870 0.482760 -0.448440
O20   O     O_R   0.319390 0.472820 0.610170 -0.486472
O21   O     O_R   0.680610 0.527180 0.389830 -0.465332
O22   O     O_R   0.550820 0.507640 0.635370 -0.435705
O23   O     O_R   0.449180 0.492360 0.364630 -0.433352
O24   O     O_2   0.949195 0.107605 0.853118 -0.392685

loop_
_geom_bond_atom_site_label_1
_geom_bond_atom_site_label_2
_ccdc_geom_bond_type
C2    C35   D    
C30   N1    S    
Cu2   O22   S    
C8    C13   A    
Cu1   Cu2   S    
H2    O8    S    
C28   O11   D    
H12   O2    S    
C7    C11   A    
C24   O3    D    
C4    H10   S    
C22   O24   D    
Cu1   N2    S    
C1    O1    A    
C22   O2    S    
C30   O16   D    
C9    C22   S    
C29   O15   S    
C33   H7    S    
H13   O4    S    
Cu2   O12   S    
C25   O5    D    
C15   Cl1   S    
C27   O10   S    
C2    H8    S    
C7    C14   A    
H14   O6    S    
C29   O14   D    
C28   C34   S    
Cu2   O21   S    
C6    O23   A    
C1    O18   A    
H6    O17   S    
Cu2   N1    S    
C1    C34   S    
C26   O8    S    
Cu1   O1    S    
C19   C33   A    
Cu1   O20   S    
C5    C7    S    
C6    C8    S    
C10   C24   S    
C17   C21   A    
C12   C35   S    
C25   O6    S    
C14   Cl2   S    
C10   C19   A    
C16   C20   A    
Cu1   O23   S    
C12   O19   A    
H3    O10   S    
C31   C33   A    
C29   N2    S    
C5    O22   A    
C9    C11   A    
H5    O15   S    
H4    O13   S    
C36   H9    S    
C3    N1    D    
C8    C15   A    
C21   C23   A    
C14   C16   A    
C28   O13   S    
C18   C32   A    
C3    C4    S    
C2    C36   S    
C15   C17   A    
C12   O12   A    
C24   O4    S    
C26   O7    D    
C10   C13   A    
Cu2   O18   S    
C27   C35   S    
C23   C32   A    
Cu1   O19   S    
C30   O17   S    
C3    H11   S    
C6    O21   A    
C17   C19   A    
C32   H1    S    
C34   C36   D    
C23   C25   S    
C11   Cl4   S    
C13   Cl3   S    
C27   O9    D    
C9    C18   A    
C26   C31   S    
C20   C21   A    
C16   C18   A    
C4    N2    D    
C5    O20   A    
C20   C31   A    
