data_mof_unit_53463.cif
_audit_creation_date              2012-12-11T14:15:36-0500
_audit_creation_method            fapswitch 2.2
_symmetry_space_group_name_H-M    P1
_symmetry_Int_Tables_number       1
_space_group_crystal_system       triclinic
_cell_length_a                    11.153484
_cell_length_b                    12.732033
_cell_length_c                    23.395789
_cell_angle_alpha                 90.447543
_cell_angle_beta                  96.82757
_cell_angle_gamma                 68.635548
_cell_volume                      3069.84296448

loop_
_atom_site_label
_atom_site_type_symbol
_atom_type_description
_atom_site_fract_x
_atom_site_fract_y
_atom_site_fract_z
_atom_type_partial_charge
C1    C     C_R   0.150340 0.617342 0.429410 0.546848
C2    C     C_R   0.659541 0.558436 0.310796 -0.128493
C3    C     C_R   0.705804 0.731133 0.318571 -0.095547
C4    C     C_R   0.698215 0.739014 0.258834 0.073231
C5    C     C_R   0.681395 0.650705 0.226100 0.055910
C6    C     C_R   0.680853 0.653806 0.167332 -0.124635
C7    C     C_R   0.691174 0.840759 0.170844 -0.146371
C8    C     C_R   0.709009 0.831820 0.230993 -0.128684
C9    C     C_1   0.238564 0.160498 0.123416 -0.018009
C10   C     C_2   0.198250 0.222978 0.230089 0.017938
C11   C     C_2   0.150653 0.162608 0.262881 0.023280
C12   C     C_R   0.748365 0.604550 0.404245 0.549640
C13   C     C_1   0.130515 0.194451 0.321715 -0.037044
C14   C     C_1   0.218845 0.192209 0.171220 -0.039266
C15   C     C_1   0.115926 0.228456 0.369542 -0.021027
C16   C     C_1   0.166121 0.747845 0.122813 -0.013357
C17   C     C_2   0.139809 0.679126 0.225511 0.006588
C18   C     C_2   0.226640 0.681758 0.270688 -0.118529
C19   C     C_1   0.215580 0.655795 0.329389 0.001136
C20   C     C_1   0.153182 0.715798 0.169216 -0.105788
C21   C     C_1   0.194747 0.636568 0.376853 0.028653
C22   C     C_1   0.624715 0.760356 0.863711 -0.009390
C23   C     C_R   0.101364 0.281010 0.423906 0.546513
C24   C     C_2   0.690059 0.729171 0.757799 0.030337
C25   C     C_2   0.608949 0.702905 0.717641 -0.084313
C26   C     C_1   0.643573 0.671607 0.660610 -0.060355
C27   C     C_1   0.657324 0.746967 0.815993 -0.037059
C28   C     C_1   0.684246 0.641821 0.615370 -0.018052
C29   C     C_R   0.207080 0.172106 0.849762 0.023290
C30   C     C_R   0.112475 0.205913 0.635888 -0.035690
C31   C     C_R   0.004143 0.173187 0.713777 -0.151743
C32   C     C_R   0.000522 0.201708 0.656139 -0.151598
C33   C     C_R   0.230366 0.164998 0.671855 0.016825
C34   C     C_R   0.155992 0.618870 0.588659 0.534055
C35   C     C_R   0.225714 0.170961 0.731822 0.081357
C36   C     C_R   0.112670 0.166684 0.752496 0.013506
C37   C     C_R   0.109651 0.157108 0.811427 -0.156991
C38   C     C_R   0.296628 0.213033 0.828901 0.018936
C39   C     C_R   0.318918 0.197053 0.770571 0.000241
C40   C     C_R   0.143126 0.765767 0.843619 0.026415
C41   C     C_R   0.223265 0.646284 0.641923 0.020443
C42   C     C_R   0.319342 0.566078 0.736901 -0.129429
C43   C     C_R   0.319343 0.559194 0.677272 -0.000974
C44   C     C_R   0.169780 0.753917 0.664789 0.008923
C45   C     C_R   0.748017 0.602970 0.565315 0.543608
C46   C     C_R   0.162812 0.758767 0.724688 0.041259
C47   C     C_R   0.234380 0.661769 0.761128 -0.015827
C48   C     C_R   0.221001 0.664067 0.820717 -0.007185
C49   C     C_R   0.067555 0.857775 0.806363 -0.158689
C50   C     C_R   0.078236 0.854961 0.748215 -0.146571
C51   C     C_R   0.265791 0.110411 0.069205 0.559074
C52   C     C_R   0.601382 0.774423 0.080884 0.542821
C53   C     C_R   0.189443 0.787603 0.069615 0.558680
C54   C     C_R   0.241798 0.114324 0.906734 0.588143
C55   C     C_R   0.573231 0.777011 0.917891 0.542831
C56   C     C_R   0.100888 0.274836 0.583985 0.525420
C57   C     C_R   0.166667 0.789866 0.904754 0.582705
C58   C     C_R   0.670747 0.753416 0.139008 -0.005831
C59   C     C_R   0.693485 0.637292 0.344700 0.012025
C60   C     C_R   0.657642 0.563166 0.251877 -0.135205
Cr1   Cr    Cr6+3 0.189770 0.415650 0.511620 1.004330
Cr2   Cr    Cr6+3 0.930400 0.667320 0.496770 1.018904
Cr3   Cr    Cr6+3 0.879870 0.417010 0.491650 1.017669
Cr4   Cr    Cr6+3 0.149500 0.973980 0.985330 1.025059
Cr5   Cr    Cr6+3 0.457000 0.976510 0.994660 1.048318
Cr6   Cr    Cr6+3 0.411170 0.724270 0.995270 1.060387
H1    H     H_    0.669671 0.583998 0.143296 0.135216
H2    H     H_    0.519380 0.697562 0.728751 0.128897
H3    H     H_    0.033899 0.135293 0.827291 0.119064
H4    H     H_    0.917499 0.169814 0.729008 0.102972
H5    H     H_    0.909202 0.225545 0.628339 0.133900
H6    H     H_    0.684734 0.918227 0.149595 0.135679
H7    H     H_    0.004971 0.936053 0.822526 0.135042
H8    H     H_    0.383759 0.495148 0.763682 0.091027
H9    H     H_    0.016032 0.928545 0.722125 0.104553
H10   H     H_    0.639111 0.497713 0.226592 0.105966
H11   H     H_    0.722778 0.900047 0.255442 0.107371
H12   H     H_    0.646462 0.486761 0.329944 0.137825
H13   H     H_    0.729128 0.793649 0.344526 0.119981
H14   H     H_    0.305374 0.709435 0.263768 0.109793
O1    O     O_R   0.196340 0.303200 0.448500 -0.511724
O2    O     O_R   0.811960 0.658090 0.547150 -0.494264
O3    O     O_R   0.757930 0.506140 0.547110 -0.515017
O4    O     O_R   0.988670 0.321620 0.556040 -0.496929
O5    O     O_3   0.000020 0.499990 0.500010 -0.232748
O6    O     O_R   0.113660 0.883270 0.047820 -0.509689
O7    O     O_R   0.186930 0.068530 0.043990 -0.497455
O8    O     O_R   0.377770 0.089040 0.054220 -0.495615
O9    O     O_R   0.562800 0.872960 0.056970 -0.502109
O10   O     O_R   0.555390 0.700940 0.062700 -0.519285
O11   O     O_R   0.295020 0.731920 0.049950 -0.482525
O12   O     O_R   0.199310 0.519670 0.454880 -0.498273
O13   O     O_R   0.094290 0.884230 0.921550 -0.531032
O14   O     O_R   0.168980 0.069410 0.926940 -0.513359
O15   O     O_R   0.358400 0.089990 0.927950 -0.478523
O16   O     O_R   0.544850 0.873850 0.939920 -0.498171
O17   O     O_R   0.536020 0.701900 0.936430 -0.510337
O18   O     O_R   0.277070 0.732810 0.932890 -0.466921
O19   O     O_3   0.339220 0.891590 0.991750 -0.263998
O20   O     O_R   0.045660 0.691380 0.441680 -0.507206
O21   O     O_R   0.811930 0.659460 0.430950 -0.496200
O22   O     O_R   0.757900 0.507620 0.421760 -0.520794
O23   O     O_R   0.988630 0.322990 0.439840 -0.492586
O24   O     O_R   0.196380 0.301720 0.573850 -0.536737
O25   O     O_R   0.199350 0.518300 0.571080 -0.510869
O26   O     O_R   0.045700 0.689900 0.567030 -0.519133
C61   C     C_2   0.029000 0.641999 0.229442 0.230280
H15   H     H_    0.964481 0.643279 0.190659 0.116102
O27   O     O_2   0.008311 0.609232 0.274811 -0.518158
C62   C     C_3   0.814386 0.739809 0.743766 -0.243657
C63   C     C_3   0.786339 0.847051 0.707054 -0.408275
H16   H     H_    0.699071 0.865115 0.674911 0.202136
H17   H     H_    0.771629 0.920289 0.735074 0.139102
H18   H     H_    0.869238 0.836656 0.682827 0.139548
H19   H     H_    0.877631 0.741376 0.783998 0.158403
H20   H     H_    0.869892 0.664704 0.720447 0.155566
C64   C     C_2   0.364443 0.272508 0.868533 0.258967
H21   H     H_    0.447640 0.289032 0.857797 0.080657
O28   O     O_2   0.324606 0.307557 0.914064 -0.446270
C65   C     C_3   0.432964 0.218952 0.750464 -0.258149
C66   C     C_3   0.563203 0.128076 0.774014 -0.411551
H22   H     H_    0.584959 0.132493 0.821215 0.129544
H23   H     H_    0.562948 0.042553 0.765079 0.217429
H24   H     H_    0.642269 0.139926 0.753352 0.122097
H25   H     H_    0.427787 0.224196 0.703289 0.166316
H26   H     H_    0.430653 0.302938 0.763812 0.100252
C67   C     C_2   0.347718 0.093759 0.646231 0.189341
H27   H     H_    0.354081 0.102969 0.600773 0.123124
O29   O     O_2   0.434905 0.018477 0.674811 -0.545514
C68   C     C_2   0.283926 0.561354 0.859135 0.254245
H28   H     H_    0.380979 0.502825 0.855114 0.085569
O30   O     O_2   0.226582 0.542106 0.896662 -0.451531
C69   C     C_3   0.415684 0.457192 0.651887 -0.256974
C70   C     C_3   0.554320 0.419814 0.682833 -0.457875
H29   H     H_    0.586331 0.492318 0.687235 0.169766
H30   H     H_    0.562663 0.381567 0.726141 0.136699
H31   H     H_    0.621027 0.355340 0.657412 0.140389
H32   H     H_    0.380855 0.386124 0.651824 0.160805
H33   H     H_    0.422479 0.477718 0.606604 0.162821
C71   C     C_3   0.124533 0.860602 0.625836 -0.271886
C72   C     C_3   0.221297 0.856469 0.583831 -0.422239
H34   H     H_    0.319538 0.837894 0.607660 0.176372
H35   H     H_    0.225871 0.791464 0.551439 0.151602
H36   H     H_    0.190391 0.939580 0.560541 0.132744
H37   H     H_    0.027268 0.875924 0.601981 0.163608
H38   H     H_    0.116794 0.935975 0.651351 0.151367
C73   C     C_3   0.116374 0.064314 0.238295 -0.264181
C74   C     C_3   0.069218 0.002663 0.281264 -0.434883
H39   H     H_    0.145853 0.965873 0.318157 0.155589
H40   H     H_    0.979866 0.061407 0.297260 0.155607
H41   H     H_    0.046265 0.933116 0.259633 0.151602
H42   H     H_    0.039099 0.096390 0.201153 0.153109
H43   H     H_    0.203343 0.001689 0.222224 0.148294
C75   C     C_3   0.235093 0.319694 0.255146 -0.260445
C76   C     C_3   0.292621 0.375435 0.213773 -0.423274
H44   H     H_    0.381219 0.312313 0.199291 0.156053
H45   H     H_    0.220274 0.415023 0.175814 0.164843
H46   H     H_    0.320191 0.441916 0.236229 0.150577
H47   H     H_    0.147511 0.385382 0.268950 0.196829
H48   H     H_    0.307807 0.287243 0.293867 0.148078

loop_
_geom_bond_atom_site_label_1
_geom_bond_atom_site_label_2
_ccdc_geom_bond_type
C1    C21   S    
C37   H3    S    
C76   H45   S    
C61   O27   D    
C6    C58   A    
C52   O10   A    
C35   C36   A    
C9    C51   S    
C74   H41   S    
C4    C8    A    
C3    H13   S    
C10   C75   S    
C70   H31   S    
C69   C70   S    
C7    C8    A    
Cr6   O10   S    
C12   O22   A    
C34   C41   S    
Cr6   O17   S    
C36   C37   A    
C19   C21   T    
C74   H40   S    
Cr4   O13   S    
C64   O28   D    
C5    C6    A    
Cr1   O5    S    
C65   H26   S    
C45   O2    A    
C29   C54   S    
C57   O18   A    
C40   C49   A    
C33   C67   S    
C17   C20   S    
C18   C19   S    
C43   C69   S    
C62   C63   S    
C66   H24   S    
C73   C74   S    
C16   C53   S    
C12   C59   S    
C72   H34   S    
C38   C64   S    
Cr4   O19   S    
C23   O23   A    
C63   H16   S    
C29   C38   A    
C53   O11   A    
C61   H15   S    
C24   C27   S    
C53   O6    A    
Cr1   O25   S    
C7    C58   A    
C30   C33   A    
Cr1   O12   S    
Cr2   O21   S    
C17   C61   S    
C15   C23   S    
Cr2   O2    S    
C69   H32   S    
C44   C71   S    
C57   O13   A    
Cr3   O5    S    
C76   H46   S    
C41   C43   A    
C48   C68   S    
C52   O9    A    
C45   O3    A    
C25   H2    S    
Cr3   O22   S    
C1    O20   A    
Cr4   O6    S    
C44   C46   A    
C56   O4    A    
C32   H5    S    
Cr5   O16   S    
C71   C72   S    
Cr2   O5    S    
C28   C45   S    
C42   H8    S    
C66   H23   S    
C34   O26   A    
Cr1   O24   S    
C24   C62   S    
C24   C25   D    
Cr5   O19   S    
Cr3   O23   S    
C10   C14   S    
C72   H36   S    
C51   O7    A    
C7    H6    S    
C2    C59   A    
C55   O16   A    
C70   H30   S    
C25   C26   S    
C30   C56   S    
C60   H10   S    
Cr3   O3    S    
Cr6   O19   S    
C71   H37   S    
C68   O30   D    
C9    C14   T    
C67   O29   D    
C75   H48   S    
C2    H12   S    
C47   C48   A    
Cr5   O15   S    
C16   C20   T    
C55   O17   A    
C17   C18   D    
C66   H22   S    
C63   H17   S    
C74   H39   S    
C56   O24   A    
C54   O15   A    
Cr6   O11   S    
C52   C58   S    
Cr2   O20   S    
C6    H1    S    
C69   H33   S    
C1    O12   A    
C22   C27   T    
C13   C15   T    
C8    H11   S    
C41   C44   A    
C49   H7    S    
C42   C43   A    
C71   H38   S    
C3    C4    A    
C62   H20   S    
C65   C66   S    
Cr5   O8    S    
C40   C48   A    
C46   C50   A    
C46   C47   A    
C40   C57   S    
Cr4   O7    S    
C5    C60   A    
C65   H25   S    
C34   O25   A    
C31   C32   A    
C23   O1    A    
C4    C5    A    
C51   O8    A    
C22   C55   S    
Cr2   O26   S    
Cr5   O9    S    
C70   H29   S    
C26   C28   T    
Cr3   O4    S    
C31   H4    S    
C72   H35   S    
C73   H42   S    
Cr4   O14   S    
C12   O21   A    
Cr1   O1    S    
C64   H21   S    
C30   C32   A    
C11   C13   S    
Cr6   O18   S    
C38   C39   A    
C35   C39   A    
C33   C35   A    
C68   H28   S    
C63   H18   S    
C2    C60   A    
C42   C47   A    
C39   C65   S    
C73   H43   S    
C54   O14   A    
C10   C11   D    
C75   C76   S    
C75   H47   S    
C18   H14   S    
C49   C50   A    
C29   C37   A    
C76   H44   S    
C31   C36   A    
C11   C73   S    
C50   H9    S    
C62   H19   S    
C67   H27   S    
C3    C59   A    
