data_mof_unit_8196.cif
_audit_creation_date              2013-03-05T16:26:13-0500
_audit_creation_method            fapswitch 2.2
_symmetry_space_group_name_H-M    P1
_symmetry_Int_Tables_number       1
_space_group_crystal_system       triclinic
_cell_length_a                    18.303732
_cell_length_b                    18.426128
_cell_length_c                    18.374955
_cell_angle_alpha                 120.233853
_cell_angle_beta                  90.295997
_cell_angle_gamma                 59.939911
_cell_volume                      4373.91459118

loop_
_atom_site_label
_atom_site_type_symbol
_atom_site_description
_atom_site_fract_x
_atom_site_fract_y
_atom_site_fract_z
_atom_type_partial_charge
Zn1   Zn    Zn3+2 0.043370 0.413240 0.543370 1.056053
Zn2   Zn    Zn3+2 0.869870 0.586760 0.543380 1.133584
Zn3   Zn    Zn3+2 0.043360 0.413260 0.369880 1.055467
Zn4   Zn    Zn3+2 0.043390 0.586740 0.543370 1.035567
O1    O     O_3   0.000000 0.500000 0.500000 -0.545675
O2    O     O_R   0.944950 0.731580 0.615800 -0.645491
O3    O     O_R   0.115780 0.268410 0.444920 -0.612475
O4    O     O_R   0.823470 0.560720 0.615800 -0.591578
O5    O     O_R   0.115800 0.439290 0.323490 -0.648959
O6    O     O_R   0.823460 0.560740 0.444930 -0.563929
O7    O     O_R   0.115830 0.560690 0.615790 -0.627202
O8    O     O_R   0.944900 0.439310 0.323490 -0.640438
O9    O     O_R   0.115810 0.439260 0.615790 -0.584976
O10   O     O_R   0.944910 0.439280 0.615800 -0.659468
O11   O     O_R   0.115820 0.560710 0.444920 -0.629761
O12   O     O_R   0.823500 0.731590 0.615800 -0.581270
O13   O     O_R   0.115770 0.268420 0.323490 -0.600395
C1    C     C_R   0.859820 0.779861 0.638303 0.900718
C2    C     C_R   0.138700 0.220160 0.359674 0.894271
C3    C     C_R   0.859935 0.499927 0.639726 0.868595
C4    C     C_R   0.139685 0.500309 0.359915 0.854470
C5    C     C_R   0.859884 0.500937 0.360055 0.886824
C6    C     C_R   0.141101 0.498818 0.638565 0.905868
C7    C     C_R   0.331956 0.329722 0.562069 0.433619
C8    C     C_R   0.424142 0.253732 0.526637 -0.322310
C9    C     C_R   0.480046 0.263078 0.576435 0.270260
C10   C     C_R   0.443092 0.347577 0.666453 0.219849
C11   C     C_R   0.347570 0.420916 0.708369 -0.149893
C12   C     C_R   0.292178 0.415436 0.654070 0.009043
C13   C     C_R   0.305675 0.498255 0.802577 -0.063133
C14   C     C_R   0.211602 0.574934 0.841857 -0.070580
C15   C     C_R   0.160185 0.578542 0.784980 -0.035196
C16   C     C_R   0.199238 0.497162 0.692980 -0.036943
C17   C     C_R   0.166635 0.649741 0.936509 0.325972
C18   C     C_R   0.076378 0.733523 0.970998 0.251590
C19   C     C_R   0.028544 0.742002 0.912428 0.200178
C20   C     C_R   0.069317 0.663034 0.821403 -0.276892
H1    H     H_    0.453708 0.188608 0.457264 0.202735
H2    H     H_    0.028962 0.670445 0.779134 0.191956
C21   C     C_R   0.254425 0.053735 0.330895 -0.140678
C22   C     C_R   0.195045 0.108488 0.301494 -0.209624
C23   C     C_R   0.196239 0.053954 0.212462 0.220809
C24   C     C_R   0.251008 0.945799 0.158254 0.214682
C25   C     C_R   0.302965 0.891827 0.193741 -0.169102
C26   C     C_R   0.306605 0.947623 0.278676 -0.027255
C27   C     C_3   0.295698 0.944779 0.358057 0.580243
C28   C     C_3   0.238983 0.062640 0.415876 0.180671
H3    H     H_    0.167589 0.100643 0.449646 0.171990
C29   C     C_R   0.204323 0.582249 0.340106 0.002298
C30   C     C_R   0.189399 0.505588 0.303510 -0.051021
C31   C     C_R   0.219260 0.436766 0.209920 -0.164051
H4    H     H_    0.204854 0.379724 0.178296 0.198528
C32   C     C_R   0.273052 0.436748 0.156134 -0.162230
H5    H     H_    0.298505 0.379734 0.084630 0.199456
C33   C     C_R   0.297823 0.505501 0.195134 -0.043203
C34   C     C_R   0.257547 0.582027 0.286901 -0.023040
C35   C     C_3   0.293086 0.624622 0.358872 0.557488
C36   C     C_3   0.234448 0.624032 0.417931 0.610251
C37   C     C_R   0.831439 0.946333 0.753153 -0.073745
C38   C     C_R   0.802298 0.891384 0.693020 -0.206127
C39   C     C_R   0.713671 0.945629 0.692820 0.224783
C40   C     C_R   0.658859 0.053816 0.748791 0.231135
C41   C     C_R   0.693528 0.108087 0.802736 -0.229591
C42   C     C_R   0.778851 0.052369 0.805657 -0.003454
C43   C     C_3   0.857874 0.056674 0.796941 0.546443
C44   C     C_3   0.916490 0.938700 0.739460 0.182016
H6    H     H_    0.951318 0.900870 0.668610 0.177329
C45   C     C_R   0.711446 0.567941 0.341189 -0.014078
C46   C     C_R   0.804024 0.509868 0.304690 -0.183686
C47   C     C_R   0.841350 0.466842 0.214738 -0.143726
H7    H     H_    0.912118 0.429196 0.186269 0.210844
C48   C     C_R   0.787872 0.471045 0.160161 0.450112
C49   C     C_R   0.696432 0.512804 0.195108 -0.158488
C50   C     C_R   0.659273 0.567240 0.286925 -0.098787
C51   C     C_3   0.595455 0.570963 0.341875 0.640582
C52   C     C_3   0.652816 0.573541 0.403505 0.673821
C53   C     C_R   0.711993 0.557207 0.717828 -0.011753
C54   C     C_R   0.804931 0.495331 0.691371 -0.115709
C55   C     C_R   0.845187 0.425628 0.714572 -0.162858
H8    H     H_    0.917331 0.373373 0.692619 0.208726
C56   C     C_R   0.793563 0.427931 0.772518 0.451400
C57   C     C_R   0.698561 0.497991 0.804712 -0.107880
C58   C     C_R   0.660575 0.559670 0.774071 -0.074819
C59   C     C_3   0.584602 0.670015 0.815678 0.021997
C60   C     C_3   0.642467 0.667189 0.752256 0.386367
H9    H     H_    0.522951 0.677649 0.801339 0.168489
Zn5   Zn    Zn3+2 0.456670 0.586670 0.956580 1.134553
Zn6   Zn    Zn3+2 0.456680 0.586650 0.130080 1.129347
Zn7   Zn    Zn3+2 0.630180 0.413150 0.956570 1.103585
Zn8   Zn    Zn3+2 0.456650 0.413170 0.956580 1.093085
O14   O     O_3   0.500040 0.499910 0.999960 -0.562399
O15   O     O_R   0.384230 0.439200 0.055040 -0.658491
O16   O     O_R   0.555130 0.560630 0.884160 -0.603419
O17   O     O_R   0.384270 0.731490 0.176470 -0.583887
O18   O     O_R   0.676550 0.268320 0.884150 -0.583072
O19   O     O_R   0.555150 0.560600 0.176460 -0.568154
O20   O     O_R   0.384220 0.439220 0.884170 -0.628156
O21   O     O_R   0.676580 0.439170 0.055020 -0.638973
O22   O     O_R   0.384230 0.560650 0.884170 -0.565631
O23   O     O_R   0.384260 0.731500 0.055040 -0.608714
O24   O     O_R   0.555100 0.268330 0.884160 -0.597014
O25   O     O_R   0.384250 0.560620 0.176470 -0.578871
O26   O     O_R   0.676570 0.439190 0.884150 -0.625074
C61   C     C_R   0.359578 0.500263 0.140003 0.856203
C62   C     C_R   0.640662 0.500747 0.861397 0.901445
C63   C     C_R   0.358880 0.779901 0.139783 0.914084
C64   C     C_R   0.639796 0.219861 0.858679 0.939283
C65   C     C_R   0.640397 0.502270 0.139684 0.869254
C66   C     C_R   0.360122 0.499958 0.860246 0.923946
N1    N     N_R   0.938573 0.830597 0.944376 0.247751
O27   O     O_R   0.915399 0.921756 0.008969 -0.269903
O28   O     O_R   0.883002 0.822530 0.901813 -0.339369
N2    N     N_R   0.246318 0.892357 0.070597 0.247934
O29   O     O_R   0.281752 0.889649 0.007326 -0.268038
O30   O     O_R   0.209370 0.843409 0.053115 -0.299783
O31   O     O_3   0.246623 0.905240 0.356072 -0.695306
H10   H     H_    0.223605 0.929880 0.418376 0.387707
N3    N     N_R   0.379395 0.896036 0.375046 0.239264
O32   O     O_R   0.456519 0.837492 0.313647 -0.378669
O33   O     O_R   0.376761 0.907761 0.451186 -0.280595
O34   O     O_3   0.277621 0.106212 0.474246 -0.659021
H11   H     H_    0.335406 0.082030 0.438592 0.364891
O35   O     O_3   0.385543 0.555189 0.336128 -0.711311
H12   H     H_    0.399919 0.581530 0.392066 0.361900
N4    N     N_R   0.266319 0.727386 0.388514 0.237372
O36   O     O_R   0.186805 0.794085 0.395510 -0.309997
O37   O     O_R   0.321771 0.753059 0.408338 -0.262987
O38   O     O_3   0.282727 0.554012 0.439611 -0.737426
H13   H     H_    0.301646 0.587616 0.489533 0.360759
O39   O     O_3   0.280917 0.320087 0.506725 -0.754634
H14   H     H_    0.318914 0.255515 0.446095 0.338987
O40   O     O_3   0.165067 0.722484 0.491867 -0.714096
H15   H     H_    0.128637 0.712938 0.521200 0.374957
N5    N     N_R   0.680915 0.892433 0.631295 0.259213
O41   O     O_R   0.721158 0.835993 0.545740 -0.331798
O42   O     O_R   0.607039 0.906642 0.660279 -0.212855
N6    N     N_R   0.571697 0.107198 0.743049 0.253126
O43   O     O_R   0.502499 0.137756 0.798942 -0.288822
O44   O     O_R   0.563937 0.107181 0.672636 -0.275623
N7    N     N_R   0.857499 0.099949 0.748028 0.197596
O45   O     O_R   0.844127 0.066879 0.671400 -0.351206
O46   O     O_R   0.869170 0.173101 0.781492 -0.251540
O47   O     O_3   0.870223 0.103369 0.879620 -0.683370
H16   H     H_    0.931278 0.086591 0.866224 0.388288
O48   O     O_3   0.974236 0.895570 0.778498 -0.683573
H17   H     H_    0.937946 0.920435 0.836160 0.399784
O49   O     O_3   0.827939 0.431395 0.073794 -0.689950
H18   H     H_    0.783780 0.474903 0.057303 0.341431
O50   O     O_3   0.507511 0.660211 0.380658 -0.655926
H19   H     H_    0.510385 0.719634 0.401195 0.390303
O51   O     O_3   0.598386 0.480949 0.295276 -0.715781
H20   H     H_    0.565170 0.483981 0.340363 0.377181
O52   O     O_3   0.610199 0.667262 0.488054 -0.621900
H21   H     H_    0.559198 0.675126 0.517960 0.396663
O53   O     O_3   0.695764 0.488451 0.408354 -0.691313
H22   H     H_    0.733038 0.424729 0.347063 0.340186
O54   O     O_3   0.838620 0.364606 0.799226 -0.652305
H23   H     H_    0.818230 0.409364 0.865339 0.356465
N8    N     N_R   0.567333 0.742095 0.910498 0.260411
O55   O     O_R   0.612324 0.711255 0.955796 -0.363557
O56   O     O_R   0.504339 0.839329 0.950744 -0.263289
N9    N     N_R   0.602928 0.677449 0.685589 0.214855
O57   O     O_R   0.529535 0.764247 0.710167 -0.272369
O58   O     O_R   0.636692 0.598326 0.602892 -0.312920
N10   N     N_R   0.672822 0.734480 0.795473 0.227230
O59   O     O_R   0.720385 0.724777 0.847094 -0.324607
O60   O     O_R   0.657797 0.799821 0.777739 -0.259397
N11   N     N_R   0.575157 0.186672 0.533635 0.265296
O61   O     O_R   0.606359 0.091269 0.472095 -0.287268
O62   O     O_R   0.630270 0.213381 0.547608 -0.249281
N12   N     N_R   0.503794 0.360658 0.712172 0.195151
O63   O     O_R   0.554603 0.295705 0.730319 -0.351634
O64   O     O_R   0.520919 0.423966 0.719029 -0.357802
O65   O     O_3   0.206496 0.638881 0.997303 -0.719230
H24   H     H_    0.223785 0.571775 0.983248 0.327027
N13   N     N_R   0.031527 0.804596 0.066007 0.267254
O66   O     O_R   0.953436 0.830187 0.100060 -0.282156
O67   O     O_R   0.071462 0.836959 0.119401 -0.233499
N14   N     N_R   0.134811 0.106804 0.179776 0.247271
O68   O     O_R   0.049204 0.155926 0.214980 -0.336238
O69   O     O_R   0.164241 0.106056 0.114953 -0.274448

loop_
_geom_bond_atom_site_label_1
_geom_bond_atom_site_label_2
_geom_bond_distance
_ccdc_geom_bond_type
O24   C64   1.272593 A    
C21   C28   1.498406 S    
N12   O63   1.300805 A    
Zn6   O19   1.932514 S    
C36   O38   1.405684 S    
N10   O59   1.302277 A    
Zn5   O14   1.956173 S    
C49   C50   1.392588 A    
O49   H18   0.990340 S    
C51   C52   1.539658 S    
O38   H13   0.992131 S    
O48   H17   0.993611 S    
C35   C36   1.537981 S    
O35   H12   0.992005 S    
C53   C54   1.391894 A    
C34   C35   1.498460 S    
N6    O44   1.300753 A    
C9    N11   1.440494 S    
C37   C42   1.379109 A    
O4    C3    1.279637 A    
Zn3   O13   1.944981 S    
Zn1   O1    1.956025 S    
C18   N13   1.439478 S    
C11   C12   1.422769 A    
C59   H9    1.112580 S    
N2    O29   1.300658 A    
C37   C44   1.501869 S    
C35   N4    1.468644 S    
C13   C14   1.425034 A    
C43   O47   1.405124 S    
C28   O34   1.410281 S    
C53   C58   1.369614 A    
C45   C50   1.376906 A    
O47   H16   0.992534 S    
O22   C66   1.279007 A    
O8    C5    1.278510 A    
C52   O52   1.401950 S    
O21   C65   1.276061 A    
O31   H10   0.992061 S    
C27   N3    1.466310 S    
C17   C18   1.408773 A    
C22   C23   1.417536 A    
C57   C62   1.454223 S    
N3    O32   1.301752 A    
C44   O48   1.409982 S    
Zn3   O8    1.932472 S    
N1    O28   1.301749 A    
O16   C62   1.286404 A    
N1    O27   1.301455 A    
C43   N7    1.469659 S    
O54   H23   0.991265 S    
O17   C63   1.285750 A    
C58   C59   1.505090 S    
C12   C16   1.426427 A    
C51   O51   1.402908 S    
O40   H15   0.991350 S    
C6    C16   1.456113 S    
O51   H20   0.991793 S    
N8    O56   1.300498 A    
N13   O66   1.301465 A    
C47   H7    1.083552 S    
Zn7   O14   1.945908 S    
Zn2   O12   1.944003 S    
C5    C46   1.447994 S    
Zn5   O22   1.932474 S    
C48   C49   1.424433 A    
N11   O62   1.301211 A    
C44   H6    1.112055 S    
O19   C65   1.282908 A    
C53   C60   1.503395 S    
C37   C38   1.392426 A    
N10   O60   1.301466 A    
Zn7   O26   1.945469 S    
C60   N9    1.465300 S    
C39   C40   1.407324 A    
C4    C30   1.453148 S    
C59   N8    1.467743 S    
C39   N5    1.436692 S    
C56   C57   1.425806 A    
N9    O58   1.300977 A    
C32   C33   1.407777 A    
N7    O45   1.302150 A    
C21   C26   1.380263 A    
O2    C1    1.279797 A    
Zn6   O17   1.944982 S    
C56   O54   1.375114 S    
C50   C51   1.500268 S    
C13   C66   1.450511 S    
C31   H4    1.083020 S    
C28   H3    1.112268 S    
O10   C3    1.277604 A    
C59   C60   1.542395 S    
Zn4   O2    1.941852 S    
C36   O40   1.406147 S    
C55   C56   1.397535 A    
C54   C55   1.405106 A    
C45   C46   1.392388 A    
C49   C65   1.454770 S    
N5    O42   1.301147 A    
C8    C9    1.386401 A    
C26   C27   1.503549 S    
C33   C61   1.455088 S    
C57   C58   1.393129 A    
O6    C5    1.278706 A    
C29   C36   1.500057 S    
C55   H8    1.083577 S    
C38   C39   1.417702 A    
C31   C32   1.398432 A    
C18   C19   1.404196 A    
O9    C6    1.279924 A    
Zn7   O18   1.944003 S    
C24   C25   1.420493 A    
Zn8   O24   1.941899 S    
C40   C41   1.419948 A    
Zn3   O5    1.942999 S    
C8    H1    1.083451 S    
C35   O35   1.405414 S    
N12   O64   1.301077 A    
Zn8   O15   1.942757 S    
N8    O55   1.301664 A    
Zn6   O14   1.949734 S    
O11   C4    1.280056 A    
C23   N14   1.434696 S    
C33   C34   1.397157 A    
C30   C31   1.408329 A    
C9    C10   1.407355 A    
C14   C17   1.437455 A    
O26   C62   1.273258 A    
C15   C20   1.416376 A    
C7    C8    1.399276 A    
Zn4   O7    1.935637 S    
O25   C61   1.280371 A    
O34   H11   0.993727 S    
O18   C64   1.283192 A    
C1    C38   1.450840 S    
N11   O61   1.301592 A    
C43   C44   1.534636 S    
O3    C2    1.284790 A    
C19   N1    1.439855 S    
N4    O36   1.302324 A    
Zn2   O1    1.945761 S    
Zn1   O9    1.932579 S    
C23   C24   1.406590 A    
C41   C64   1.454254 S    
Zn2   O6    1.934604 S    
C10   N12   1.432853 S    
O53   H22   0.993067 S    
C25   C26   1.395994 A    
Zn5   O23   1.941830 S    
C27   C28   1.533631 S    
C19   C20   1.394931 A    
Zn8   O20   1.935388 S    
Zn1   O3    1.941785 S    
C14   C15   1.406953 A    
Zn2   O4    1.945573 S    
N7    O46   1.301152 A    
Zn4   O1    1.950067 S    
Zn3   O1    1.949732 S    
Zn6   O25   1.942852 S    
C32   H5    1.083022 S    
N5    O41   1.301390 A    
C41   C42   1.394358 A    
C25   C63   1.456199 S    
N9    O57   1.301145 A    
C48   O49   1.377594 S    
N6    O43   1.301038 A    
C52   O53   1.410449 S    
O23   C63   1.276635 A    
C27   O31   1.402681 S    
Zn7   O21   1.934504 S    
C60   N10   1.473332 S    
C15   C16   1.415322 A    
Zn4   O11   1.942712 S    
C11   C13   1.431807 A    
O20   C66   1.280342 A    
C20   H2    1.080434 S    
C29   C34   1.380837 A    
O50   H19   0.992699 S    
C42   C43   1.501394 S    
C45   C52   1.502061 S    
O5    C4    1.278612 A    
Zn8   O14   1.950066 S    
C3    C54   1.448286 S    
C51   O50   1.408214 S    
Zn5   O16   1.940204 S    
O7    C6    1.280229 A    
O13   C2    1.275780 A    
O39   H14   0.992283 S    
C17   O65   1.375025 S    
C40   N6    1.433367 S    
C46   C47   1.405949 A    
N3    O33   1.300869 A    
O15   C61   1.279283 A    
N14   O68   1.301142 A    
C7    O39   1.383093 S    
C7    C12   1.433284 A    
C47   C48   1.400703 A    
O12   C1    1.274034 A    
C29   C30   1.396492 A    
C10   C11   1.440497 A    
N4    O37   1.300121 A    
C21   C22   1.391161 A    
Zn1   O10   1.940305 S    
N14   O69   1.300683 A    
O52   H21   0.991969 S    
C24   N2    1.434350 S    
C2    C22   1.452812 S    
N13   O67   1.300998 A    
N2    O30   1.300413 A    
O65   H24   0.991481 S    
