data_mof_unit_10672.cif
_audit_creation_date              2012-12-10T18:09:45-0500
_audit_creation_method            fapswitch 2.2
_symmetry_space_group_name_H-M    P1
_symmetry_Int_Tables_number       1
_space_group_crystal_system       triclinic
_cell_length_a                    10.713787
_cell_length_b                    12.607573
_cell_length_c                    13.205012
_cell_angle_alpha                 82.11367
_cell_angle_beta                  92.237536
_cell_angle_gamma                 102.701478
_cell_volume                      1723.48737532

loop_
_atom_site_label
_atom_site_type_symbol
_atom_type_description
_atom_site_fract_x
_atom_site_fract_y
_atom_site_fract_z
_atom_type_partial_charge
C1    C     C_R   0.487937 0.438858 0.691581 0.944111
C2    C     C_R   0.439993 0.461336 0.964745 0.024328
C3    C     C_R   0.510305 0.472531 0.873660 0.045123
C4    C     C_R   0.742047 0.501940 0.495255 0.858015
C5    C     C_R   0.480581 0.542682 0.030617 0.083465
C6    C     C_R   0.564801 0.643083 0.994301 0.175343
C7    C     C_R   0.632883 0.650768 0.905406 -0.286475
C8    C     C_R   0.621987 0.557884 0.856095 -0.120663
C9    C     C_R   0.457615 0.520682 0.135091 -0.212932
C10   C     C_R   0.570143 0.704273 0.160030 -0.141159
C11   C     C_R   0.465461 0.400504 0.800711 -0.059902
C12   C     C_3   0.121127 0.495966 0.499981 -0.094618
C13   C     C_R   0.314940 0.088226 0.349448 -0.220602
C14   C     C_R   0.650881 0.797543 0.631817 0.017214
C15   C     C_R   0.668980 0.895575 0.671856 -0.283024
C16   C     C_R   0.509294 0.560847 0.309018 0.868594
C17   C     C_R   0.600313 0.974440 0.631507 -0.004735
C18   C     C_R   0.524891 0.958931 0.540323 -0.041731
C19   C     C_R   0.505169 0.854310 0.506680 0.221151
C20   C     C_R   0.467627 0.039990 0.481522 -0.008627
C21   C     C_R   0.382840 0.011705 0.398495 0.091410
C22   C     C_R   0.367954 0.908244 0.365941 -0.082270
C23   C     C_3   0.093608 0.581466 0.407667 -0.265260
C24   C     C_R   0.424751 0.830138 0.423030 -0.260079
C25   C     C_R   0.497487 0.150830 0.496507 0.099766
C26   C     C_R   0.341053 0.193448 0.374834 0.059112
C27   C     C_R   0.258233 0.498313 0.501026 0.883584
C28   C     C_3   0.896775 0.383281 0.474201 -0.252999
C29   C     C_3   0.039128 0.378511 0.485149 -0.255849
C30   C     C_3   0.950331 0.589044 0.406191 -0.204452
C31   C     C_3   0.936775 0.522782 0.598562 -0.361781
C32   C     C_3   0.878877 0.500974 0.491917 -0.111333
C33   C     C_2   0.840748 0.342643 0.374747 0.938742
C34   C     C_3   0.082582 0.537084 0.598804 -0.200013
C35   C     C_2   0.936948 0.705528 0.413203 0.952782
C36   C     C_1   0.239396 0.359186 0.062314 0.149140
C37   C     C_2   0.737245 0.537667 0.807458 0.937166
C38   C     C_2   0.307411 0.883683 0.265954 0.910542
C39   C     C_2   0.595049 0.059137 0.697492 0.877445
C40   C     C_2   0.057176 0.284868 0.566803 0.980274
C41   C     C_1   0.131191 0.557527 0.308094 0.297033
C42   C     C_2   0.130893 0.491528 0.701536 0.982473
C43   C     C_R   0.598672 0.726896 0.056540 -0.157975
C44   C     C_R   0.508957 0.597919 0.200097 -0.056364
C45   C     C_R   0.372507 0.304841 0.827587 -0.139393
C46   C     C_R   0.308421 0.289256 0.919180 -0.128852
C47   C     C_R   0.334131 0.369580 0.984586 -0.012439
H1    H     H_    0.124651 0.626661 0.593291 0.186241
H2    H     H_    0.290094 0.253447 0.337542 0.138398
H3    H     H_    0.241205 0.067548 0.292757 0.184268
H4    H     H_    0.574493 0.184263 0.545328 0.146614
H5    H     H_    0.698352 0.734265 0.666055 0.138010
H6    H     H_    0.728924 0.906009 0.739372 0.171995
H7    H     H_    0.408539 0.751185 0.398277 0.218519
H8    H     H_    0.071381 0.357861 0.412413 0.159387
H9    H     H_    0.905080 0.569670 0.331875 0.175777
H10   H     H_    0.913565 0.597779 0.620568 0.260100
H11   H     H_    0.893592 0.452830 0.656115 0.252907
H12   H     H_    0.154746 0.662949 0.417801 0.194487
H13   H     H_    0.713268 0.228380 0.309193 0.353885
H14   H     H_    0.979695 0.838461 0.487917 0.356617
H15   H     H_    0.844587 0.695875 0.792400 0.297891
H16   H     H_    0.283795 0.936579 0.116513 0.357389
H17   H     H_    0.486233 0.137412 0.767645 0.349093
H18   H     H_    0.016668 0.203773 0.708504 0.365222
H19   H     H_    0.135397 0.492755 0.854279 0.352042
H20   H     H_    0.607129 0.765890 0.209630 0.185547
H21   H     H_    0.707207 0.723155 0.886315 0.133407
H22   H     H_    0.659005 0.805415 0.028014 0.156985
H23   H     H_    0.414846 0.438609 0.168744 0.165058
H24   H     H_    0.337402 0.248710 0.772587 0.192328
H25   H     H_    0.229473 0.218901 0.934181 0.164073
H26   H     H_    0.842253 0.323827 0.535835 0.194404
N1    N     N_R   0.433240 0.222190 0.444680 -0.109751
N2    N     N_R   0.566070 0.776970 0.554790 -0.122120
N3    N     N_1   0.162504 0.349273 0.124086 -0.150992
N4    N     N_1   0.161173 0.539811 0.230002 -0.131826
O1    O     O_R   0.468120 0.366740 0.627160 -0.593981
O2    O     O_R   0.742758 0.248484 0.379319 -0.804811
O3    O     O_2   0.875221 0.750925 0.347814 -0.615718
O4    O     O_R   0.996067 0.761740 0.492529 -0.815920
O5    O     O_2   0.738370 0.444602 0.792047 -0.598105
O6    O     O_R   0.849907 0.617923 0.787943 -0.756184
O7    O     O_2   0.244565 0.792130 0.257083 -0.652882
O8    O     O_R   0.328191 0.963764 0.180239 -0.799558
O9    O     O_2   0.693087 0.106753 0.736699 -0.588498
O10   O     O_R   0.477177 0.081120 0.718530 -0.796284
O11   O     O_2   0.117800 0.218774 0.546908 -0.606202
O12   O     O_R   0.510770 0.544830 0.662520 -0.629075
O13   O     O_R   0.998685 0.269891 0.662169 -0.767530
O14   O     O_2   0.201435 0.427051 0.707848 -0.656843
O15   O     O_R   0.096877 0.527286 0.790114 -0.722999
O16   O     O_R   0.663880 0.410950 0.482330 -0.610451
O17   O     O_R   0.706530 0.589040 0.517700 -0.610897
O18   O     O_R   0.489230 0.455170 0.337480 -0.624713
O19   O     O_R   0.531880 0.633260 0.372840 -0.631606
O20   O     O_R   0.293470 0.410960 0.482300 -0.599166
O21   O     O_R   0.336120 0.589050 0.517670 -0.647451
O22   O     O_2   0.883531 0.388340 0.291726 -0.622272
Zn1   Zn    Zn3+2 0.471520 0.381090 0.476390 1.011268
Zn2   Zn    Zn3+2 0.528480 0.618910 0.523610 0.970633

loop_
_geom_bond_atom_site_label_1
_geom_bond_atom_site_label_2
_ccdc_geom_bond_type
H15   O6    S    
H13   O2    S    
C12   C29   S    
C45   H24   S    
C34   C42   S    
C39   O10   S    
C35   O4    S    
C7    C8    A    
C27   O21   A    
C10   H20   S    
C23   H12   S    
C12   C23   S    
C30   C35   S    
C15   H6    S    
C31   H11   S    
C28   C29   S    
C25   N1    A    
C41   N4    T    
C5    C6    A    
C20   C25   A    
C24   H7    S    
C22   C38   S    
C35   O3    D    
C36   C47   S    
C42   O14   D    
C17   C39   S    
C36   N3    T    
C7    H21   S    
C14   H5    S    
O17   Zn2   S    
C9    C44   A    
C1    C11   S    
C16   C44   S    
H17   O10   S    
C46   H25   S    
C38   O7    D    
C43   H22   S    
C21   C22   A    
H16   O8    S    
C1    O1    A    
C28   H26   S    
H18   O13   S    
C16   O19   A    
C38   O8    S    
C10   C44   A    
C23   C30   S    
C28   C32   S    
C9    H23   S    
C3    C8    A    
C26   H2    S    
O18   Zn1   S    
C18   C19   A    
H19   O15   S    
C12   C27   S    
C45   C46   A    
C30   H9    S    
C4    O16   A    
C33   O22   D    
C25   H4    S    
C5    C9    A    
C31   C32   S    
C17   C18   A    
C31   C34   S    
C13   C21   A    
O16   Zn1   S    
C4    C32   S    
C4    O17   A    
C28   C33   S    
C6    C43   A    
O1    Zn1   S    
C22   C24   A    
C37   O5    D    
C11   C45   A    
C2    C5    A    
C34   H1    S    
C8    C37   S    
C12   C34   S    
O20   Zn1   S    
C15   C17   A    
C46   C47   A    
C27   O20   A    
C16   O18   A    
C1    O12   A    
C42   O15   S    
O12   Zn2   S    
C10   C43   A    
C33   O2    S    
N1    Zn1   S    
C6    C7    A    
C2    C47   A    
O21   Zn2   S    
C29   H8    S    
C23   C41   S    
C14   N2    A    
C31   H10   S    
C19   N2    A    
C2    C3    A    
H14   O4    S    
C30   C32   S    
C40   O11   D    
C29   C40   S    
C26   N1    A    
C19   C24   A    
C18   C20   A    
C13   C26   A    
C3    C11   A    
C13   H3    S    
C20   C21   A    
N2    Zn2   S    
C14   C15   A    
C37   O6    S    
C39   O9    D    
C40   O13   S    
O19   Zn2   S    
