data_mof_unit_27127.cif
_audit_creation_date              2013-03-05T16:48:39-0500
_audit_creation_method            fapswitch 2.2
_symmetry_space_group_name_H-M    P1
_symmetry_Int_Tables_number       1
_space_group_crystal_system       triclinic
_cell_length_a                    27.743623
_cell_length_b                    9.027758
_cell_length_c                    8.106003
_cell_angle_alpha                 90.001318
_cell_angle_beta                  90.00115
_cell_angle_gamma                 90.086286
_cell_volume                      2030.24921181

loop_
_atom_site_label
_atom_site_type_symbol
_atom_site_description
_atom_site_fract_x
_atom_site_fract_y
_atom_site_fract_z
_atom_type_partial_charge
O1    O     O_R   0.500000 0.285350 0.636850 -0.614316
O2    O     O_R   0.500000 0.714650 0.363150 -0.614423
O3    O     O_R   0.500000 0.714650 0.636850 -0.614302
O4    O     O_R   0.500000 0.285350 0.363150 -0.614447
C1    C     C_R   0.499995 0.217828 0.499999 0.933769
C2    C     C_R   0.500005 0.782173 0.500001 0.933801
O5    O     O_R   0.428760 0.500000 0.636860 -0.616879
O6    O     O_R   0.571240 0.500000 0.363140 -0.616224
O7    O     O_R   0.571240 0.500000 0.636860 -0.616924
O8    O     O_R   0.428760 0.500000 0.363140 -0.616155
C3    C     C_R   0.405863 0.500688 0.500131 0.933193
C4    C     C_R   0.594137 0.499301 0.500134 0.933132
Zn1   Zn    Zn3+2 0.500000 0.500000 0.682780 1.027892
Zn2   Zn    Zn3+2 0.500000 0.500000 0.317220 1.027645
C5    C     C_R   0.177396 0.373013 0.536105 0.672625
C6    C     C_R   0.822606 0.626574 0.536221 0.672179
C7    C     C_R   0.176480 0.635575 0.505762 0.683312
C8    C     C_R   0.823515 0.364008 0.505906 0.683725
O9    O     O_2   0.202245 0.247135 0.563953 -0.465858
O10   O     O_2   0.797761 0.752457 0.564087 -0.466012
O11   O     O_2   0.200152 0.763016 0.473792 -0.480943
O12   O     O_2   0.799838 0.236564 0.473993 -0.480799
N1    N     N_R   0.201166 0.504920 0.517790 -0.330181
N2    N     N_R   0.798833 0.494673 0.517909 -0.330243
C9    C     C_R   0.279510 0.571192 0.641669 0.460425
C10   C     C_R   0.720470 0.428526 0.641720 0.460481
C11   C     C_R   0.277028 0.441082 0.375330 0.437870
C12   C     C_R   0.722990 0.558573 0.375358 0.439341
C13   C     C_R   0.329574 0.568712 0.635154 -0.239551
C14   C     C_R   0.670408 0.431136 0.635189 -0.239893
C15   C     C_R   0.327257 0.441806 0.372014 -0.252788
C16   C     C_R   0.672761 0.557977 0.372023 -0.252870
C17   C     C_R   0.252738 0.506160 0.511309 -0.000115
C18   C     C_R   0.747261 0.493472 0.511366 -0.000387
C19   C     C_R   0.101393 0.502061 0.527679 -0.060781
C20   C     C_R   0.898606 0.497515 0.527758 -0.060828
C21   C     C_R   0.127174 0.368605 0.524455 -0.058910
C22   C     C_R   0.872827 0.630974 0.524546 -0.058873
C23   C     C_R   0.126531 0.636981 0.527316 -0.044093
C24   C     C_R   0.873466 0.362598 0.527425 -0.044265
C25   C     C_R   0.102653 0.235689 0.499430 -0.286693
C26   C     C_R   0.897346 0.763885 0.499497 -0.286664
C27   C     C_R   0.101730 0.768311 0.557505 -0.272053
C28   C     C_R   0.898270 0.231268 0.557596 -0.272086
C29   C     C_R   0.353422 0.504125 0.501730 -0.188509
C30   C     C_R   0.646578 0.495763 0.501751 -0.188677
H1    H     H_    0.346116 0.390715 0.269795 0.212545
H2    H     H_    0.653916 0.609084 0.269783 0.212428
H3    H     H_    0.350207 0.618722 0.734078 0.217783
H4    H     H_    0.649760 0.381184 0.734109 0.217608
H5    H     H_    0.122738 0.134442 0.479454 0.193517
H6    H     H_    0.877262 0.865133 0.479530 0.193534
H7    H     H_    0.121533 0.870497 0.575921 0.190731
H8    H     H_    0.878467 0.129084 0.576029 0.190720
C31   C     C_R   0.974807 0.363310 0.541591 0.042839
C32   C     C_R   0.025193 0.636262 0.541571 0.042831
C33   C     C_R   0.974368 0.635483 0.521595 0.046411
C34   C     C_R   0.025631 0.364088 0.521580 0.046415
C35   C     C_R   0.949430 0.498836 0.530612 -0.089107
C36   C     C_R   0.050570 0.500736 0.530574 -0.089122
C37   C     C_R   0.948362 0.233436 0.580040 0.502568
C38   C     C_R   0.051640 0.766139 0.579999 0.502562
C39   C     C_R   0.947645 0.764651 0.482839 0.497665
C40   C     C_R   0.052353 0.234919 0.482809 0.497700
C41   C     C_1   0.499998 0.064987 0.499999 -0.157171
C42   C     C_1   0.500001 0.935013 0.500003 -0.157160
N3    N     N_1   0.500000 0.500000 0.073640 -0.020109
N4    N     N_1   0.500000 0.500000 0.926360 -0.020146
S1    S     S_3+6 0.246170 0.354519 0.209275 0.084260
O13   O     O_2   0.276668 0.357570 0.056143 -0.220015
O14   O     O_2   0.236502 0.195520 0.253298 -0.229052
O15   O     O_3   0.193604 0.440817 0.171949 -0.539549
H9    H     H_    0.173980 0.368209 0.109513 0.395190
S2    S     S_3+6 0.753879 0.644998 0.209290 0.085207
O16   O     O_2   0.723375 0.642069 0.056167 -0.219147
O17   O     O_2   0.763620 0.803960 0.253298 -0.230022
O18   O     O_3   0.806405 0.558472 0.171964 -0.538591
H10   H     H_    0.826065 0.631005 0.109562 0.394935
S3    S     S_3+6 0.252266 0.656840 0.815254 0.098740
O19   O     O_2   0.241087 0.815522 0.774809 -0.213777
O20   O     O_2   0.206466 0.577901 0.860881 -0.269758
O21   O     O_3   0.290383 0.654528 0.976622 -0.518803
H11   H     H_    0.272061 0.699236 0.068958 0.408712
S4    S     S_3+6 0.747683 0.342763 0.815289 0.098590
O22   O     O_2   0.758739 0.184003 0.774794 -0.215247
O23   O     O_2   0.793543 0.421378 0.860895 -0.268632
O24   O     O_3   0.709587 0.345370 0.976703 -0.518657
H12   H     H_    0.727444 0.296968 0.067876 0.408070
O25   O     O_3   0.971063 0.116883 0.657208 -0.677190
H13   H     H_    0.946683 0.042496 0.691475 0.359083
O26   O     O_3   0.028946 0.882691 0.657193 -0.677186
H14   H     H_    0.053328 0.957080 0.691439 0.359090
O27   O     O_3   0.970425 0.883536 0.410030 -0.678866
H15   H     H_    0.946032 0.957233 0.374690 0.356399
O28   O     O_3   0.029569 0.116029 0.410019 -0.678864
H16   H     H_    0.053961 0.042334 0.374658 0.356396

loop_
_geom_bond_atom_site_label_1
_geom_bond_atom_site_label_2
_geom_bond_distance
_ccdc_geom_bond_type
O5    Zn1   2.011194 S    
O24   H12   0.991577 S    
O27   H15   0.992012 S    
C31   C35   1.415340 A    
C19   C23   1.402644 A    
O28   H16   0.992010 S    
S4    O24   1.682174 S    
C20   C35   1.410258 A    
C12   S2    1.775768 S    
C13   H3    1.083383 S    
O18   H10   0.990497 S    
C11   C17   1.419660 A    
C5    O9    1.349077 S    
C7    N1    1.368316 A    
S2    O17   1.502836 D    
C8    N2    1.368321 A    
C19   C21   1.402298 A    
S4    O23   1.502139 D    
C22   C26   1.393305 A    
C33   C35   1.415376 A    
C34   C36   1.415377 A    
C32   C33   1.419334 A    
C7    C23   1.396803 A    
S1    O14   1.502841 D    
C8    C24   1.396830 A    
C5    C21   1.397034 A    
C20   C24   1.402646 A    
O7    Zn1   2.011206 S    
C27   H7    1.083347 S    
C37   O25   1.377342 S    
N1    C17   1.431800 S    
S2    O18   1.681900 S    
O6    Zn2   2.011191 S    
Zn2   N3    1.974460 S    
C11   S1    1.775773 S    
C6    O10   1.349079 S    
O3    C2    1.265760 A    
C5    N1    1.368443 A    
C14   H4    1.083381 S    
C12   C18   1.419673 A    
C6    N2    1.368433 A    
C15   H1    1.083422 S    
C34   C40   1.418025 A    
C16   H2    1.083417 S    
O2    C2    1.265757 A    
C10   C18   1.418278 A    
C33   C39   1.418020 A    
C9    C13   1.390153 A    
S2    O16   1.502470 D    
C11   C15   1.393778 A    
N3    N4    1.193851 T    
C12   C16   1.393793 A    
S4    O22   1.502447 D    
C1    C41   1.379804 S    
O8    Zn2   2.011209 S    
O26   H14   0.992100 S    
S3    O20   1.502174 D    
O4    C1    1.265764 A    
C23   C27   1.393362 A    
C7    O11   1.349028 S    
C32   C36   1.415335 A    
C13   C29   1.395923 A    
C19   C36   1.410251 A    
S1    O15   1.681900 S    
O5    C3    1.277483 A    
C2    C42   1.379803 S    
O6    C4    1.279349 A    
C38   O26   1.377343 S    
C4    C30   1.455352 S    
C10   C14   1.390147 A    
O1    C1    1.265752 A    
C3    C29   1.455344 S    
O1    Zn1   1.973242 S    
C10   S4    1.775033 S    
C9    S3    1.775054 S    
C16   C30   1.395625 A    
C14   C30   1.395924 A    
C40   O28   1.377542 S    
O15   H9    0.990507 S    
O3    Zn1   1.973257 S    
S3    O21   1.682183 S    
C28   C37   1.401718 A    
C39   O27   1.377547 S    
C8    O12   1.349020 S    
O4    Zn2   1.973258 S    
C31   C37   1.416876 A    
C20   C22   1.402293 A    
C32   C38   1.416871 A    
C41   C42   1.173382 T    
C21   C25   1.393309 A    
S1    O13   1.502485 D    
O2    Zn2   1.973241 S    
O7    C4    1.277480 A    
N2    C18   1.431800 S    
C9    C17   1.418309 A    
O8    C3    1.279342 A    
S3    O19   1.502399 D    
C28   H8    1.083347 S    
C24   C28   1.393369 A    
O21   H11   0.991025 S    
C15   C29   1.395633 A    
C31   C34   1.419354 A    
C6    C22   1.397011 A    
C25   C40   1.402000 A    
O25   H13   0.992099 S    
C26   C39   1.401984 A    
C25   H5    1.083375 S    
C27   C38   1.401700 A    
C26   H6    1.083374 S    
Zn1   N4    1.974460 S    
