data_mof_unit_10112.cif
_audit_creation_date              2012-12-10T19:06:24-0500
_audit_creation_method            fapswitch 2.2
_symmetry_space_group_name_H-M    P1
_symmetry_Int_Tables_number       1
_space_group_crystal_system       triclinic
_cell_length_a                    23.515767
_cell_length_b                    10.855843
_cell_length_c                    9.539278
_cell_angle_alpha                 90.518946
_cell_angle_beta                  89.989471
_cell_angle_gamma                 90.619302
_cell_volume                      2434.97788998

loop_
_atom_site_label
_atom_site_type_symbol
_atom_type_description
_atom_site_fract_x
_atom_site_fract_y
_atom_site_fract_z
_atom_type_partial_charge
C1    C     C_R   0.501112 0.262208 0.498823 0.888260
C2    C     C_R   0.968998 0.341502 0.660034 -0.132592
C3    C     C_R   0.028295 0.340501 0.658338 -0.144384
C4    C     C_R   0.058921 0.425424 0.576692 -0.022749
C5    C     C_R   0.029389 0.512240 0.496442 -0.010344
C6    C     C_R   0.059711 0.597769 0.414208 -0.023675
C7    C     C_R   0.029794 0.684139 0.334846 -0.141177
C8    C     C_R   0.970458 0.685373 0.336794 -0.132683
C9    C     C_R   0.118534 0.425934 0.573164 0.554084
C10   C     C_R   0.119367 0.594931 0.414244 0.556410
C11   C     C_R   0.237463 0.546057 0.616714 -0.119350
C12   C     C_R   0.390837 0.502835 0.500448 0.857352
C13   C     C_R   0.296781 0.545422 0.621190 0.353094
C14   C     C_R   0.327991 0.507731 0.501153 -0.143248
C15   C     C_R   0.298124 0.474462 0.378437 -0.219657
C16   C     C_R   0.238886 0.475714 0.375424 -0.084252
C17   C     C_R   0.208405 0.510755 0.494798 0.271435
C18   C     C_R   0.761991 0.424068 0.404433 -0.089104
C19   C     C_R   0.701808 0.417057 0.406717 -0.115787
C20   C     C_R   0.671287 0.495182 0.499155 -0.144559
C21   C     C_R   0.700493 0.576422 0.588864 -0.237881
C22   C     C_R   0.759495 0.583926 0.586341 0.449661
C23   C     C_R   0.499763 0.737429 0.500391 0.829626
C24   C     C_R   0.790455 0.508875 0.494216 0.187877
C25   C     C_R   0.485646 0.064777 0.617524 0.032707
C26   C     C_R   0.499249 0.128459 0.494900 -0.177431
C27   C     C_R   0.506966 0.060044 0.368739 0.439030
C28   C     C_R   0.504324 0.932204 0.371884 -0.226001
C29   C     C_R   0.496862 0.870158 0.498816 -0.168691
C30   C     C_R   0.484788 0.937844 0.619688 0.124215
C31   C     C_3   0.511245 0.933345 0.761770 -0.370831
C32   C     C_3   0.512187 0.073191 0.759871 -0.369124
C33   C     C_R   0.531839 0.584905 0.074717 0.119923
C34   C     C_R   0.608862 0.497895 0.499831 0.858424
C35   C     C_R   0.464174 0.424823 0.072022 0.491694
C36   C     C_R   0.464453 0.425092 0.923651 -0.047025
C37   C     C_R   0.532020 0.584322 0.927071 0.235790
C38   C     C_3   0.595072 0.600313 0.920429 -0.505316
C39   C     C_3   0.595035 0.600985 0.080012 -0.245482
C40   C     C_R   0.880150 0.598436 0.420181 0.662154
C41   C     C_R   0.879522 0.429123 0.578742 0.592193
C42   C     C_R   0.939114 0.427426 0.580099 -0.021045
C43   C     C_R   0.969390 0.513374 0.498290 -0.010625
C44   C     C_R   0.939811 0.600174 0.418013 -0.029803
Cu1   Cu    Cu3+1 0.500000 0.499980 0.640670 0.995665
Cu2   Cu    Cu3+1 0.500000 0.500020 0.359330 1.048452
H1    H     H_    0.946694 0.274549 0.723807 0.200685
H2    H     H_    0.677189 0.636343 0.659288 0.173796
H3    H     H_    0.511497 0.881537 0.275375 0.223775
H4    H     H_    0.481695 0.894680 0.841433 0.226294
H5    H     H_    0.554375 0.892279 0.760316 0.204626
H6    H     H_    0.483190 0.115161 0.838557 0.231420
H7    H     H_    0.555882 0.113404 0.757684 0.217063
H8    H     H_    0.050014 0.272922 0.721051 0.196484
H9    H     H_    0.436605 0.362924 0.865957 0.178488
H10   H     H_    0.616683 0.518333 0.875669 0.225860
H11   H     H_    0.607584 0.689142 0.871474 0.209093
H12   H     H_    0.616824 0.520013 0.124742 0.198252
H13   H     H_    0.052101 0.750975 0.270929 0.195868
H14   H     H_    0.948719 0.752970 0.274149 0.198033
H15   H     H_    0.213608 0.574799 0.708288 0.181670
H16   H     H_    0.320485 0.446182 0.284635 0.229245
H17   H     H_    0.216603 0.448468 0.280577 0.173263
N1    N     N_R   0.851464 0.512992 0.498633 -0.450320
N2    N     N_R   0.147416 0.510035 0.493131 -0.461648
N3    N     N_R   0.500360 0.500930 0.147930 -0.233106
N4    N     N_R   0.500360 0.500890 0.852020 -0.213726
O1    O     O_R   0.500000 0.319640 0.618810 -0.605644
O2    O     O_2   0.849723 0.347334 0.656035 -0.495934
O3    O     O_2   0.147483 0.342737 0.648549 -0.513507
O4    O     O_2   0.149142 0.677047 0.337365 -0.511601
O5    O     O_R   0.500010 0.319680 0.381230 -0.484415
O6    O     O_R   0.417880 0.499940 0.618820 -0.537080
O7    O     O_R   0.417880 0.499980 0.381240 -0.551180
O8    O     O_R   0.499990 0.680320 0.618770 -0.573249
O9    O     O_R   0.500000 0.680360 0.381190 -0.591978
O10   O     O_R   0.582120 0.500020 0.618760 -0.594450
O11   O     O_R   0.582120 0.500060 0.381180 -0.576898
O12   O     O_2   0.850948 0.680275 0.343527 -0.477913
C45   C     C_2   0.671078 0.327589 0.314479 0.930797
O13   O     O_2   0.634366 0.260070 0.363617 -0.565628
O14   O     O_R   0.684393 0.320214 0.171810 -0.735595
H18   H     H_    0.660387 0.256327 0.120147 0.363469
Cl1   Cl    Cl    0.794211 0.687336 0.701685 -0.521612
Cl2   Cl    Cl    0.526430 0.124616 0.206108 -0.525691
Cl3   Cl    Cl    0.416716 0.322146 0.153280 -0.563601
C46   C     C_2   0.613337 0.721754 0.145844 0.930445
O15   O     O_2   0.594452 0.819119 0.103238 -0.580712
O16   O     O_R   0.652299 0.721492 0.256381 -0.741255
H19   H     H_    0.661155 0.807387 0.293459 0.353233
Cl4   Cl    Cl    0.328872 0.597626 0.778316 -0.572079
C47   C     C_2   0.795661 0.339021 0.314673 0.936558
O17   O     O_2   0.835641 0.378490 0.245816 -0.560976
O18   O     O_R   0.781962 0.213374 0.310195 -0.711965
H20   H     H_    0.807958 0.165077 0.245722 0.358125

loop_
_geom_bond_atom_site_label_1
_geom_bond_atom_site_label_2
_ccdc_geom_bond_type
C46   O15   D    
C12   O7    A    
C41   C42   A    
C19   C20   A    
C39   C46   S    
C23   O9    A    
Cu2   O9    S    
C36   N4    A    
C7    C8    A    
Cu1   Cu2   S    
C26   C27   A    
C29   C30   A    
C18   C24   A    
C5    C6    A    
C23   C29   S    
C21   C22   A    
C28   C29   A    
Cu2   N3    S    
C34   O10   A    
C30   C31   S    
C35   Cl3   S    
C15   C16   A    
C1    O1    A    
Cu1   O6    S    
C18   C19   A    
C27   Cl2   S    
C32   H6    S    
C35   C36   A    
C16   C17   A    
Cu1   N4    S    
C16   H17   S    
Cu2   O5    S    
C21   H2    S    
C20   C34   S    
C10   O4    S    
C25   C32   S    
C5    C43   A    
C24   N1    S    
C12   O6    A    
C13   Cl4   S    
O18   H20   S    
C7    H13   S    
C33   N3    A    
C1    O5    A    
C9    O3    S    
C45   O14   S    
C23   O8    A    
Cu2   O11   S    
C4    C5    A    
C35   N3    A    
C25   C26   A    
C39   H12   S    
C33   C37   A    
C22   Cl1   S    
C43   C44   A    
C37   C38   S    
C38   H11   S    
C28   H3    S    
C31   C32   S    
Cu1   O1    S    
C47   O18   S    
C40   O12   S    
C33   C39   S    
C12   C14   S    
C46   O16   S    
C1    C26   S    
C22   C24   A    
C42   C43   A    
C31   H4    S    
C3    C4    A    
C32   H7    S    
Cu2   O7    S    
C41   O2    S    
C10   N2    A    
C25   C30   A    
C11   C17   A    
C8    C44   A    
C31   H5    S    
C45   O13   D    
C11   H15   S    
C6    C10   A    
C6    C7    A    
C2    H1    S    
C17   N2    S    
C40   N1    A    
Cu1   O8    S    
C18   C47   S    
C2    C3    A    
C4    C9    A    
C36   H9    S    
C34   O11   A    
C11   C13   A    
C38   C39   S    
C2    C42   A    
C37   N4    A    
C47   O17   D    
C3    H8    S    
C15   H16   S    
C19   C45   S    
C9    N2    A    
C40   C44   A    
C38   H10   S    
C20   C21   A    
O14   H18   S    
C27   C28   A    
C14   C15   A    
Cu1   O10   S    
C41   N1    A    
O16   H19   S    
C13   C14   A    
C8    H14   S    
