data_mof_unit_39760.cif
_audit_creation_date              2012-12-10T18:06:47-0500
_audit_creation_method            fapswitch 2.2
_symmetry_space_group_name_H-M    P1
_symmetry_Int_Tables_number       1
_space_group_crystal_system       triclinic
_cell_length_a                    12.693345
_cell_length_b                    13.066627
_cell_length_c                    15.318508
_cell_angle_alpha                 85.532289
_cell_angle_beta                  99.423799
_cell_angle_gamma                 96.384513
_cell_volume                      2486.26086538

loop_
_atom_site_label
_atom_site_type_symbol
_atom_type_description
_atom_site_fract_x
_atom_site_fract_y
_atom_site_fract_z
_atom_type_partial_charge
C1    C     C_R   0.443110 0.308424 0.507860 0.844301
C2    C     C_R   0.675737 0.580480 0.927500 -0.043997
C3    C     C_R   0.564821 0.564140 0.894364 0.023315
C4    C     C_R   0.435953 0.515407 0.335869 0.832385
C5    C     C_R   0.751351 0.556114 0.876970 -0.246261
C6    C     C_R   0.718099 0.514937 0.793553 0.527362
C7    C     C_R   0.533241 0.522093 0.812191 -0.309996
C8    C     C_R   0.602400 0.928009 0.342049 -0.204378
C9    C     C_R   0.573228 0.799371 0.460173 -0.060757
C10   C     C_R   0.340697 0.161478 0.576820 -0.285772
C11   C     C_R   0.311624 0.056297 0.588986 -0.213086
C12   C     C_R   0.445647 0.585411 0.095175 0.128396
C13   C     C_R   0.354608 0.986547 0.543651 0.490350
C14   C     C_R   0.431574 0.024073 0.487612 -0.052219
C15   C     C_R   0.442051 0.129707 0.461840 0.011892
C16   C     C_R   0.554195 0.691495 0.487590 0.907902
C17   C     C_R   0.497101 0.960849 0.454858 0.067092
C18   C     C_R   0.544116 0.994415 0.378604 0.160089
C19   C     C_R   0.531780 0.093597 0.340610 -0.239114
C20   C     C_R   0.485419 0.162501 0.384150 -0.144443
C21   C     C_R   0.520542 0.867110 0.498608 -0.229765
C22   C     C_R   0.615614 0.829699 0.382156 -0.200039
C23   C     C_R   0.334591 0.576356 0.060082 0.171064
C24   C     C_R   0.406536 0.198748 0.513652 -0.102054
C25   C     C_R   0.144752 0.646676 0.625403 -0.212541
C26   C     C_R   0.759525 0.370872 0.401080 0.539423
C27   C     C_R   0.854746 0.323659 0.403716 0.310744
C28   C     C_R   0.565379 0.489707 0.664607 0.915383
C29   C     C_R   0.951242 0.374190 0.441666 -0.297570
C30   C     C_R   0.953154 0.464624 0.486050 -0.133111
C31   C     C_R   0.854228 0.496214 0.499328 -0.122290
C32   C     C_R   0.050245 0.519241 0.523672 -0.040018
C33   C     C_R   0.049040 0.597379 0.582614 -0.109044
C34   C     C_R   0.522730 0.600127 0.037166 -0.025334
C35   C     C_R   0.952502 0.624224 0.599268 0.489626
C36   C     C_R   0.857113 0.575153 0.558803 0.612564
C37   C     C_R   0.149574 0.500507 0.503840 0.007561
C38   C     C_R   0.240375 0.621337 0.605932 -0.004536
C39   C     C_R   0.399683 0.538430 0.241693 -0.056473
C40   C     C_R   0.607696 0.504412 0.758800 -0.171666
C41   C     C_R   0.257690 0.555924 0.116790 -0.196923
C42   C     C_R   0.290109 0.536111 0.207239 -0.190305
C43   C     C_R   0.476191 0.567314 0.186536 -0.264954
C44   C     C_3   0.253280 0.851741 0.472324 0.085860
C45   C     C_R   0.488007 0.584004 0.946555 0.089899
C46   C     C_3   0.135702 0.870408 0.469884 -0.367412
C47   C     C_3   0.063651 0.818136 0.392798 -0.925118
C48   C     C_3   0.671987 0.315026 0.262665 0.049447
C49   C     C_3   0.734331 0.401078 0.211356 -0.361011
C50   C     C_3   0.726128 0.376181 0.114568 -0.910503
C51   C     C_3   0.835394 0.153155 0.443651 0.078237
C52   C     C_3   0.863758 0.048136 0.422681 -0.356940
C53   C     C_3   0.845584 0.966911 0.497464 -0.873414
C54   C     C_3   0.854034 0.412982 0.787319 0.043495
C55   C     C_3   0.973529 0.451639 0.799141 -0.302569
C56   C     C_R   0.377469 0.584569 0.912311 -0.202648
C57   C     C_3   0.042237 0.371795 0.851062 -0.973276
C58   C     C_R   0.302003 0.583056 0.968658 -0.237903
C59   C     C_R   0.633351 0.625099 0.066855 -0.322489
C60   C     C_R   0.708815 0.617899 0.011739 0.623326
F1    F     F_    0.949816 0.698130 0.656503 -0.636274
F2    F     F_    0.771366 0.604566 0.585832 -0.584233
F3    F     F_    0.814594 0.640249 0.043443 -0.682450
H1    H     H_    0.217595 0.580065 0.940733 0.156979
H2    H     H_    0.315827 0.658555 0.637638 0.159055
H3    H     H_    0.449392 0.501637 0.788484 0.179852
H4    H     H_    0.145898 0.704553 0.672589 0.202657
H5    H     H_    0.158305 0.447766 0.455347 0.120878
H6    H     H_    0.022837 0.337105 0.440533 0.177917
H7    H     H_    0.172692 0.550502 0.090714 0.155571
H8    H     H_    0.229618 0.516547 0.249759 0.162088
H9    H     H_    0.559523 0.570173 0.215669 0.150321
H10   H     H_    0.347430 0.586487 0.842108 0.145455
H11   H     H_    0.663080 0.650710 0.132522 0.167721
H12   H     H_    0.836310 0.568148 0.902249 0.199139
H13   H     H_    0.258358 0.767945 0.469249 0.194763
H14   H     H_    0.282660 0.888865 0.411600 0.131029
H15   H     H_    0.108389 0.839751 0.532962 0.257228
H16   H     H_    0.128140 0.954667 0.462433 0.213296
H17   H     H_    0.089743 0.847542 0.328929 0.268889
H18   H     H_    0.979499 0.834742 0.390913 0.264399
H19   H     H_    0.066639 0.733209 0.400893 0.267966
H20   H     H_    0.588910 0.304183 0.225862 0.158561
H21   H     H_    0.705456 0.240500 0.261520 0.188896
H22   H     H_    0.702195 0.475772 0.214856 0.222305
H23   H     H_    0.653975 0.776100 0.350254 0.152552
H24   H     H_    0.820627 0.409053 0.240334 0.223357
H25   H     H_    0.749870 0.297670 0.110150 0.258219
H26   H     H_    0.781211 0.432053 0.081173 0.288662
H27   H     H_    0.642721 0.380642 0.079593 0.258633
H28   H     H_    0.749014 0.146969 0.450978 0.168694
H29   H     H_    0.885319 0.174130 0.508072 0.136780
H30   H     H_    0.813817 0.023928 0.359856 0.228817
H31   H     H_    0.949412 0.054239 0.413666 0.229423
H32   H     H_    0.902926 0.985131 0.558491 0.265631
H33   H     H_    0.858106 0.889703 0.477973 0.274476
H34   H     H_    0.561728 0.118520 0.279548 0.133206
H35   H     H_    0.762396 0.964171 0.511966 0.275966
H36   H     H_    0.839991 0.346499 0.744394 0.157395
H37   H     H_    0.831575 0.382852 0.852804 0.118625
H38   H     H_    0.998603 0.468353 0.733022 0.226466
H39   H     H_    0.987842 0.524023 0.834734 0.237062
H40   H     H_    0.021207 0.355791 0.918744 0.269739
H41   H     H_    0.128305 0.401859 0.857011 0.267486
H42   H     H_    0.029986 0.298944 0.816218 0.268685
H43   H     H_    0.635653 0.951297 0.281935 0.138655
H44   H     H_    0.494319 0.843359 0.561499 0.198306
H45   H     H_    0.311071 0.213848 0.616403 0.181428
H46   H     H_    0.255925 0.028652 0.634114 0.168284
H47   H     H_    0.479849 0.240254 0.355303 0.184337
N1    N     N_R   0.239390 0.551900 0.544730 -0.117993
N2    N     N_R   0.759950 0.448600 0.455730 -0.150940
O1    O     O_R   0.374950 0.371210 0.521360 -0.619426
O2    O     O_3   0.662884 0.336804 0.350563 -0.631637
O3    O     O_3   0.854751 0.226663 0.373826 -0.651456
O4    O     O_3   0.793148 0.492041 0.743648 -0.582033
O5    O     O_R   0.542050 0.338030 0.492790 -0.580805
O6    O     O_R   0.368720 0.526070 0.390200 -0.623878
O7    O     O_R   0.535820 0.492890 0.361630 -0.582523
O8    O     O_R   0.457950 0.661970 0.507210 -0.626799
O9    O     O_R   0.625050 0.628790 0.478640 -0.547108
O10   O     O_R   0.464180 0.507110 0.638370 -0.635830
O11   O     O_R   0.631280 0.473930 0.609800 -0.504445
O12   O     O_3   0.316698 0.883283 0.552637 -0.676355
Zn1   Zn    Zn3+2 0.388420 0.522150 0.519080 0.929473
Zn2   Zn    Zn3+2 0.611580 0.477850 0.480920 1.029083

loop_
_geom_bond_atom_site_label_1
_geom_bond_atom_site_label_2
_ccdc_geom_bond_type
C23   C58   A    
C57   H42   S    
C43   H9    S    
C53   H32   S    
C41   C42   A    
C49   H24   S    
C10   H45   S    
C19   C20   A    
C25   H4    S    
C4    O6    A    
C19   H34   S    
C28   O11   A    
C55   H39   S    
C26   C27   A    
C60   F3    S    
C5    C6    A    
C44   H14   S    
C9    C16   S    
C12   C43   A    
C3    C7    A    
C16   O8    A    
C46   H16   S    
C51   H29   S    
C28   O10   A    
C9    C22   A    
C27   C29   A    
C28   C40   S    
C37   H5    S    
C18   C19   A    
C47   H19   S    
C44   H13   S    
C51   H28   S    
C46   C47   S    
C50   H27   S    
C27   O3    S    
C35   C36   A    
C45   C56   A    
C54   O4    S    
N1    Zn1   S    
C8    C22   A    
C7    C40   A    
C38   H2    S    
C4    O7    A    
C52   H31   S    
O6    Zn1   S    
O5    Zn2   S    
N2    Zn2   S    
C50   H25   S    
C47   H18   S    
C59   C60   A    
C13   C14   A    
C53   H33   S    
C14   C17   A    
C54   H37   S    
C1    O1    A    
C47   H17   S    
C36   F2    S    
C44   C46   S    
C39   C42   A    
C29   H6    S    
C58   H1    S    
C15   C20   A    
C57   H40   S    
C51   C52   S    
C49   H22   S    
C46   H15   S    
C13   O12   S    
O8    Zn1   S    
O11   Zn2   S    
C39   C43   A    
C10   C24   A    
C3    C45   A    
C8    C18   A    
C48   H21   S    
C11   H46   S    
C5    H12   S    
C16   O9    A    
C26   O2    S    
C29   C30   A    
C25   C38   A    
C50   H26   S    
C12   C23   A    
C4    C39   S    
C31   N2    A    
C17   C18   A    
C52   H30   S    
C35   F1    S    
C34   C45   A    
C1    O5    A    
C32   C37   A    
C59   H11   S    
C6    O4    S    
C21   H44   S    
C20   H47   S    
C48   C49   S    
C55   C57   S    
C34   C59   A    
C6    C40   A    
C54   H36   S    
C2    C5    A    
C12   C34   A    
C26   N2    A    
C52   C53   S    
C48   O2    S    
C57   H41   S    
C54   C55   S    
C15   C24   A    
C56   H10   S    
C14   C15   A    
C8    H43   S    
C53   H35   S    
C55   H38   S    
C23   C41   A    
C48   H20   S    
C32   C33   A    
O10   Zn1   S    
C2    C3    A    
O9    Zn2   S    
C7    H3    S    
C30   C32   A    
C11   C13   A    
C9    C21   A    
C30   C31   A    
C42   H8    S    
C33   C35   A    
C56   C58   A    
C2    C60   A    
C22   H23   S    
C51   O3    S    
C37   N1    A    
C10   C11   A    
O7    Zn2   S    
O1    Zn1   S    
C1    C24   S    
C49   C50   S    
C44   O12   S    
C31   C36   A    
C38   N1    A    
C25   C33   A    
C41   H7    S    
C17   C21   A    
