data_mof_unit_35860.cif
_audit_creation_date              2012-12-10T16:50:15-0500
_audit_creation_method            fapswitch 2.2
_symmetry_space_group_name_H-M    P1
_symmetry_Int_Tables_number       1
_space_group_crystal_system       triclinic
_cell_length_a                    23.399028
_cell_length_b                    8.675986
_cell_length_c                    7.537925
_cell_angle_alpha                 102.998542
_cell_angle_beta                  95.286695
_cell_angle_gamma                 94.572849
_cell_volume                      1476.7377784

loop_
_atom_site_label
_atom_site_type_symbol
_atom_type_description
_atom_site_fract_x
_atom_site_fract_y
_atom_site_fract_z
_atom_type_partial_charge
C1    C     C_R   0.495110 0.199520 0.453782 0.805794
C2    C     C_R   0.506604 0.800505 0.545696 0.768865
C3    C     C_R   0.233527 0.556593 0.424548 0.198822
C4    C     C_R   0.760466 0.438610 0.363406 0.217113
C5    C     C_R   0.294065 0.583168 0.434239 0.398317
C6    C     C_R   0.699458 0.436620 0.348293 0.393643
C7    C     C_R   0.328521 0.476722 0.497918 -0.147842
C8    C     C_R   0.672595 0.505171 0.503449 -0.138105
C9    C     C_R   0.302851 0.348523 0.557038 -0.327132
C10   C     C_R   0.706706 0.577597 0.668506 -0.337831
C11   C     C_R   0.243271 0.327419 0.557376 -0.165003
C12   C     C_R   0.766025 0.573697 0.685163 -0.167788
C13   C     C_R   0.208468 0.431897 0.493866 0.270998
C14   C     C_R   0.793617 0.502345 0.535731 0.249968
C15   C     C_2   0.486589 0.029868 0.436548 0.191825
C16   C     C_2   0.518058 0.970623 0.559662 0.231505
C17   C     C_R   0.391188 0.495290 0.499745 0.829476
C18   C     C_R   0.609165 0.500818 0.499813 0.824093
C19   C     C_R   0.893561 0.614680 0.642116 0.549474
C20   C     C_R   0.109930 0.304780 0.424352 0.547146
C21   C     C_R   0.873205 0.339379 0.500192 0.640742
C22   C     C_R   0.131860 0.549683 0.647938 0.605502
C23   C     C_R   0.931867 0.324474 0.480552 -0.106387
C24   C     C_R   0.072907 0.570493 0.654509 -0.087858
C25   C     C_R   0.972537 0.455839 0.565398 -0.145066
C26   C     C_R   0.032009 0.443876 0.555759 -0.129489
C27   C     C_R   0.953434 0.599901 0.657829 -0.126113
C28   C     C_R   0.050606 0.305488 0.446360 -0.141109
C29   C     C_R   0.950253 0.185672 0.372038 0.144730
C30   C     C_R   0.053929 0.711879 0.757530 0.127750
C31   C     C_R   0.009407 0.175857 0.356262 0.417291
C32   C     C_R   0.994128 0.726610 0.757327 0.435569
Cu1   Cu    Cu3+1 0.506340 0.517380 0.684380 1.022719
Cu2   Cu    Cu3+1 0.493660 0.482620 0.315620 1.054956
H1    H     H_    0.329078 0.265084 0.603851 0.149886
H2    H     H_    0.687288 0.634975 0.787599 0.163983
H3    H     H_    0.224200 0.232258 0.611463 0.156976
H4    H     H_    0.790540 0.624406 0.816718 0.183282
N1    N     N_R   0.854761 0.485574 0.561476 -0.455638
N2    N     N_R   0.148625 0.426474 0.523598 -0.446646
N3    N     N_2   0.484110 0.456420 0.038520 0.164014
N4    N     N_2   0.515890 0.543580 0.961480 0.153353
O1    O     O_R   0.504120 0.286130 0.619770 -0.506730
O2    O     O_R   0.495880 0.713870 0.380230 -0.508345
O3    O     O_R   0.493410 0.256770 0.308360 -0.595877
O4    O     O_R   0.506590 0.743230 0.691640 -0.598793
O5    O     O_R   0.423230 0.514630 0.655730 -0.588933
O6    O     O_R   0.576770 0.485370 0.344270 -0.552744
O7    O     O_R   0.412530 0.485280 0.344320 -0.575012
O8    O     O_R   0.587470 0.514720 0.655680 -0.617694
O9    O     O_2   0.874331 0.757552 0.701633 -0.531428
O10   O     O_2   0.128977 0.186322 0.302849 -0.525727
O11   O     O_2   0.834473 0.209414 0.458572 -0.515441
O12   O     O_2   0.172812 0.651156 0.763364 -0.543346
N5    N     N_2   0.909113 0.068339 0.253093 -0.371008
H5    H     H_    0.916453 0.042045 0.117502 0.302138
C33   C     C_3   0.890165 0.930163 0.318639 -0.507625
H6    H     H_    0.908495 0.823539 0.243547 0.199179
H7    H     H_    0.842471 0.907160 0.291561 0.247210
H8    H     H_    0.902614 0.947994 0.468019 0.229147
N6    N     N_2   0.094433 0.836109 0.868802 -0.382842
H9    H     H_    0.080847 0.896947 0.987864 0.319630
C34   C     C_3   0.125160 0.941130 0.776822 -0.572356
H10   H     H_    0.100658 0.043728 0.767319 0.176704
H11   H     H_    0.133593 0.877532 0.638099 0.230478
H12   H     H_    0.167377 0.988472 0.858326 0.250393
O13   O     O_3   0.025685 0.044433 0.237734 -0.545473
C35   C     C_3   0.040391 0.930867 0.337039 -0.220564
H13   H     H_    0.001732 0.872117 0.377616 0.138834
H14   H     H_    0.072011 0.984195 0.457614 0.147994
H15   H     H_    0.060742 0.835607 0.249108 0.177552
O14   O     O_3   0.975247 0.854475 0.875695 -0.537969
C36   C     C_3   0.981129 0.993957 0.808398 -0.226003
H16   H     H_    0.995827 0.977185 0.670667 0.099748
H17   H     H_    0.011858 0.085104 0.905228 0.197554
H18   H     H_    0.938858 0.043074 0.802033 0.192050
N7    N     N_2   0.197597 0.659003 0.353519 -0.441536
H19   H     H_    0.216465 0.772793 0.365000 0.287087
C37   C     C_3   0.168327 0.589835 0.172218 -0.611884
H20   H     H_    0.140743 0.675904 0.128636 0.244450
H21   H     H_    0.140223 0.480429 0.171176 0.229729
H22   H     H_    0.200397 0.560516 0.073074 0.263401
N8    N     N_2   0.788482 0.369993 0.208712 -0.386589
H23   H     H_    0.764637 0.279134 0.112019 0.286616
C38   C     C_3   0.821624 0.482861 0.133365 -0.707515
H24   H     H_    0.837934 0.420095 0.005661 0.235678
H25   H     H_    0.859287 0.542548 0.231836 0.234783
H26   H     H_    0.794345 0.574365 0.102271 0.208563
O15   O     O_3   0.319169 0.712470 0.380269 -0.557842
C39   C     C_3   0.332164 0.840032 0.536419 -0.276076
H27   H     H_    0.370798 0.821339 0.623468 0.159271
H28   H     H_    0.295205 0.859281 0.619434 0.137565
H29   H     H_    0.342034 0.951055 0.490663 0.210535
O16   O     O_3   0.665573 0.351770 0.190620 -0.586522
C40   C     C_3   0.669058 0.431823 0.047445 -0.296106
H30   H     H_    0.687071 0.559122 0.092810 0.114319
H31   H     H_    0.625028 0.426855 0.976990 0.227284
H32   H     H_    0.695060 0.368597 0.943855 0.186594
O17   O     O_3   0.437045 0.941470 0.336073 -0.614962
C41   C     C_3   0.435329 0.939156 0.147990 -0.119215
H33   H     H_    0.477739 0.972494 0.103207 0.167789
H34   H     H_    0.403062 0.016797 0.112862 0.123871
H35   H     H_    0.419957 0.816709 0.068301 0.209486
O18   O     O_3   0.567573 0.063858 0.658134 -0.600655
C42   C     C_3   0.591963 0.003784 0.802502 -0.241572
H36   H     H_    0.609917 0.889806 0.749185 0.132114
H37   H     H_    0.560118 0.993636 0.900804 0.191248
H38   H     H_    0.628555 0.089392 0.878132 0.209996
O19   O     O_3   0.467312 0.310572 0.932705 -0.466130
C43   C     C_3   0.408021 0.280602 0.942963 -0.171168
H39   H     H_    0.391294 0.169010 0.840997 0.101831
H40   H     H_    0.383770 0.378031 0.910880 0.159220
H41   H     H_    0.399882 0.264023 0.079772 0.163013
O20   O     O_3   0.524297 0.695597 0.057537 -0.482280
C44   C     C_3   0.583743 0.743143 0.080753 -0.234171
H42   H     H_    0.602972 0.716764 0.949907 0.145298
H43   H     H_    0.606165 0.687814 0.181987 0.161292
H44   H     H_    0.590723 0.873311 0.138817 0.142706

loop_
_geom_bond_atom_site_label_1
_geom_bond_atom_site_label_2
_ccdc_geom_bond_type
C21   O11   S    
N5    H5    S    
C34   H11   S    
N3    N4    D    
C40   H30   S    
O20   C44   S    
C33   H6    S    
C40   H32   S    
C22   O12   S    
C38   H24   S    
C2    O4    A    
C31   O13   S    
C42   H37   S    
Cu1   N4    S    
C23   C29   A    
C24   C26   A    
C20   N2    A    
C33   H7    S    
C15   C16   D    
C11   H3    S    
C36   H16   S    
N6    C34   S    
C43   H39   S    
C13   N2    S    
C14   N1    S    
C16   O18   S    
O17   C41   S    
C2    O2    A    
C35   H13   S    
C44   H43   S    
C1    C15   S    
C2    C16   S    
C3    C13   A    
N7    C37   S    
C34   H12   S    
N3    O19   S    
C4    C14   A    
Cu1   O4    S    
C36   H17   S    
O16   C40   S    
Cu2   N3    S    
C10   C12   A    
O18   C42   S    
N4    O20   S    
C24   C30   A    
C38   H25   S    
C42   H38   S    
O13   C35   S    
Cu1   O1    S    
Cu2   O2    S    
C4    C6    A    
C17   O7    A    
C37   H21   S    
C33   H8    S    
C6    C8    A    
C20   C28   A    
C6    O16   S    
Cu1   O8    S    
N7    H19   S    
C41   H35   S    
C8    C18   S    
C34   H10   S    
C18   O6    A    
C39   H28   S    
N8    H23   S    
C21   N1    A    
C29   C31   A    
C44   H44   S    
C22   N2    A    
C41   H34   S    
Cu1   Cu2   S    
Cu2   O3    S    
C9    C11   A    
C43   H41   S    
C1    O1    A    
C19   N1    A    
C35   H14   S    
N8    C38   S    
C12   C14   A    
N5    C33   S    
Cu1   O5    S    
C36   H18   S    
C22   C24   A    
Cu2   O6    S    
C3    N7    S    
C19   C27   A    
C18   O8    A    
C39   H29   S    
C5    C7    A    
C38   H26   S    
C7    C9    A    
Cu2   O7    S    
C27   C32   A    
C28   C31   A    
C17   O5    A    
C15   O17   S    
O14   C36   S    
C3    C5    A    
C7    C17   S    
C37   H22   S    
C40   H31   S    
C25   C27   A    
C29   N5    S    
C42   H36   S    
C26   C28   A    
C21   C23   A    
C25   C26   A    
C20   O10   S    
O19   C43   S    
C30   C32   A    
C11   C13   A    
C1    O3    A    
C39   H27   S    
C4    N8    S    
C35   H15   S    
C41   H33   S    
C23   C25   A    
C12   H4    S    
N6    H9    S    
C43   H40   S    
C37   H20   S    
C19   O9    S    
C8    C10   A    
C30   N6    S    
C9    H1    S    
C10   H2    S    
O15   C39   S    
C5    O15   S    
C44   H42   S    
C32   O14   S    
