data_mof_unit_23330.cif
_audit_creation_date              2012-10-26T20:07:10-0400
_audit_creation_method            fapswitch 2.2
_symmetry_space_group_name_H-M    P1
_symmetry_Int_Tables_number       1
_space_group_crystal_system       triclinic
_cell_length_a                    10.846263
_cell_length_b                    9.506094
_cell_length_c                    27.6793
_cell_angle_alpha                 90.007994
_cell_angle_beta                  92.230908
_cell_angle_gamma                 90.000221
_cell_volume                      2851.72761537

loop_
_atom_site_label
_atom_site_type_symbol
_atom_type_description
_atom_site_fract_x
_atom_site_fract_y
_atom_site_fract_z
_atom_type_partial_charge
C1    C     C_R   0.261989 0.500000 0.499893 0.554449
C2    C     C_R   0.407991 0.443258 0.868773 -0.010177
C3    C     C_R   0.486570 0.498315 0.353962 0.005187
C4    C     C_R   0.513416 0.498395 0.646038 0.005196
C5    C     C_R   0.390488 0.427728 0.970254 0.005477
C6    C     C_R   0.609256 0.427393 0.029719 0.005460
C7    C     C_R   0.616343 0.452224 0.979300 0.032551
C8    C     C_R   0.383446 0.452443 0.020685 0.032614
C9    C     C_R   0.507080 0.445855 0.949526 0.003203
C10   C     C_R   0.492699 0.445749 0.050456 0.003216
C11   C     C_R   0.287621 0.391782 0.938937 0.200631
C12   C     C_R   0.738011 0.500000 0.500107 0.554449
C13   C     C_R   0.712057 0.391125 0.061021 0.200572
C14   C     C_R   0.296837 0.405887 0.889030 -0.076588
C15   C     C_R   0.702872 0.405148 0.110933 -0.076611
C16   C     C_R   0.496733 0.499859 0.407244 0.554581
C17   C     C_R   0.503265 0.499879 0.592756 0.554584
C18   C     C_R   0.273473 0.495737 0.041774 -0.056601
C19   C     C_R   0.726393 0.495329 0.958232 -0.056543
C20   C     C_R   0.063806 0.372184 0.499948 -0.130765
C21   C     C_R   0.936195 0.627814 0.500052 -0.130858
C22   C     C_R   0.936194 0.372184 0.500052 -0.130765
C23   C     C_R   0.485559 0.460182 0.101185 -0.036760
C24   C     C_R   0.063806 0.627814 0.499948 -0.130857
C25   C     C_R   0.871835 0.499999 0.500090 0.022932
C26   C     C_R   0.128165 0.499999 0.499910 0.022933
C27   C     C_R   0.421695 0.074457 0.469455 0.013070
C28   C     C_R   0.578308 0.925545 0.530543 0.013296
C29   C     C_R   0.578305 0.074484 0.530544 0.013087
C30   C     C_R   0.421692 0.925518 0.469457 0.013310
C31   C     C_R   0.368225 0.507140 0.172415 0.408856
C32   C     C_R   0.631705 0.507105 0.827591 0.408858
C33   C     C_R   0.583391 0.456808 0.181358 0.408702
C34   C     C_R   0.514255 0.460366 0.898802 -0.036761
C35   C     C_R   0.416440 0.457335 0.818625 0.408724
C36   C     C_R   0.471526 0.621339 0.276920 -0.052833
C37   C     C_R   0.529791 0.366705 0.721178 -0.054277
C38   C     C_R   0.481005 0.624519 0.327419 -0.140851
C39   C     C_R   0.520329 0.369443 0.670874 -0.137511
C40   C     C_R   0.479719 0.369332 0.329130 -0.137514
C41   C     C_R   0.518897 0.624632 0.672576 -0.140819
C42   C     C_R   0.470234 0.366533 0.278826 -0.054239
C43   C     C_R   0.528351 0.621512 0.723076 -0.052802
C44   C     C_R   0.467093 0.492244 0.252537 0.242731
C45   C     C_R   0.372539 0.493543 0.121866 0.028290
C46   C     C_R   0.532851 0.492447 0.747462 0.242772
C47   C     C_R   0.627347 0.493480 0.878136 0.028250
C48   C     C_R   0.267547 0.514085 0.091610 -0.078279
C49   C     C_R   0.732367 0.513743 0.908403 -0.078239
C50   C     C_R   0.591796 0.442764 0.131206 -0.010171
Cu1   Cu    Cu3+1 0.500000 0.640660 0.500000 0.945453
Cu2   Cu    Cu3+1 0.500000 0.359340 0.500000 0.944778
H1    H     H_    0.482903 0.270323 0.348492 0.130562
H2    H     H_    0.819519 0.544507 0.893754 0.189417
H3    H     H_    0.517208 0.270414 0.651515 0.130553
H4    H     H_    0.485301 0.725397 0.345590 0.129489
H5    H     H_    0.531877 0.266665 0.739906 0.130789
H6    H     H_    0.470714 0.718883 0.256718 0.133858
H7    H     H_    0.216841 0.382599 0.865727 0.185999
H8    H     H_    0.782827 0.381621 0.134226 0.185978
H9    H     H_    0.192010 0.520362 0.019791 0.201315
H10   H     H_    0.807892 0.519724 0.980230 0.201491
H11   H     H_    0.111784 0.272242 0.499907 0.130940
H12   H     H_    0.514549 0.725488 0.654402 0.129500
H13   H     H_    0.888216 0.727756 0.500093 0.130903
H14   H     H_    0.888215 0.272242 0.500094 0.130939
H15   H     H_    0.111784 0.727756 0.499906 0.130902
H16   H     H_    0.058153 0.205820 0.895283 0.361775
H17   H     H_    0.941000 0.204270 0.104601 0.361764
H18   H     H_    0.359028 0.130706 0.445004 0.107536
H19   H     H_    0.640983 0.869299 0.554992 0.108197
H20   H     H_    0.640972 0.130754 0.554996 0.107551
H21   H     H_    0.359016 0.869250 0.445008 0.108204
H22   H     H_    0.468191 0.266470 0.260103 0.130839
H23   H     H_    0.529094 0.719077 0.743275 0.133823
H24   H     H_    0.180454 0.545028 0.106272 0.189320
N1    N     N_R   0.472757 0.487478 0.200921 -0.396953
N2    N     N_R   0.527146 0.487728 0.799075 -0.396963
N3    N     N_R   0.500000 0.852070 0.500000 -0.224767
N4    N     N_R   0.500000 0.147930 0.500000 -0.224663
O1    O     O_R   0.319640 0.618740 0.500000 -0.507123
O2    O     O_2   0.739319 0.537780 0.807133 -0.477277
O3    O     O_2   0.314816 0.440306 0.789464 -0.479325
O4    O     O_2   0.684994 0.439500 0.210508 -0.479394
O5    O     O_2   0.170621 0.240778 0.007113 -0.186326
O6    O     O_2   0.047712 0.403225 0.955406 -0.276512
O7    O     O_3   0.122541 0.169211 0.918335 -0.470918
O8    O     O_2   0.828948 0.240222 0.992758 -0.186574
O9    O     O_2   0.952030 0.402028 0.044661 -0.275668
O10   O     O_3   0.876591 0.167982 0.081492 -0.471107
O11   O     O_R   0.680360 0.381260 0.500000 -0.507027
O12   O     O_R   0.680360 0.618740 0.500000 -0.507118
O13   O     O_R   0.319640 0.381260 0.500000 -0.507021
O14   O     O_R   0.500020 0.618770 0.430260 -0.501837
O15   O     O_R   0.499980 0.381230 0.569740 -0.502975
O16   O     O_R   0.499980 0.618770 0.569740 -0.501840
O17   O     O_R   0.500020 0.381230 0.430260 -0.502979
O18   O     O_2   0.260680 0.538071 0.192885 -0.477305
S1    S     S_3+6 0.154097 0.301858 0.957207 0.056295
S2    S     S_3+6 0.845434 0.300953 0.042721 0.056342

loop_
_geom_bond_atom_site_label_1
_geom_bond_atom_site_label_2
_ccdc_geom_bond_type
C2    C35   A    
C23   C45   A    
C15   H8    S    
C48   H24   S    
C12   O11   A    
C47   C49   A    
C14   H7    S    
C44   N1    S    
C24   C26   A    
C5    C11   A    
C36   H6    S    
C11   C14   A    
C16   O17   A    
C31   O18   S    
C4    C41   A    
C19   H10   S    
C1    O1    A    
C49   H2    S    
Cu2   O17   S    
Cu2   O15   S    
C11   S1    S    
C15   C50   A    
C28   N3    A    
C22   H14   S    
C24   H15   S    
C39   H3    S    
C3    C38   A    
C22   C25   A    
C17   O15   A    
Cu1   O1    S    
Cu1   O16   S    
C29   H20   S    
C2    C34   A    
C40   C42   A    
C27   C30   A    
C41   C43   A    
C42   C44   A    
O10   S2    S    
C43   C46   A    
C31   N1    A    
O7    S1    S    
C43   H23   S    
C42   H22   S    
O9    S2    D    
Cu1   Cu2   S    
C27   N4    A    
C46   N2    S    
C30   H21   S    
C35   O3    S    
C23   C50   A    
C33   C50   A    
C8    C18   A    
C5    C9    A    
O5    S1    D    
Cu1   O12   S    
C19   C49   A    
C4    C39   A    
Cu2   O13   S    
C17   O16   A    
O6    S1    D    
O8    S2    D    
C27   H18   S    
C30   N3    A    
C1    O13   A    
C20   C22   A    
C3    C40   A    
C7    C19   A    
C13   C15   A    
C9    C34   A    
C32   C47   A    
C36   C44   A    
C28   H19   S    
C4    C17   S    
H17   O10   S    
C45   C48   A    
C7    C9    A    
C21   C25   A    
C28   C29   A    
C21   H13   S    
C12   O12   A    
C18   C48   A    
C6    C10   A    
C5    C8    A    
C18   H9    S    
C6    C7    A    
C10   C23   A    
C32   O2    S    
C35   N2    A    
C16   O14   A    
C12   C25   S    
C13   S2    S    
C36   C38   A    
C37   C39   A    
C6    C13   A    
C33   N1    A    
C1    C26   S    
C29   N4    A    
C20   C26   A    
C20   H11   S    
C2    C14   A    
C33   O4    S    
Cu1   N3    S    
Cu1   O14   S    
C32   N2    A    
C38   H4    S    
C8    C10   A    
C40   H1    S    
C31   C45   A    
C21   C24   A    
H16   O7    S    
Cu2   O11   S    
C34   C47   A    
C41   H12   S    
C37   C46   A    
Cu2   N4    S    
C37   H5    S    
C3    C16   S    
