data_mof_unit_20623.cif
_audit_creation_date              2013-03-05T15:51:27-0500
_audit_creation_method            fapswitch 2.2
_symmetry_space_group_name_H-M    P1
_symmetry_Int_Tables_number       1
_space_group_crystal_system       triclinic
_cell_length_a                    11.963772
_cell_length_b                    12.876078
_cell_length_c                    17.028999
_cell_angle_alpha                 90.648838
_cell_angle_beta                  82.291378
_cell_angle_gamma                 93.305112
_cell_volume                      2595.20974419

loop_
_atom_site_label
_atom_site_type_symbol
_atom_site_description
_atom_site_fract_x
_atom_site_fract_y
_atom_site_fract_z
_atom_type_partial_charge
O1    O     O_R   0.421320 0.658850 0.503920 -0.618562
O2    O     O_R   0.578680 0.341150 0.496080 -0.624019
O3    O     O_R   0.609840 0.646370 0.494500 -0.631128
O4    O     O_R   0.390160 0.353630 0.505500 -0.625005
C1    C     C_R   0.522120 0.700476 0.499272 0.869989
C2    C     C_R   0.477885 0.299479 0.500786 0.887548
O5    O     O_R   0.394600 0.506990 0.621070 -0.622395
O6    O     O_R   0.605400 0.493010 0.378930 -0.617251
O7    O     O_R   0.583120 0.494520 0.611640 -0.620028
O8    O     O_R   0.416880 0.505480 0.388360 -0.618265
C3    C     C_R   0.485535 0.501217 0.653022 0.894253
C4    C     C_R   0.514911 0.503405 0.346797 0.876541
Zn1   Zn    Zn3+2 0.374120 0.508330 0.506290 0.941712
Zn2   Zn    Zn3+2 0.625880 0.491670 0.493710 0.937647
C5    C     C_R   0.479006 0.496203 0.738094 -0.087636
C6    C     C_R   0.520046 0.522162 0.262326 -0.111664
C7    C     C_R   0.544081 0.423017 0.768330 -0.284385
C8    C     C_R   0.420896 0.495204 0.229525 -0.263414
C9    C     C_R   0.549747 0.417600 0.849060 0.209379
C10   C     C_R   0.407793 0.526117 0.153899 0.217248
C11   C     C_R   0.488903 0.487732 0.899542 0.128090
C12   C     C_R   0.501214 0.576212 0.107370 0.111614
C13   C     C_R   0.419166 0.557402 0.869848 -0.240457
C14   C     C_R   0.600043 0.604877 0.139251 -0.231839
C15   C     C_R   0.414020 0.563736 0.789024 0.154980
C16   C     C_R   0.610473 0.580301 0.217456 0.149726
C17   C     C_2   0.496848 0.489944 0.983700 -0.246884
C18   C     C_2   0.505487 0.580135 0.022302 -0.259740
H1    H     H_    0.591771 0.370322 0.728436 0.163979
H2    H     H_    0.351084 0.451949 0.264132 0.168273
H3    H     H_    0.518224 0.654394 0.991764 0.166061
H4    H     H_    0.493401 0.416678 0.015337 0.172394
H5    H     H_    0.370270 0.608726 0.910117 0.142773
H6    H     H_    0.670585 0.643591 0.102063 0.145720
C19   C     C_R   0.464575 0.188143 0.502472 -0.059049
C20   C     C_R   0.535485 0.811740 0.498954 -0.053028
C21   C     C_R   0.649918 0.969608 0.469798 -0.215589
C22   C     C_R   0.350418 0.030345 0.533097 -0.218613
C23   C     C_R   0.641070 0.862245 0.474909 -0.203130
C24   C     C_R   0.359075 0.137677 0.527000 -0.196379
C25   C     C_R   0.439441 0.867737 0.520064 -0.278711
C26   C     C_R   0.560816 0.132096 0.482417 -0.279455
C27   C     C_R   0.447192 0.974349 0.514366 0.184631
C28   C     C_R   0.553158 0.025563 0.488680 0.184536
H7    H     H_    0.642290 0.171259 0.462498 0.160537
H8    H     H_    0.357996 0.828453 0.539902 0.159487
H9    H     H_    0.284317 0.181039 0.542772 0.168168
H10   H     H_    0.715710 0.818898 0.458550 0.165758
H11   H     H_    0.731503 0.008621 0.450358 0.147561
H12   H     H_    0.268861 0.991348 0.552673 0.147103
N1    N     N_R   0.206400 0.519440 0.514690 -0.130493
N2    N     N_R   0.793600 0.480560 0.485310 -0.124904
C29   C     C_R   0.961867 0.398922 0.427976 0.396899
C30   C     C_R   0.038347 0.602216 0.571716 0.420151
C31   C     C_R   0.844052 0.408429 0.435740 -0.117215
C32   C     C_R   0.156463 0.592782 0.563240 -0.116229
C33   C     C_R   0.855193 0.544816 0.529535 -0.034862
C34   C     C_R   0.144677 0.455133 0.470694 -0.038087
C35   C     C_R   0.973228 0.537541 0.525610 -0.093209
C36   C     C_R   0.026804 0.462818 0.474582 -0.083650
H13   H     H_    0.188106 0.398742 0.432023 0.180334
H14   H     H_    0.811587 0.600995 0.568295 0.180456
H15   H     H_    0.208982 0.644507 0.595031 0.146535
H16   H     H_    0.792348 0.357665 0.402478 0.135706
O9    O     O_3   0.013087 0.323761 0.379065 -0.619623
C37   C     C_3   0.003233 0.345837 0.299276 0.081748
H17   H     H_    0.020401 0.430216 0.285566 0.136214
H18   H     H_    0.917340 0.320791 0.285734 0.141638
C38   C     C_3   0.089068 0.285985 0.245440 -0.820366
H19   H     H_    0.073150 0.201092 0.255839 0.259834
H20   H     H_    0.082190 0.302768 0.182492 0.205364
H21   H     H_    0.175889 0.309735 0.257549 0.248041
O10   O     O_3   0.987097 0.679764 0.618497 -0.624002
C39   C     C_3   0.012139 0.676295 0.697431 0.094220
H22   H     H_    0.060909 0.608888 0.711005 0.105641
H23   H     H_    0.930922 0.669234 0.737617 0.165425
C40   C     C_3   0.075017 0.777432 0.717236 -0.857745
H24   H     H_    0.022416 0.844269 0.710568 0.266267
H25   H     H_    0.093594 0.775186 0.779335 0.208594
H26   H     H_    0.155776 0.788681 0.677095 0.242591
C41   C     C_3   0.716740 0.619888 0.250185 -0.367631
C42   C     C_3   0.805071 0.538092 0.241996 -0.862487
H27   H     H_    0.879536 0.567439 0.269892 0.237258
H28   H     H_    0.770608 0.464357 0.271254 0.263519
H29   H     H_    0.832981 0.521986 0.178380 0.246834
H30   H     H_    0.754273 0.690443 0.217322 0.187365
H31   H     H_    0.697727 0.645708 0.312677 0.218358
C43   C     C_3   0.343521 0.646003 0.760029 -0.423784
C44   C     C_3   0.417579 0.737032 0.721426 -0.838469
H32   H     H_    0.469113 0.774130 0.764791 0.257772
H33   H     H_    0.474820 0.710936 0.669280 0.250449
H34   H     H_    0.363376 0.795940 0.701523 0.241116
H35   H     H_    0.287284 0.611894 0.718738 0.219706
H36   H     H_    0.286122 0.677727 0.810247 0.196215
C45   C     C_3   0.294268 0.502884 0.124764 -0.426082
C46   C     C_3   0.201528 0.562955 0.172634 -0.879990
H37   H     H_    0.191301 0.541329 0.236204 0.260516
H38   H     H_    0.222373 0.647967 0.167006 0.266277
H39   H     H_    0.119917 0.544608 0.149798 0.245029
H40   H     H_    0.295574 0.524322 0.061786 0.223887
H41   H     H_    0.271749 0.418065 0.129693 0.199711
C47   C     C_3   0.624039 0.339375 0.878626 -0.430384
C48   C     C_3   0.556998 0.236822 0.899716 -0.870988
H42   H     H_    0.485211 0.248928 0.946807 0.252700
H43   H     H_    0.523810 0.202977 0.846562 0.264246
H44   H     H_    0.612858 0.180865 0.921583 0.250864
H45   H     H_    0.695998 0.324236 0.832226 0.205101
H46   H     H_    0.662161 0.369928 0.930833 0.208541

loop_
_geom_bond_atom_site_label_1
_geom_bond_atom_site_label_2
_geom_bond_distance
_ccdc_geom_bond_type
C24   H9    1.083303 S    
C37   H18   1.112127 S    
C1    C20   1.432338 S    
C7    H1    1.085188 S    
O10   C39   1.417571 S    
C45   C46   1.528351 S    
O7    Zn2   2.005223 S    
C41   C42   1.526738 S    
C33   H14   1.082313 S    
C40   H24   1.110570 S    
O5    C3    1.286160 A    
C39   H23   1.110645 S    
O1    C1    1.284001 A    
C9    C11   1.405231 A    
C14   C16   1.395700 A    
C9    C47   1.514189 S    
C5    C15   1.411657 A    
C37   C38   1.520406 S    
C34   C36   1.412010 A    
C46   H39   1.110633 S    
C2    C19   1.433430 S    
N1    C32   1.359091 A    
O4    Zn1   2.011856 S    
C38   H20   1.110618 S    
C19   C26   1.395670 A    
Zn1   N1    2.005708 S    
C3    C5    1.442275 S    
Zn2   N2    2.005705 S    
C4    C6    1.453859 S    
C13   H5    1.084368 S    
C39   C40   1.523371 S    
C46   H38   1.110884 S    
C25   H8    1.085423 S    
C47   H46   1.110536 S    
C8    H2    1.084829 S    
C44   H33   1.107725 S    
C29   O9    1.385295 S    
C41   H30   1.112293 S    
N2    C31   1.360023 A    
C34   H13   1.082465 S    
C40   H25   1.110404 S    
C37   H17   1.115463 S    
C11   C17   1.448789 S    
C35   C36   1.412224 A    
C12   C18   1.443997 S    
C46   H37   1.109837 S    
C25   C27   1.374174 A    
C20   C25   1.395804 A    
O2    C2    1.284106 A    
C26   C28   1.373894 A    
C29   C36   1.409693 A    
C30   C32   1.413210 A    
C30   C35   1.411159 A    
C29   C31   1.410225 A    
C6    C16   1.418602 A    
C43   H36   1.112034 S    
C39   H22   1.116374 S    
C47   C48   1.525548 S    
O4    C2    1.286312 A    
C45   H40   1.108287 S    
C15   C43   1.517842 S    
C14   H6    1.084906 S    
C26   H7    1.085335 S    
C38   H21   1.111019 S    
C27   C28   1.412362 A    
C18   H3    1.086790 S    
C30   O10   1.388937 S    
C21   H11   1.084048 S    
O6    C4    1.290978 A    
C31   H16   1.081523 S    
C32   H15   1.079943 S    
C47   H45   1.112140 S    
C48   H43   1.111045 S    
N1    C34   1.362376 A    
C44   H34   1.110044 S    
O7    C3    1.287082 A    
C41   H31   1.109283 S    
O3    Zn2   2.011856 S    
O8    C4    1.287506 A    
C10   C45   1.520168 S    
C10   C12   1.408514 A    
C42   H27   1.110306 S    
C16   C41   1.515167 S    
C42   H28   1.109094 S    
C11   C13   1.402240 A    
C12   C14   1.395112 A    
O1    Zn1   1.986511 S    
C17   C18   1.333625 D    
C40   H26   1.109348 S    
C5    C7    1.400849 A    
C43   H35   1.107175 S    
O6    Zn2   2.002619 S    
C17   H4    1.087656 S    
C20   C23   1.399571 A    
O3    C1    1.285874 A    
O8    Zn1   2.005226 S    
C22   H12   1.084136 S    
C42   H29   1.110815 S    
C21   C28   1.397727 A    
C19   C24   1.399988 A    
C22   C27   1.397863 A    
C21   C23   1.383187 A    
C22   C24   1.383955 A    
C7    C9    1.388212 A    
C48   H44   1.110298 S    
C8    C10   1.383656 A    
C13   C15   1.389475 A    
C38   H19   1.110772 S    
O2    Zn2   1.986511 S    
C33   C35   1.413218 A    
N2    C33   1.363516 A    
O5    Zn1   2.002615 S    
C43   C44   1.527228 S    
C6    C8    1.401942 A    
O9    C37   1.412949 S    
C48   H42   1.110324 S    
C44   H32   1.110768 S    
C45   H41   1.111066 S    
C23   H10   1.083387 S    
