data_mof_unit_13178.cif
_audit_creation_date              2012-12-11T15:06:53-0500
_audit_creation_method            fapswitch 2.2
_symmetry_space_group_name_H-M    P1
_symmetry_Int_Tables_number       1
_space_group_crystal_system       monoclinic
_cell_length_a                    19.706158
_cell_length_b                    11.445429
_cell_length_c                    18.731092
_cell_angle_alpha                 90.0
_cell_angle_beta                  89.957705
_cell_angle_gamma                 90.0
_cell_volume                      4224.71109062

loop_
_atom_site_label
_atom_site_type_symbol
_atom_type_description
_atom_site_fract_x
_atom_site_fract_y
_atom_site_fract_z
_atom_type_partial_charge
C1    C     C_R   0.764446 0.510821 0.635734 0.529286
C2    C     C_R   0.235553 0.510821 0.364266 0.529286
C3    C     C_R   0.264446 0.010821 0.635734 0.529286
C4    C     C_R   0.735553 0.010821 0.364266 0.529286
C5    C     C_3   0.815507 0.113084 0.448447 0.262524
C6    C     C_3   0.184493 0.113084 0.551553 0.262524
C7    C     C_3   0.315507 0.613084 0.448447 0.262524
C8    C     C_3   0.684493 0.613084 0.551553 0.262524
C9    C     C_3   0.746883 0.048670 0.438941 0.071528
C10   C     C_3   0.253117 0.048670 0.561059 0.071528
C11   C     C_3   0.246883 0.548670 0.438941 0.071528
C12   C     C_3   0.753117 0.548670 0.561059 0.071528
C13   C     C_3   0.759598 0.092654 0.575071 -0.038150
C14   C     C_3   0.240402 0.092654 0.424929 -0.038150
C15   C     C_3   0.259598 0.592654 0.575071 -0.038150
C16   C     C_3   0.740401 0.592654 0.424929 -0.038150
C17   C     C_3   0.746094 0.963695 0.566944 -0.257798
C18   C     C_3   0.253906 0.963695 0.433056 -0.257798
C19   C     C_3   0.246094 0.463695 0.566944 -0.257798
C20   C     C_3   0.753906 0.463695 0.433056 -0.257798
C21   C     C_3   0.823859 0.127007 0.530534 -0.176820
C22   C     C_3   0.176141 0.127007 0.469466 -0.176820
C23   C     C_3   0.323859 0.627007 0.530534 -0.176820
C24   C     C_3   0.676141 0.627007 0.469466 -0.176820
C25   C     C_3   0.006090 0.214510 0.459672 -0.227789
C26   C     C_3   0.993910 0.214510 0.540327 -0.227789
C27   C     C_3   0.506090 0.714510 0.459672 -0.227789
C28   C     C_3   0.493910 0.714510 0.540327 -0.227789
C29   C     C_3   0.064686 0.409530 0.474196 -0.212586
C30   C     C_3   0.935314 0.409530 0.525804 -0.212586
C31   C     C_3   0.564686 0.909530 0.474196 -0.212586
C32   C     C_3   0.435314 0.909530 0.525804 -0.212586
C33   C     C_3   0.944095 0.399184 0.444725 -0.273318
C34   C     C_3   0.055905 0.399184 0.555275 -0.273318
C35   C     C_3   0.444095 0.899184 0.444725 -0.273318
C36   C     C_3   0.555905 0.899184 0.555275 -0.273318
C37   C     C_3   0.011846 0.338919 0.431202 0.048074
C38   C     C_3   0.988153 0.338919 0.568798 0.048074
C39   C     C_3   0.511846 0.838919 0.431202 0.048074
C40   C     C_3   0.488153 0.838919 0.568798 0.048074
C41   C     C_3   0.813837 0.015804 0.045071 -0.226036
C42   C     C_3   0.186162 0.015804 0.954929 -0.226036
C43   C     C_3   0.313837 0.515804 0.045071 -0.226036
C44   C     C_3   0.686162 0.515804 0.954929 -0.226036
C45   C     C_R   0.774471 0.122876 0.649521 0.528251
C46   C     C_R   0.225529 0.122876 0.350479 0.528251
C47   C     C_R   0.274471 0.622876 0.649521 0.528251
C48   C     C_R   0.725529 0.622876 0.350479 0.528251
C49   C     C_3   0.819508 0.032422 0.965893 -0.226113
C50   C     C_3   0.180492 0.032422 0.034107 -0.226113
C51   C     C_3   0.319508 0.532422 0.965893 -0.226113
C52   C     C_3   0.680492 0.532422 0.034107 -0.226113
C53   C     C_3   0.683961 0.029747 0.031176 -0.213355
C54   C     C_3   0.316039 0.029747 0.968824 -0.213355
C55   C     C_3   0.183961 0.529747 0.031176 -0.213355
C56   C     C_3   0.816039 0.529747 0.968824 -0.213355
C57   C     C_3   0.753913 0.202139 0.061765 -0.262001
C58   C     C_3   0.246087 0.202139 0.938235 -0.262001
C59   C     C_3   0.253913 0.702139 0.061765 -0.262001
C60   C     C_3   0.746087 0.702139 0.938235 -0.262001
C61   C     C_3   0.747522 0.070368 0.074746 0.062604
C62   C     C_3   0.252478 0.070368 0.925254 0.062604
C63   C     C_3   0.247522 0.570368 0.074746 0.062604
C64   C     C_3   0.752478 0.570368 0.925254 0.062604
C65   C     C_3   0.759581 0.105700 0.935980 0.061568
C66   C     C_3   0.240419 0.105700 0.064019 0.061568
C67   C     C_3   0.259581 0.605700 0.935980 0.061568
C68   C     C_3   0.740419 0.605700 0.064019 0.061568
C69   C     C_3   0.696099 0.031543 0.949184 -0.261245
C70   C     C_3   0.303901 0.031543 0.050815 -0.261245
C71   C     C_3   0.196099 0.531543 0.949184 -0.261245
C72   C     C_3   0.803901 0.531543 0.050815 -0.261245
C73   C     C_3   0.748823 0.221395 0.979731 -0.216627
C74   C     C_3   0.251177 0.221395 0.020269 -0.216626
C75   C     C_3   0.248823 0.721395 0.979731 -0.216627
C76   C     C_3   0.751177 0.721395 0.020269 -0.216626
C77   C     C_3   0.004775 0.476358 0.040006 -0.227183
C78   C     C_3   0.995225 0.476358 0.959994 -0.227183
C79   C     C_3   0.504775 0.976358 0.040006 -0.227183
C80   C     C_3   0.495225 0.976358 0.959994 -0.227183
C81   C     C_3   0.063991 0.275952 0.026179 -0.212708
C82   C     C_3   0.936009 0.275952 0.973821 -0.212708
C83   C     C_3   0.563991 0.775952 0.026179 -0.212708
C84   C     C_3   0.436009 0.775952 0.973821 -0.212708
C85   C     C_3   0.941968 0.292982 0.055637 -0.262725
C86   C     C_3   0.058032 0.292982 0.944362 -0.262725
C87   C     C_3   0.441968 0.792982 0.055637 -0.262725
C88   C     C_3   0.558032 0.792982 0.944362 -0.262725
C89   C     C_R   0.968068 0.343358 0.644822 0.529498
C90   C     C_R   0.031931 0.343357 0.355178 0.529498
C91   C     C_R   0.468068 0.843357 0.644822 0.529498
C92   C     C_R   0.531931 0.843357 0.355178 0.529498
C93   C     C_3   0.010973 0.350050 0.069299 0.062605
C94   C     C_3   0.989027 0.350050 0.930700 0.062605
C95   C     C_3   0.510973 0.850050 0.069299 0.062605
C96   C     C_3   0.489027 0.850050 0.930700 0.062605
C97   C     C_R   0.760525 0.533699 0.848771 0.524163
C98   C     C_R   0.239475 0.533699 0.151229 0.524164
C99   C     C_R   0.260525 0.033699 0.848771 0.524163
C100  C     C_R   0.739475 0.033699 0.151229 0.524164
C101  C     C_R   0.774136 0.133362 0.858890 0.531186
C102  C     C_R   0.225864 0.133362 0.141110 0.531185
C103  C     C_R   0.274136 0.633362 0.858890 0.531186
C104  C     C_R   0.725864 0.633362 0.141110 0.531185
C105  C     C_R   0.967838 0.353109 0.854097 0.530926
C106  C     C_R   0.032162 0.353109 0.145903 0.530926
C107  C     C_R   0.467837 0.853109 0.854097 0.530926
C108  C     C_R   0.532162 0.853109 0.145903 0.530926
C109  C     C_3   0.687382 0.126280 0.466645 0.190559
C110  C     C_3   0.312618 0.126280 0.533355 0.190559
C111  C     C_3   0.187382 0.626280 0.466645 0.190559
C112  C     C_3   0.812618 0.626280 0.533355 0.190559
C113  C     C_3   0.695377 0.152709 0.546403 -0.191698
C114  C     C_3   0.304623 0.152709 0.453596 -0.191698
C115  C     C_3   0.195377 0.652709 0.546403 -0.191698
C116  C     C_3   0.804623 0.652709 0.453596 -0.191698
C117  C     C_3   0.751656 0.936120 0.487336 -0.299407
C118  C     C_3   0.248343 0.936120 0.512664 -0.299406
C119  C     C_3   0.251656 0.436120 0.487336 -0.299406
C120  C     C_3   0.748344 0.436120 0.512664 -0.299406
Cr1   Cr    Cr6+3 0.885690 0.492860 0.745310 0.994150
Cr2   Cr    Cr6+3 0.114310 0.492860 0.254690 0.994150
Cr3   Cr    Cr6+3 0.385690 0.992860 0.745310 0.994150
Cr4   Cr    Cr6+3 0.614310 0.992860 0.254690 0.994150
Cr5   Cr    Cr6+3 0.729880 0.332270 0.748190 1.003098
Cr6   Cr    Cr6+3 0.270120 0.332270 0.251810 1.003098
Cr7   Cr    Cr6+3 0.229880 0.832270 0.748190 1.003098
Cr8   Cr    Cr6+3 0.770120 0.832270 0.251810 1.003098
Cr9   Cr    Cr6+3 0.888120 0.178590 0.753010 1.000361
Cr10  Cr    Cr6+3 0.111880 0.178590 0.246990 1.000361
Cr11  Cr    Cr6+3 0.388120 0.678590 0.753010 1.000361
Cr12  Cr    Cr6+3 0.611880 0.678590 0.246990 1.000361
H1    H     H_    0.644249 0.071389 0.461529 0.098401
H2    H     H_    0.355750 0.071389 0.538471 0.098401
H3    H     H_    0.144249 0.571389 0.461529 0.098401
H4    H     H_    0.855750 0.571389 0.538471 0.098401
H5    H     H_    0.863275 0.064639 0.549282 0.103436
H6    H     H_    0.136724 0.064639 0.450718 0.103436
H7    H     H_    0.363275 0.564639 0.549282 0.103436
H8    H     H_    0.636724 0.564639 0.450718 0.103436
H9    H     H_    0.803089 0.901353 0.483095 0.160135
H10   H     H_    0.196911 0.901353 0.516905 0.160135
H11   H     H_    0.303089 0.401353 0.483095 0.160135
H12   H     H_    0.696911 0.401353 0.516905 0.160135
H13   H     H_    0.782609 0.913888 0.599424 0.216986
H14   H     H_    0.217391 0.913888 0.400575 0.216986
H15   H     H_    0.282609 0.413888 0.599424 0.216986
H16   H     H_    0.717391 0.413888 0.400575 0.216986
H17   H     H_    0.049087 0.160347 0.445499 0.135990
H18   H     H_    0.950913 0.160347 0.554501 0.135990
H19   H     H_    0.549087 0.660347 0.445499 0.135990
H20   H     H_    0.450913 0.660347 0.554501 0.135990
H21   H     H_    0.963505 0.176487 0.431954 0.164478
H22   H     H_    0.036495 0.176487 0.568046 0.164478
H23   H     H_    0.463505 0.676487 0.431954 0.164478
H24   H     H_    0.536495 0.676487 0.568046 0.164478
H25   H     H_    0.615713 0.887144 0.457053 0.104774
H26   H     H_    0.384287 0.887144 0.542947 0.104774
H27   H     H_    0.115713 0.387144 0.457053 0.104774
H28   H     H_    0.884287 0.387144 0.542947 0.104774
H29   H     H_    0.596385 0.848593 0.579141 0.178072
H30   H     H_    0.403615 0.848593 0.420858 0.178072
H31   H     H_    0.096385 0.348593 0.579141 0.178072
H32   H     H_    0.903615 0.348593 0.420858 0.178072
H33   H     H_    0.942125 0.487315 0.419725 0.113664
H34   H     H_    0.057875 0.487315 0.580275 0.113664
H35   H     H_    0.442125 0.987315 0.419725 0.113664
H36   H     H_    0.557875 0.987315 0.580275 0.113664
H37   H     H_    0.946899 0.501965 0.538612 0.127234
H38   H     H_    0.053101 0.501965 0.461387 0.127234
H39   H     H_    0.446898 0.001965 0.538612 0.127234
H40   H     H_    0.553101 0.001965 0.461387 0.127234
H41   H     H_    0.817256 0.922373 0.056667 0.137725
H42   H     H_    0.182744 0.922373 0.943333 0.137725
H43   H     H_    0.317256 0.422373 0.056667 0.137725
H44   H     H_    0.682744 0.422373 0.943333 0.137725
H45   H     H_    0.858688 0.055391 0.071833 0.116862
H46   H     H_    0.141312 0.055391 0.928167 0.116862
H47   H     H_    0.358688 0.555391 0.071833 0.116862
H48   H     H_    0.641312 0.555391 0.928167 0.116862
H49   H     H_    0.868584 0.072225 0.954491 0.134364
H50   H     H_    0.131416 0.072225 0.045509 0.134364
H51   H     H_    0.368584 0.572225 0.954491 0.134364
H52   H     H_    0.631416 0.572225 0.045509 0.134364
H53   H     H_    0.821264 0.945490 0.939299 0.118005
H54   H     H_    0.178735 0.945490 0.060701 0.118005
H55   H     H_    0.321264 0.445490 0.939299 0.118005
H56   H     H_    0.678735 0.445490 0.060701 0.118005
H57   H     H_    0.664045 0.946845 0.049988 0.111117
H58   H     H_    0.335955 0.946845 0.950012 0.111118
H59   H     H_    0.164045 0.446845 0.049988 0.111117
H60   H     H_    0.835955 0.446845 0.950012 0.111118
H61   H     H_    0.703314 0.941763 0.928432 0.107632
H62   H     H_    0.296686 0.941763 0.071568 0.107632
H63   H     H_    0.203314 0.441763 0.928432 0.107632
H64   H     H_    0.796686 0.441763 0.071568 0.107632
H65   H     H_    0.712726 0.250192 0.089790 0.110010
H66   H     H_    0.287274 0.250192 0.910210 0.110010
H67   H     H_    0.212726 0.750192 0.089790 0.110010
H68   H     H_    0.787274 0.750192 0.910210 0.110010
H69   H     H_    0.802812 0.235368 0.082652 0.105663
H70   H     H_    0.197187 0.235368 0.917348 0.105663
H71   H     H_    0.302812 0.735368 0.082652 0.105663
H72   H     H_    0.697187 0.735368 0.917348 0.105663
H73   H     H_    0.780584 0.292756 0.961693 0.106703
H74   H     H_    0.219416 0.292756 0.038307 0.106703
H75   H     H_    0.280584 0.792756 0.961693 0.106703
H76   H     H_    0.719416 0.792756 0.038307 0.106703
H77   H     H_    0.696107 0.249496 0.969110 0.117133
H78   H     H_    0.303893 0.249496 0.030890 0.117133
H79   H     H_    0.196107 0.749496 0.969110 0.117133
H80   H     H_    0.803893 0.749496 0.030890 0.117133
H81   H     H_    0.644149 0.095290 0.042281 0.120619
H82   H     H_    0.355851 0.095290 0.957719 0.120619
H83   H     H_    0.144149 0.595290 0.042281 0.120619
H84   H     H_    0.855850 0.595290 0.957719 0.120619
H85   H     H_    0.696304 0.244247 0.558850 0.165901
H86   H     H_    0.303696 0.244247 0.441150 0.165901
H87   H     H_    0.196304 0.744247 0.558850 0.165901
H88   H     H_    0.803696 0.744247 0.441150 0.165901
H89   H     H_    0.651710 0.070006 0.921243 0.110190
H90   H     H_    0.348290 0.070006 0.078757 0.110190
H91   H     H_    0.151710 0.570006 0.921243 0.110190
H92   H     H_    0.848290 0.570006 0.078757 0.110190
H93   H     H_    0.048836 0.529466 0.053254 0.133207
H94   H     H_    0.951164 0.529466 0.946746 0.133207
H95   H     H_    0.548836 0.029466 0.053254 0.133207
H96   H     H_    0.451164 0.029466 0.946746 0.133207
H97   H     H_    0.961426 0.521930 0.065800 0.116322
H98   H     H_    0.038574 0.521930 0.934200 0.116322
H99   H     H_    0.461426 0.021930 0.065800 0.116322
H100  H     H_    0.538574 0.021930 0.934200 0.116322
H101  H     H_    0.615383 0.787069 0.045433 0.110201
H102  H     H_    0.384617 0.787069 0.954567 0.110201
H103  H     H_    0.115383 0.287069 0.045433 0.110201
H104  H     H_    0.884617 0.287069 0.954567 0.110201
H105  H     H_    0.599617 0.848827 0.923994 0.106873
H106  H     H_    0.400382 0.848827 0.076006 0.106873
H107  H     H_    0.099617 0.348827 0.923994 0.106873
H108  H     H_    0.900383 0.348827 0.076006 0.106873
H109  H     H_    0.938415 0.207415 0.083442 0.109489
H110  H     H_    0.061585 0.207415 0.916558 0.109489
H111  H     H_    0.438415 0.707415 0.083442 0.109489
H112  H     H_    0.561585 0.707415 0.916558 0.109489
H113  H     H_    0.948906 0.183644 0.962960 0.122329
H114  H     H_    0.051093 0.183644 0.037039 0.122329
H115  H     H_    0.448906 0.683644 0.962960 0.122329
H116  H     H_    0.551093 0.683644 0.037039 0.122329
H117  H     H_    0.649622 0.121635 0.575663 0.072406
H118  H     H_    0.350378 0.121635 0.424337 0.072407
H119  H     H_    0.149622 0.621635 0.575663 0.072406
H120  H     H_    0.850378 0.621635 0.424337 0.072407
H121  H     H_    0.717587 0.866264 0.471647 0.139849
H122  H     H_    0.282413 0.866264 0.528353 0.139849
H123  H     H_    0.217586 0.366264 0.471647 0.139849
H124  H     H_    0.782413 0.366264 0.528353 0.139849
H125  H     H_    0.695102 0.941971 0.587284 0.154520
H126  H     H_    0.304898 0.941971 0.412716 0.154520
H127  H     H_    0.195102 0.441971 0.587284 0.154520
H128  H     H_    0.804898 0.441971 0.412716 0.154520
H129  H     H_    0.841639 0.214711 0.544540 0.123216
H130  H     H_    0.158361 0.214711 0.455460 0.123216
H131  H     H_    0.341639 0.714711 0.544540 0.123216
H132  H     H_    0.658361 0.714711 0.455460 0.123216
O1    O     O_R   0.957210 0.449410 0.665480 -0.539553
O2    O     O_R   0.042790 0.449410 0.334520 -0.539553
O3    O     O_R   0.457210 0.949410 0.665480 -0.539553
O4    O     O_R   0.542790 0.949410 0.334520 -0.539553
O5    O     O_R   0.736260 0.212010 0.826560 -0.509728
O6    O     O_R   0.263740 0.212010 0.173440 -0.509728
O7    O     O_R   0.236260 0.712010 0.826560 -0.509728
O8    O     O_R   0.763740 0.712010 0.173440 -0.509728
O9    O     O_R   0.832520 0.095300 0.836000 -0.533061
O10   O     O_R   0.167480 0.095300 0.164000 -0.533061
O11   O     O_R   0.332520 0.595300 0.836000 -0.533061
O12   O     O_R   0.667480 0.595300 0.164000 -0.533061
O13   O     O_R   0.946380 0.253940 0.826940 -0.511888
O14   O     O_R   0.053620 0.253940 0.173060 -0.511888
O15   O     O_R   0.446380 0.753940 0.826940 -0.511888
O16   O     O_R   0.553620 0.753940 0.173060 -0.511888
O17   O     O_3   0.834560 0.334570 0.748840 -0.286194
O18   O     O_3   0.165440 0.334570 0.251160 -0.286194
O19   O     O_3   0.334560 0.834570 0.748840 -0.286194
O20   O     O_3   0.665440 0.834570 0.251160 -0.286194
O21   O     O_R   0.820730 0.541240 0.668250 -0.494424
O22   O     O_R   0.179270 0.541240 0.331750 -0.494424
O23   O     O_R   0.320730 0.041240 0.668250 -0.494424
O24   O     O_R   0.679270 0.041240 0.331750 -0.494424
O25   O     O_R   0.714240 0.455060 0.663710 -0.528548
O26   O     O_R   0.285760 0.455060 0.336290 -0.528548
O27   O     O_R   0.214240 0.955060 0.663710 -0.528548
O28   O     O_R   0.785760 0.955060 0.336290 -0.528548
O29   O     O_R   0.736780 0.204870 0.675910 -0.514209
O30   O     O_R   0.263220 0.204870 0.324090 -0.514209
O31   O     O_R   0.236780 0.704870 0.675910 -0.514209
O32   O     O_R   0.763220 0.704870 0.324090 -0.514209
O33   O     O_R   0.833070 0.087590 0.673490 -0.530321
O34   O     O_R   0.166930 0.087590 0.326510 -0.530322
O35   O     O_R   0.333070 0.587590 0.673490 -0.530321
O36   O     O_R   0.666930 0.587590 0.326510 -0.530321
O37   O     O_R   0.946890 0.246800 0.676300 -0.508202
O38   O     O_R   0.053110 0.246800 0.323700 -0.508202
O39   O     O_R   0.446890 0.746800 0.676300 -0.508202
O40   O     O_R   0.553110 0.746800 0.323700 -0.508202
O41   O     O_R   0.956650 0.457120 0.827980 -0.531519
O42   O     O_R   0.043350 0.457120 0.172020 -0.531519
O43   O     O_R   0.456650 0.957120 0.827980 -0.531519
O44   O     O_R   0.543350 0.957120 0.172020 -0.531519
O45   O     O_R   0.820220 0.548390 0.818890 -0.511137
O46   O     O_R   0.179780 0.548390 0.181110 -0.511137
O47   O     O_R   0.320220 0.048390 0.818890 -0.511137
O48   O     O_R   0.679780 0.048390 0.181110 -0.511137
O49   O     O_R   0.713680 0.462770 0.826210 -0.533478
O50   O     O_R   0.286320 0.462770 0.173790 -0.533478
O51   O     O_R   0.213680 0.962770 0.826210 -0.533478
O52   O     O_R   0.786320 0.962770 0.173790 -0.533478
O53   O     O_3   0.678027 0.228692 0.425741 -0.557405
C121  C     C_3   0.608804 0.261996 0.425008 -0.150614
H133  H     H_    0.588502 0.273341 0.480017 0.112425
H134  H     H_    0.577794 0.197307 0.395069 0.140481
H135  H     H_    0.603823 0.347015 0.397120 0.147322
O54   O     O_3   0.321973 0.228692 0.574259 -0.557405
C122  C     C_3   0.391196 0.261996 0.574992 -0.150614
H136  H     H_    0.411498 0.273341 0.519983 0.112425
H137  H     H_    0.422206 0.197307 0.604931 0.140481
H138  H     H_    0.396176 0.347015 0.602880 0.147322
O55   O     O_3   0.178027 0.728692 0.425741 -0.557405
C123  C     C_3   0.108804 0.761996 0.425008 -0.150614
H139  H     H_    0.088502 0.773341 0.480017 0.112425
H140  H     H_    0.077794 0.697307 0.395069 0.140481
H141  H     H_    0.103823 0.847015 0.397120 0.147322
O56   O     O_3   0.821973 0.728692 0.574259 -0.557405
C124  C     C_3   0.891196 0.761996 0.574992 -0.150614
H142  H     H_    0.911498 0.773341 0.519983 0.112425
H143  H     H_    0.922206 0.697306 0.604931 0.140481
H144  H     H_    0.896176 0.847015 0.602880 0.147322
C125  C     C_1   0.874421 0.041076 0.422937 0.169985
N1    N     N_1   0.918786 0.982706 0.403432 -0.349156
C126  C     C_1   0.125579 0.041076 0.577063 0.169985
N2    N     N_1   0.081214 0.982706 0.596568 -0.349157
C127  C     C_1   0.374421 0.541076 0.422937 0.169985
N3    N     N_1   0.418786 0.482706 0.403432 -0.349156
C128  C     C_1   0.625579 0.541076 0.577063 0.169985
N4    N     N_1   0.581214 0.482706 0.596568 -0.349157
O57   O     O_3   0.814685 0.225570 0.416193 -0.592446
C129  C     C_3   0.815356 0.226268 0.340156 -0.103245
H145  H     H_    0.762977 0.223038 0.318854 0.184878
H146  H     H_    0.847098 0.157219 0.315495 0.142379
H147  H     H_    0.836895 0.310324 0.321468 0.089330
O58   O     O_3   0.185314 0.225570 0.583806 -0.592446
C130  C     C_3   0.184643 0.226268 0.659844 -0.103246
H148  H     H_    0.237023 0.223038 0.681145 0.184878
H149  H     H_    0.152902 0.157219 0.684505 0.142379
H150  H     H_    0.163105 0.310324 0.678532 0.089330
O59   O     O_3   0.314686 0.725570 0.416193 -0.592446
C131  C     C_3   0.315356 0.726268 0.340156 -0.103246
H151  H     H_    0.262977 0.723038 0.318855 0.184878
H152  H     H_    0.347098 0.657219 0.315495 0.142379
H153  H     H_    0.336895 0.810324 0.321468 0.089330
O60   O     O_3   0.685314 0.725570 0.583806 -0.592446
C132  C     C_3   0.684643 0.726268 0.659844 -0.103246
H154  H     H_    0.737023 0.723038 0.681145 0.184878
H155  H     H_    0.652902 0.657218 0.684505 0.142379
H156  H     H_    0.663105 0.810324 0.678532 0.089330

loop_
_geom_bond_atom_site_label_1
_geom_bond_atom_site_label_2
_ccdc_geom_bond_type
C78   H94   S    
C82   C94   S    
C119  H11   S    
C120  H12   S    
C41   C61   S    
C53   C69   S    
C56   H60   S    
C125  N1    T    
C43   C63   S    
C50   H50   S    
C124  H142  S    
C44   C64   S    
C84   H115  S    
C114  H86   S    
C63   C98   S    
C51   H51   S    
C19   H127  S    
C35   C39   S    
C31   H40   S    
C28   C40   S    
Cr12  O12   S    
C36   H36   S    
C30   C38   S    
Cr8   O32   S    
C113  H85   S    
C43   H43   S    
C56   C72   S    
C98   O46   A    
C106  O14   A    
C21   H5    S    
C18   C118  S    
C81   C86   S    
C83   C88   S    
C87   H106  S    
C92   O40   A    
C91   O3    A    
C41   C49   S    
C132  H156  S    
C109  H1    S    
C122  H136  S    
C46   O34   A    
Cr1   O1    S    
C18   H14   S    
C26   C38   S    
C14   C114  S    
Cr4   O4    S    
C131  H153  S    
C24   H8    S    
C55   H59   S    
C41   H45   S    
C15   C19   S    
C30   H37   S    
C88   H112  S    
C8    O60   S    
O59   C131  S    
C54   C70   S    
C23   H131  S    
C68   C72   S    
C43   H47   S    
C69   H61   S    
C1    O25   A    
C98   O50   A    
C102  O10   A    
C79   H99   S    
C31   H25   S    
Cr5   O49   S    
C64   C97   S    
C36   H29   S    
C15   C115  S    
Cr6   O50   S    
Cr7   O31   S    
C124  H144  S    
C54   H82   S    
Cr1   O41   S    
C121  H135  S    
C57   H65   S    
C77   H97   S    
Cr6   O6    S    
C52   H52   S    
C72   H64   S    
C57   C61   S    
C82   C85   S    
C59   C63   S    
C60   C64   S    
C13   C45   S    
C56   C64   S    
C66   C70   S    
C78   C94   S    
Cr9   O33   S    
C69   H89   S    
O58   C130  S    
C95   C108  S    
C60   H68   S    
C62   C99   S    
C92   O4    A    
C5    C21   S    
C108  O44   A    
C31   C36   S    
C48   O36   A    
C55   C71   S    
C76   H76   S    
Cr6   O30   S    
C72   H92   S    
Cr7   O51   S    
Cr2   O2    S    
C5    C125  S    
C130  H148  S    
C65   C101  S    
C43   C51   S    
Cr11  O19   S    
C130  H150  S    
C67   C103  S    
C37   C90   S    
Cr10  O34   S    
Cr11  O39   S    
C42   H46   S    
C55   H83   S    
C100  O48   A    
C115  H119  S    
C66   C74   S    
C113  H117  S    
C25   H17   S    
C57   C73   S    
C121  H134  S    
C53   C61   S    
C60   H72   S    
C83   H101  S    
C87   C95   S    
C20   H16   S    
C10   C110  S    
C116  H88   S    
C47   O31   A    
C42   C62   S    
C48   O32   A    
C89   O37   A    
C129  H146  S    
C8    C128  S    
C76   H80   S    
C91   O39   A    
Cr7   O7    S    
Cr8   O8    S    
C7    C127  S    
C1    C12   S    
Cr1   O17   S    
C80   H100  S    
C2    C11   S    
O60   C132  S    
Cr4   O20   S    
Cr12  O16   S    
C112  H4    S    
O56   C124  S    
C42   H42   S    
C25   C26   S    
C101  O5    A    
C109  O53   S    
C122  H137  S    
C103  O7    A    
C110  O54   S    
C84   H102  S    
C5    C9    S    
C59   H71   S    
C93   C106  S    
C71   H63   S    
C104  O12   A    
C8    C12   S    
C131  H152  S    
C51   C67   S    
C58   H70   S    
C42   C50   S    
C49   H49   S    
Cr5   O17   S    
C110  H2    S    
C61   C100  S    
C67   C75   S    
Cr8   O20   S    
C17   H125  S    
C50   H54   S    
C112  C116  S    
C58   C74   S    
C129  H147  S    
C41   H41   S    
C53   H81   S    
C54   H58   S    
C81   H114  S    
C33   H33   S    
C44   H44   S    
C123  H139  S    
C68   C76   S    
C107  O15   A    
C13   C17   S    
C85   H108  S    
C14   C22   S    
C99   O51   A    
C103  O11   A    
C13   C21   S    
C7    C23   S    
C8    C24   S    
C89   O1    A    
C40   C91   S    
Cr5   O25   S    
C56   H84   S    
Cr4   O44   S    
Cr8   O28   S    
C49   H53   S    
Cr1   O45   S    
C57   H69   S    
Cr2   O42   S    
Cr9   O37   S    
Cr3   O47   S    
C46   O30   A    
C4    C9    S    
C53   H57   S    
C86   H110  S    
C58   C62   S    
C88   C96   S    
C94   C105  S    
C77   H93   S    
C82   H104  S    
Cr9   O9    S    
C12   C112  S    
C44   H48   S    
C1    O21   A    
C14   C46   S    
C77   C78   S    
C3    O23   A    
C132  H155  S    
C75   H79   S    
C55   C63   S    
C101  O9    A    
C6    C22   S    
C9    C117  S    
C66   C102  S    
C73   H73   S    
Cr6   O26   S    
C20   C120  S    
C3    O27   A    
Cr10  O10   S    
Cr12  O36   S    
Cr11  O15   S    
C82   H113  S    
C17   C117  S    
O54   C122  S    
C19   C119  S    
Cr10  O38   S    
C9    C109  S    
Cr11  O35   S    
C123  H141  S    
C16   C116  S    
C100  O52   A    
C75   H75   S    
C124  H143  S    
C27   H23   S    
C117  H9    S    
C25   H21   S    
C26   H18   S    
C54   C62   S    
C107  O43   A    
C11   C111  S    
C29   C34   S    
C19   H15   S    
C45   O33   A    
C47   O35   A    
C4    O28   A    
C79   C95   S    
C90   O38   A    
C126  N2    T    
C70   H62   S    
C85   H109  S    
C86   H107  S    
Cr1   O21   S    
C80   H96   S    
Cr2   O18   S    
C7    O59   S    
Cr4   O24   S    
Cr12  O20   S    
C32   H39   S    
C39   C92   S    
C73   H77   S    
C27   H19   S    
C102  O6    A    
C68   C104  S    
C6    O58   S    
C119  H123  S    
C17   H13   S    
C6    C10   S    
C130  H149  S    
C22   H130  S    
C78   H98   S    
C22   H6    S    
O55   C123  S    
C2    O26   A    
C65   C69   S    
Cr6   O18   S    
C77   C93   S    
C70   H90   S    
C60   C76   S    
Cr4   O48   S    
C67   C71   S    
C111  H3    S    
C33   C37   S    
C18   H126  S    
C51   H55   S    
Cr3   O3    S    
Cr12  O40   S    
C29   C37   S    
C34   H34   S    
C30   H28   S    
C128  N4    T    
C97   O45   A    
C105  O13   A    
C14   C18   S    
C99   O47   A    
C84   C87   S    
C15   C47   S    
C11   C119  S    
C16   C48   S    
C104  O8    A    
C29   H27   S    
C127  N3    T    
C7    C11   S    
C38   C89   S    
C4    O24   A    
C49   C65   S    
C74   H78   S    
C23   H7    S    
C90   O2    A    
C114  H118  S    
Cr2   O46   S    
C65   C73   S    
Cr3   O43   S    
C84   C96   S    
Cr7   O19   S    
C6    C126  S    
C118  H122  S    
C25   C37   S    
C12   C120  S    
C59   H67   S    
C83   H116  S    
C35   H35   S    
Cr9   O13   S    
C29   H38   S    
C80   C96   S    
C86   C94   S    
C52   C68   S    
C16   C20   S    
C2    O22   A    
C15   C23   S    
C16   C24   S    
C97   O49   A    
C115  H87   S    
C85   C93   S    
C79   H95   S    
C106  O42   A    
C32   H26   S    
C35   H30   S    
C71   H91   S    
C117  H121  S    
C32   C35   S    
C36   C40   S    
C33   H32   S    
C123  H140  S    
C34   H31   S    
C27   C39   S    
Cr7   O27   S    
C116  H120  S    
Cr8   O52   S    
C5    O57   S    
Cr5   O5    S    
Cr10  O14   S    
C120  H124  S    
Cr11  O11   S    
C121  H133  S    
C10   C118  S    
C81   C93   S    
C87   H111  S    
C83   C95   S    
C24   H132  S    
C81   H103  S    
Cr9   O17   S    
C50   C66   S    
Cr3   O23   S    
C20   H128  S    
C21   H129  S    
C28   H20   S    
C26   H22   S    
C59   C75   S    
C74   H74   S    
C110  C114  S    
C58   H66   S    
C30   C33   S    
C34   C38   S    
C45   O29   A    
C96   C107  S    
C118  H10   S    
Cr5   O29   S    
C109  C113  S    
C52   H56   S    
C132  H154  S    
C122  H138  S    
Cr2   O22   S    
Cr10  O18   S    
C3    C10   S    
Cr3   O19   S    
C44   C52   S    
C129  H145  S    
C88   H105  S    
C131  H151  S    
C31   C39   S    
C32   C40   S    
O53   C121  S    
C112  O56   S    
C79   C80   S    
C27   C28   S    
C28   H24   S    
C111  C115  S    
C111  O55   S    
O57   C129  S    
C108  O16   A    
C13   C113  S    
C105  O41   A    
