data_mof_unit_37824.cif
_audit_creation_date              2013-03-05T15:42:34-0500
_audit_creation_method            fapswitch 2.2
_symmetry_space_group_name_H-M    P1
_symmetry_Int_Tables_number       1
_space_group_crystal_system       triclinic
_cell_length_a                    29.029692
_cell_length_b                    17.420353
_cell_length_c                    18.736807
_cell_angle_alpha                 89.745781
_cell_angle_beta                  139.064475
_cell_angle_gamma                 90.078717
_cell_volume                      6208.24413777

loop_
_atom_site_label
_atom_site_type_symbol
_atom_site_description
_atom_site_fract_x
_atom_site_fract_y
_atom_site_fract_z
_atom_type_partial_charge
C1    C     C_R   0.686482 0.898263 0.799514 -0.139330
C2    C     C_R   0.668643 0.078643 0.814492 -0.140374
C3    C     C_R   0.186487 0.398213 0.799491 -0.139257
C4    C     C_R   0.168640 0.578636 0.814492 -0.140430
H1    H     H_    0.736336 0.926991 0.851517 0.090292
H2    H     H_    0.716752 0.046535 0.878130 0.102935
H3    H     H_    0.236348 0.426938 0.851555 0.090400
H4    H     H_    0.216745 0.546520 0.878126 0.103064
N1    N     N_R   0.625250 0.928170 0.708660 -0.035043
N2    N     N_R   0.625250 0.071830 0.708660 -0.038000
N3    N     N_R   0.125250 0.428170 0.708660 -0.035067
N4    N     N_R   0.125250 0.571830 0.708660 -0.037994
C5    C     C_R   0.329065 0.102943 0.414318 -0.134023
C6    C     C_R   0.357625 0.924583 0.484048 -0.129280
C7    C     C_R   0.829069 0.602940 0.414335 -0.133155
C8    C     C_R   0.857625 0.424583 0.484048 -0.129338
H5    H     H_    0.278217 0.075585 0.354918 0.088379
H6    H     H_    0.316358 0.961649 0.454812 0.094974
H7    H     H_    0.778220 0.575584 0.354935 0.088425
H8    H     H_    0.816357 0.461647 0.454810 0.094913
N5    N     N_R   0.386350 0.070500 0.452620 -0.043053
N6    N     N_R   0.386350 0.929500 0.452620 -0.043247
N7    N     N_R   0.886350 0.570500 0.452620 -0.043134
N8    N     N_R   0.886350 0.429500 0.452620 -0.043261
C9    C     C_R   0.440261 0.831748 0.572536 -0.105463
C10   C     C_R   0.410828 0.194801 0.502250 -0.114270
C11   C     C_R   0.940264 0.331752 0.572541 -0.105512
C12   C     C_R   0.910834 0.694798 0.502268 -0.114877
H9    H     H_    0.475556 0.784803 0.625274 0.092222
H10   H     H_    0.435070 0.250269 0.523469 0.097652
H11   H     H_    0.975563 0.284810 0.625286 0.092206
H12   H     H_    0.935075 0.750266 0.523488 0.097513
N9    N     N_R   0.437960 0.869720 0.507940 -0.039924
N10   N     N_R   0.437960 0.130280 0.507940 -0.043773
N11   N     N_R   0.937960 0.369720 0.507940 -0.039929
N12   N     N_R   0.937960 0.630280 0.507940 -0.043765
C13   C     C_R   0.584372 0.169444 0.724087 -0.142444
C14   C     C_R   0.604408 0.807337 0.712983 -0.145131
C15   C     C_R   0.084371 0.669440 0.724090 -0.142444
C16   C     C_R   0.104398 0.307309 0.712904 -0.145059
H13   H     H_    0.552968 0.218435 0.702365 0.093750
H14   H     H_    0.578737 0.752286 0.687083 0.097054
H15   H     H_    0.052968 0.718431 0.702369 0.093754
H16   H     H_    0.078682 0.252283 0.686911 0.097037
N13   N     N_R   0.573630 0.128950 0.653340 -0.038606
N14   N     N_R   0.573630 0.871050 0.653340 -0.037333
N15   N     N_R   0.073630 0.628950 0.653340 -0.038604
N16   N     N_R   0.073630 0.371050 0.653340 -0.037360
C17   C     C_R   0.674981 0.822814 0.804457 0.024813
C18   C     C_R   0.644806 0.140393 0.826530 0.028421
C19   C     C_R   0.174991 0.322721 0.804334 0.024631
C20   C     C_R   0.144803 0.640385 0.826533 0.028397
C21   C     C_R   0.342571 0.180186 0.443561 0.089828
C22   C     C_R   0.391622 0.865513 0.561333 0.054514
C23   C     C_R   0.842580 0.680180 0.443595 0.090183
C24   C     C_R   0.891624 0.365516 0.561337 0.054541
C25   C     C_R   0.667145 0.103796 0.585143 -0.138607
C26   C     C_R   0.639085 0.923688 0.516576 -0.128752
C27   C     C_R   0.167147 0.603795 0.585148 -0.138627
C28   C     C_R   0.139089 0.423684 0.516583 -0.128735
H17   H     H_    0.717882 0.075872 0.644128 0.085812
H18   H     H_    0.680022 0.961140 0.545435 0.095896
H19   H     H_    0.217883 0.575869 0.644132 0.085839
H20   H     H_    0.180028 0.461135 0.545443 0.095898
N17   N     N_R   0.609990 0.071870 0.547380 -0.040424
N18   N     N_R   0.609990 0.928130 0.547380 -0.042132
N19   N     N_R   0.109990 0.571870 0.547380 -0.040421
N20   N     N_R   0.109990 0.428130 0.547380 -0.042123
C29   C     C_R   0.310974 0.892250 0.201157 -0.144800
C30   C     C_R   0.329306 0.082107 0.186080 -0.114998
C31   C     C_R   0.810975 0.392254 0.201154 -0.144957
C32   C     C_R   0.829317 0.582119 0.186078 -0.113794
H21   H     H_    0.260679 0.920178 0.149493 0.093361
H22   H     H_    0.280932 0.050419 0.123545 0.084814
H23   H     H_    0.760680 0.420185 0.149488 0.093484
H24   H     H_    0.780939 0.550441 0.123485 0.084517
N21   N     N_R   0.371090 0.922150 0.291340 -0.039148
N22   N     N_R   0.371090 0.077850 0.291340 -0.032372
N23   N     N_R   0.871090 0.422150 0.291340 -0.039212
N24   N     N_R   0.871090 0.577850 0.291340 -0.032176
C33   C     C_R   0.557322 0.830946 0.429443 -0.134742
C34   C     C_R   0.585282 0.195422 0.497473 -0.163926
C35   C     C_R   0.057327 0.330941 0.429451 -0.134778
C36   C     C_R   0.085289 0.695423 0.497489 -0.163826
H25   H     H_    0.523755 0.783012 0.378951 0.102394
H26   H     H_    0.561015 0.250948 0.476449 0.102671
H27   H     H_    0.023760 0.283005 0.378961 0.102382
H28   H     H_    0.061027 0.750951 0.476481 0.102387
N25   N     N_R   0.558380 0.869490 0.492060 -0.041839
N26   N     N_R   0.558380 0.130510 0.492060 -0.045071
N27   N     N_R   0.058380 0.369490 0.492060 -0.041838
N28   N     N_R   0.058380 0.630510 0.492060 -0.045051
C37   C     C_R   0.415012 0.165904 0.278280 -0.026376
C38   C     C_R   0.396930 0.810212 0.289800 -0.112986
C39   C     C_R   0.915017 0.665940 0.278322 -0.026917
C40   C     C_R   0.896930 0.310214 0.289798 -0.112957
H29   H     H_    0.446984 0.214780 0.302107 0.097321
H30   H     H_    0.425955 0.757250 0.319927 0.155677
H31   H     H_    0.947039 0.714775 0.302209 0.096677
H32   H     H_    0.925954 0.257251 0.319923 0.155682
N29   N     N_R   0.422710 0.124520 0.346660 -0.037096
N30   N     N_R   0.422710 0.875480 0.346660 -0.044678
N31   N     N_R   0.922710 0.624520 0.346660 -0.037094
N32   N     N_R   0.922710 0.375480 0.346660 -0.044705
Ni1   Ni    Ni4+2 0.616550 0.000000 0.626870 0.206607
Ni2   Ni    Ni4+2 0.116550 0.500000 0.626870 0.206616
Ni3   Ni    Ni4+2 0.379790 0.000000 0.373130 0.218545
Ni4   Ni    Ni4+2 0.879790 0.500000 0.373130 0.218902
Ni5   Ni    Ni4+2 0.498170 0.870760 0.500000 0.232574
Ni6   Ni    Ni4+2 0.498170 0.129240 0.500000 0.232654
Ni7   Ni    Ni4+2 0.998170 0.370760 0.500000 0.232509
Ni8   Ni    Ni4+2 0.998170 0.629240 0.500000 0.232423
C41   C     C_R   0.653548 0.181044 0.555809 0.074277
C42   C     C_R   0.605815 0.864661 0.440404 0.059727
C43   C     C_R   0.153554 0.681045 0.555824 0.074267
C44   C     C_R   0.105822 0.364652 0.440416 0.059736
C45   C     C_R   0.325684 0.819477 0.196919 0.006874
C46   C     C_R   0.355461 0.140019 0.174226 -0.033388
C47   C     C_R   0.825685 0.319481 0.196915 0.006920
C48   C     C_R   0.855449 0.640105 0.174273 -0.033165
C49   C     C_3   0.651243 0.254831 0.912758 -0.410625
C50   C     C_3   0.718722 0.688089 0.870304 -0.394771
C51   C     C_3   0.151242 0.754822 0.912764 -0.410620
C52   C     C_3   0.218190 0.187833 0.870085 -0.394891
H33   H     H_    0.630121 0.292679 0.845073 0.162977
H34   H     H_    0.731822 0.682701 0.827993 0.169571
H35   H     H_    0.130118 0.792671 0.845079 0.162953
H36   H     H_    0.231054 0.181960 0.827478 0.169628
H37   H     H_    0.606423 0.234982 0.893772 0.162222
H38   H     H_    0.664263 0.666667 0.814108 0.155223
H39   H     H_    0.106423 0.734971 0.893781 0.162201
H40   H     H_    0.163659 0.166774 0.814146 0.155114
C53   C     C_3   0.201262 0.802863 0.015735 -0.465575
C54   C     C_3   0.268047 0.137187 0.973307 -0.457905
C55   C     C_3   0.701263 0.302872 0.015728 -0.465577
C56   C     C_3   0.768699 0.637440 0.973550 -0.458062
H41   H     H_    0.181795 0.805813 0.048925 0.161550
H42   H     H_    0.236178 0.093638 0.964919 0.153439
H43   H     H_    0.681794 0.305824 0.048916 0.161584
H44   H     H_    0.737032 0.593337 0.964886 0.153532
H45   H     H_    0.700566 0.362150 0.992379 0.174396
H46   H     H_    0.805691 0.606361 0.981052 0.182206
H47   H     H_    0.200563 0.862143 0.992384 0.174384
H48   H     H_    0.304611 0.105437 0.980352 0.182080
H49   H     H_    0.731439 0.247865 0.880485 0.157484
H50   H     H_    0.815616 0.798199 0.937508 0.151562
H51   H     H_    0.231434 0.747860 0.880485 0.157475
H52   H     H_    0.315328 0.297204 0.936364 0.151423
H53   H     H_    0.299368 0.825678 0.026652 0.156967
H54   H     H_    0.387125 0.214119 0.081431 0.154821
H55   H     H_    0.799374 0.325681 0.026654 0.156958
H56   H     H_    0.887627 0.715512 0.082971 0.154776
C57   C     C_3   0.752383 0.215121 0.951622 -0.375096
C58   C     C_3   0.802388 0.799228 0.979874 -0.389771
C59   C     C_3   0.252380 0.715116 0.951622 -0.375076
C60   C     C_3   0.302463 0.298571 0.979236 -0.389496
C61   C     C_3   0.221084 0.636183 0.024409 -0.486157
C62   C     C_3   0.207226 0.281018 0.960263 -0.500050
C63   C     C_3   0.721082 0.136191 0.024403 -0.486209
C64   C     C_3   0.706767 0.780526 0.959796 -0.500231
C65   C     C_3   0.690991 0.185327 0.927047 0.329651
C66   C     C_3   0.725062 0.773258 0.901175 0.330690
C67   C     C_3   0.190990 0.685319 0.927051 0.329629
C68   C     C_3   0.225064 0.273131 0.901044 0.330765
H57   H     H_    0.247923 0.584281 0.034638 0.203326
H58   H     H_    0.210799 0.342308 0.980742 0.205913
H59   H     H_    0.747919 0.084287 0.034633 0.203208
H60   H     H_    0.710123 0.841705 0.980408 0.206034
H61   H     H_    0.677333 0.115389 0.007593 0.149648
H62   H     H_    0.651451 0.762288 0.904720 0.139828
H63   H     H_    0.177337 0.615379 0.007602 0.149598
H64   H     H_    0.151918 0.262988 0.905598 0.139916
C69   C     C_3   0.276984 0.768340 0.102253 0.217131
C70   C     C_3   0.310185 0.187944 0.075528 0.223096
C71   C     C_3   0.776984 0.268346 0.102249 0.217131
C72   C     C_3   0.810173 0.688056 0.075617 0.223046
C73   C     C_3   0.300917 0.766574 0.051423 -0.359637
C74   C     C_3   0.352976 0.245815 0.079622 -0.366978
C75   C     C_3   0.800920 0.266578 0.051423 -0.359641
C76   C     C_3   0.852908 0.746618 0.080372 -0.367549
C77   C     C_3   0.272457 0.685336 0.129645 0.257258
C78   C     C_3   0.256664 0.230675 0.062662 0.267467
C79   C     C_3   0.772454 0.185343 0.129639 0.257366
C80   C     C_3   0.756069 0.729992 0.061990 0.267907
H65   H     H_    0.249871 0.690713 0.157870 0.066246
H66   H     H_    0.223320 0.186465 0.050330 0.053829
H67   H     H_    0.749867 0.190722 0.157862 0.066254
H68   H     H_    0.722703 0.685342 0.048933 0.053555
H69   H     H_    0.783803 0.166354 0.967062 0.175165
H70   H     H_    0.809958 0.858873 0.008210 0.181364
H71   H     H_    0.283800 0.666351 0.967061 0.175210
H72   H     H_    0.310469 0.358257 0.007798 0.181633
H73   H     H_    0.356153 0.746397 0.110854 0.190018
H74   H     H_    0.388291 0.282067 0.153467 0.192188
H75   H     H_    0.856156 0.246398 0.110856 0.190018
H76   H     H_    0.887628 0.782961 0.154072 0.192667
C81   C     C_R   0.622082 0.838946 0.386688 0.123049
C82   C     C_R   0.704108 0.238750 0.589815 0.122555
C83   C     C_R   0.122091 0.338934 0.386703 0.123080
C84   C     C_R   0.204115 0.738750 0.589832 0.122593
C85   C     C_R   0.292012 0.238023 0.409500 0.162417
C86   C     C_R   0.375427 0.839721 0.615325 0.129211
C87   C     C_R   0.792025 0.738017 0.409545 0.162974
C88   C     C_R   0.875428 0.339725 0.615328 0.129253
C89   C     C_R   0.272243 0.362250 0.440777 -0.221505
C90   C     C_R   0.376838 0.735535 0.703058 -0.221619
C91   C     C_R   0.772254 0.862247 0.440811 -0.221270
C92   C     C_R   0.876836 0.235539 0.703055 -0.221728
C93   C     C_R   0.314177 0.313466 0.449673 -0.123319
C94   C     C_R   0.407017 0.772994 0.680419 -0.161723
C95   C     C_R   0.814193 0.813457 0.449725 -0.123993
C96   C     C_R   0.907017 0.272998 0.680421 -0.161859
C97   C     C_R   0.223380 0.216029 0.347015 -0.258410
C98   C     C_R   0.320850 0.875254 0.589324 -0.276743
C99   C     C_R   0.723389 0.716028 0.347043 -0.256983
C100  C     C_R   0.820850 0.375257 0.589324 -0.276753
C101  C     C_R   0.182577 0.263158 0.342409 0.177218
C102  C     C_R   0.287923 0.835922 0.606048 0.185507
C103  C     C_R   0.682581 0.763162 0.342420 0.176721
C104  C     C_R   0.787919 0.335924 0.606041 0.185469
C105  C     C_R   0.708947 0.835152 0.394674 0.180005
C106  C     C_R   0.814057 0.263568 0.658287 0.189737
C107  C     C_R   0.208944 0.335148 0.394661 0.180009
C108  C     C_R   0.314061 0.763566 0.658295 0.189669
C109  C     C_R   0.676630 0.874202 0.412463 -0.269346
C110  C     C_R   0.772929 0.216481 0.653137 -0.281066
C111  C     C_R   0.176634 0.374193 0.412468 -0.269425
C112  C     C_R   0.272935 0.716480 0.653150 -0.281040
C113  C     C_R   0.590093 0.772830 0.321241 -0.169194
C114  C     C_R   0.681895 0.314288 0.548986 -0.172407
C115  C     C_R   0.090102 0.272816 0.321260 -0.169242
C116  C     C_R   0.181903 0.814289 0.549006 -0.172477
C117  C     C_R   0.619925 0.735483 0.298172 -0.214925
C118  C     C_R   0.724250 0.363152 0.558744 -0.221530
C119  C     C_R   0.119928 0.235473 0.298178 -0.215096
C120  C     C_R   0.224255 0.863151 0.558758 -0.221566
H77   H     H_    0.699557 0.927370 0.457461 0.118674
H78   H     H_    0.792268 0.159737 0.688859 0.116306
H79   H     H_    0.199562 0.427361 0.457465 0.118697
H80   H     H_    0.292273 0.659735 0.688870 0.116322
H81   H     H_    0.545298 0.746325 0.294232 0.128299
H82   H     H_    0.630115 0.334522 0.502852 0.125363
H83   H     H_    0.045311 0.246308 0.294260 0.128284
H84   H     H_    0.130124 0.834524 0.502876 0.125202
H85   H     H_    0.792423 0.918100 0.479190 0.133290
H86   H     H_    0.898595 0.181035 0.746004 0.126708
H87   H     H_    0.292411 0.418104 0.479154 0.133317
H88   H     H_    0.398598 0.681032 0.746006 0.126769
H89   H     H_    0.097908 0.181350 0.255071 0.130662
H90   H     H_    0.204175 0.919206 0.520126 0.132010
H91   H     H_    0.597905 0.681360 0.255063 0.130716
H92   H     H_    0.704169 0.419207 0.520111 0.132058
H93   H     H_    0.365687 0.333705 0.494823 0.118681
H94   H     H_    0.451655 0.746124 0.707225 0.115117
H95   H     H_    0.865707 0.833692 0.494890 0.118615
H96   H     H_    0.951656 0.246128 0.707229 0.115070
H97   H     H_    0.204045 0.159424 0.311691 0.113973
H98   H     H_    0.298253 0.928902 0.544715 0.118301
H99   H     H_    0.704052 0.659425 0.311714 0.113903
H100  H     H_    0.798254 0.428906 0.544715 0.118289
N33   N     N_R   0.340921 0.646797 0.216126 0.230486
O1    O     O_R   0.364853 0.628235 0.306962 -0.403915
O2    O     O_R   0.375571 0.625027 0.200343 -0.432368
N34   N     N_R   0.291138 0.275800 0.159136 0.239173
O3    O     O_R   0.282610 0.256727 0.215815 -0.412400
O4    O     O_R   0.326872 0.337296 0.185557 -0.408280
N35   N     N_R   0.840917 0.146802 0.216121 0.230419
O5    O     O_R   0.864847 0.128241 0.306957 -0.404089
O6    O     O_R   0.875568 0.125029 0.200342 -0.432744
N36   N     N_R   0.789875 0.774674 0.158387 0.239276
O7    O     O_R   0.780866 0.754842 0.214237 -0.412687
O8    O     O_R   0.825469 0.836495 0.185534 -0.408252

loop_
_geom_bond_atom_site_label_1
_geom_bond_atom_site_label_2
_geom_bond_distance
_ccdc_geom_bond_type
C26   H18   1.077243 S    
C35   H27   1.074133 S    
C56   C72   1.554856 S    
C53   H41   1.113593 S    
C82   C110  1.402237 A    
C110  H78   1.080841 S    
C58   C76   1.533770 S    
C30   N22   1.323252 A    
C109  H77   1.081242 S    
C6    H6    1.076852 S    
C40   C47   1.375675 A    
C29   N21   1.312237 A    
N31   Ni8   1.884810 S    
C4    H4    1.079487 S    
C87   C95   1.408008 A    
C101  C119  1.396758 A    
C80   N36   1.470872 S    
C104  C106  1.411458 A    
C61   H57   1.111771 S    
N21   N30   1.276709 A    
C14   C17   1.380137 A    
C57   H69   1.112920 S    
C7    H7    1.079495 S    
H56   C76   1.113094 S    
C74   H74   1.107722 S    
C36   N28   1.333347 A    
C117  H91   1.083950 S    
C85   C97   1.401630 A    
N20   Ni2   1.846460 S    
C51   C53   1.519679 S    
C82   C114  1.407388 A    
C1    H1    1.079861 S    
C87   C99   1.401632 A    
C8    H8    1.076848 S    
C112  H80   1.080842 S    
C3    H3    1.079849 S    
C13   H13   1.078692 S    
C78   H66   1.115831 S    
N33   O1    1.301229 A    
C38   C45   1.375671 A    
C107  C111  1.389334 A    
C38   H30   1.076429 S    
C64   H62   1.114554 S    
C92   C106  1.397310 A    
N6    Ni3   1.821739 S    
N25   Ni5   1.862989 S    
C116  C120  1.388741 A    
N20   N27   1.421770 A    
C79   N35   1.467883 S    
C52   H40   1.110879 S    
N14   Ni5   1.882622 S    
C16   N16   1.327369 A    
C84   C112  1.402238 A    
C99   H99   1.080944 S    
C25   H17   1.079447 S    
C45   C69   1.469756 S    
C83   C115  1.407734 A    
C30   H22   1.080380 S    
C94   H94   1.080173 S    
C56   H46   1.113060 S    
C2    C18   1.388121 A    
C27   N19   1.337946 A    
H55   C75   1.114398 S    
C56   H44   1.111479 S    
C26   N18   1.337755 A    
N22   N29   1.279940 A    
C90   C108  1.397308 A    
N34   O3    1.301288 A    
C39   N31   1.330502 A    
C42   C81   1.469469 S    
C1    C17   1.375493 A    
C33   C42   1.389539 A    
N12   Ni8   1.862934 S    
C25   N17   1.337943 A    
C81   C113  1.407734 A    
C41   C82   1.469495 S    
C63   C65   1.550449 S    
C29   H21   1.080677 S    
N8    Ni4   1.821739 S    
C69   C73   1.546228 S    
C4    N4    1.326888 A    
H51   C59   1.114169 S    
C70   C74   1.555178 S    
C76   H76   1.107562 S    
C32   H24   1.080447 S    
C52   H36   1.112858 S    
C47   C71   1.469741 S    
C96   H96   1.080172 S    
C7    N7    1.340054 A    
C15   C20   1.387172 A    
C58   H70   1.112538 S    
C69   C77   1.570442 S    
N1    N14   1.402969 A    
C8    N8    1.338174 A    
C31   H23   1.080677 S    
C18   C65   1.467109 S    
C91   C95   1.388135 A    
C63   H61   1.113021 S    
C70   C78   1.569047 S    
N3    N16   1.402969 A    
C2    H2    1.079480 S    
C61   C77   1.553627 S    
C86   C94   1.407178 A    
N4    N15   1.399361 A    
C91   H85   1.084026 S    
C85   C93   1.408009 A    
C12   C23   1.381785 A    
C10   N10   1.330247 A    
C33   H25   1.074132 S    
N18   N25   1.421770 A    
C5    C21   1.394667 A    
C9    H9    1.077250 S    
N17   N26   1.418114 A    
C93   H93   1.079750 S    
C53   H47   1.113950 S    
N8    N11   1.432450 A    
N24   N31   1.279940 A    
C11   H11   1.077253 S    
C100  C104  1.389313 A    
C12   H12   1.079714 S    
C1    N1    1.323546 A    
C9    C22   1.391803 A    
C48   C72   1.469943 S    
C88   C100  1.401604 A    
C98   C102  1.389316 A    
C118  H92   1.084010 S    
N33   O2    1.301735 A    
C44   C83   1.469475 S    
C3    C19   1.375705 A    
N13   Ni6   1.882570 S    
N28   Ni8   1.862916 S    
C75   H75   1.111291 S    
N5    N10   1.436138 A    
C50   H38   1.110881 S    
C11   N11   1.333330 A    
N29   Ni6   1.884810 S    
C34   H26   1.079962 S    
C15   N15   1.317260 A    
C51   H39   1.113366 S    
C89   C107  1.395844 A    
C21   C85   1.469595 S    
C31   N23   1.312226 A    
C80   H68   1.115640 S    
C105  C109  1.389325 A    
C57   C65   1.554770 S    
N22   Ni3   1.910293 S    
C55   C71   1.559682 S    
C50   H34   1.112755 S    
C90   H88   1.083938 S    
C8    C24   1.400029 A    
C37   N29   1.330741 A    
C49   H33   1.112564 S    
C114  H82   1.080064 S    
C46   C70   1.470134 S    
C99   C103  1.389991 A    
C108  C112  1.389806 A    
C103  C105  1.411805 A    
C51   C67   1.550247 S    
C90   C94   1.389493 A    
C72   C76   1.555000 S    
C51   H35   1.112562 S    
H50   C58   1.112938 S    
C89   C93   1.388143 A    
C92   C96   1.389495 A    
C78   N34   1.471118 S    
C88   C96   1.407174 A    
N2    N13   1.399361 A    
H53   C73   1.114398 S    
C5    N5    1.340054 A    
C19   C68   1.467179 S    
C25   C41   1.391357 A    
C49   C55   1.519674 S    
C119  H89   1.083949 S    
C102  C108  1.411458 A    
N21   Ni3   1.919434 S    
C62   C78   1.529107 S    
C50   C56   1.540628 S    
C17   C66   1.466922 S    
N5    Ni3   1.830276 S    
C59   H71   1.112921 S    
C60   H72   1.112582 S    
N34   O4    1.301743 A    
C84   C116  1.407389 A    
C6    C22   1.400033 A    
C4    C20   1.388129 A    
C10   H10   1.079716 S    
C36   C43   1.382354 A    
C60   C74   1.534215 S    
C32   C48   1.376299 A    
C40   N32   1.338503 A    
N26   Ni6   1.862916 S    
N30   Ni5   1.883960 S    
N10   Ni6   1.862934 S    
N36   O8    1.301513 A    
N23   N32   1.276709 A    
C28   C44   1.398132 A    
N9    Ni5   1.862875 S    
C37   C46   1.380672 A    
C100  H100  1.081058 S    
N18   Ni1   1.846460 S    
C13   N13   1.317254 A    
C2    N2    1.326889 A    
C10   C21   1.381787 A    
C37   H29   1.077422 S    
C111  H79   1.081242 S    
N11   Ni7   1.862875 S    
C62   H58   1.114094 S    
C54   H48   1.113225 S    
C71   C79   1.570440 S    
C120  H90   1.084011 S    
C43   C84   1.469496 S    
C104  C118  1.396586 A    
H49   C57   1.114169 S    
C72   C80   1.568863 S    
N6    N9    1.432450 A    
C61   C67   1.550448 S    
C49   H37   1.113364 S    
C77   H65   1.114839 S    
C9    N9    1.333329 A    
C54   C70   1.555219 S    
C97   H97   1.080944 S    
C116  H84   1.080065 S    
C35   C44   1.389542 A    
C58   C66   1.555602 S    
C64   C66   1.545120 S    
C23   C87   1.469588 S    
C36   H28   1.079961 S    
C34   C41   1.382361 A    
C95   H95   1.079750 S    
C57   C75   1.521878 S    
C89   H87   1.084027 S    
C50   C66   1.554259 S    
C49   C65   1.550245 S    
C54   H42   1.111568 S    
N32   Ni7   1.883960 S    
C71   C75   1.546226 S    
N35   O5    1.301231 A    
N17   Ni1   1.837832 S    
N19   Ni2   1.837832 S    
C14   H14   1.079966 S    
C24   C88   1.469793 S    
C62   C68   1.545245 S    
C39   C48   1.380450 A    
C16   C19   1.380125 A    
C35   N27   1.334458 A    
C73   H73   1.111290 S    
N24   Ni4   1.910293 S    
C11   C24   1.391806 A    
C27   H19   1.079449 S    
C34   N26   1.333336 A    
C31   C47   1.359934 A    
C28   H20   1.077244 S    
C55   H43   1.113593 S    
C59   C67   1.554772 S    
C6    N6    1.338176 A    
C33   N25   1.334462 A    
C32   N24   1.323364 A    
C22   C86   1.469794 S    
H54   C74   1.113273 S    
C61   H63   1.113020 S    
C60   C68   1.555842 S    
N4    Ni2   1.846461 S    
C13   C18   1.387159 A    
N35   O6    1.301733 A    
C62   H64   1.114640 S    
C113  H81   1.080008 S    
N3    Ni2   1.837696 S    
C83   C111  1.400863 A    
C30   C46   1.376340 A    
N7    Ni4   1.830276 S    
C40   H32   1.076428 S    
C29   C45   1.359940 A    
N19   N28   1.418114 A    
C55   H45   1.113950 S    
C63   H59   1.111770 S    
N23   Ni4   1.919434 S    
C114  C118  1.388745 A    
C39   H31   1.077386 S    
C64   H60   1.114002 S    
C113  C117  1.389145 A    
C92   H86   1.083938 S    
C14   N14   1.327458 A    
C5    H5    1.079496 S    
C3    N3    1.323826 A    
C28   N20   1.337760 A    
C20   C67   1.467125 S    
C102  C120  1.396585 A    
C52   C54   1.540380 S    
N27   Ni7   1.862989 S    
C115  H83   1.080006 S    
C16   H16   1.079909 S    
N16   Ni7   1.882622 S    
C77   N33   1.467883 S    
C12   N12   1.330239 A    
C86   C98   1.401602 A    
C27   C43   1.391349 A    
N7    N12   1.436138 A    
C15   H15   1.078689 S    
C59   C73   1.521881 S    
C103  C117  1.396761 A    
C26   C42   1.398128 A    
C106  C110  1.389804 A    
N36   O7    1.301085 A    
C98   H98   1.081060 S    
N2    Ni1   1.846461 S    
C115  C119  1.389146 A    
H52   C60   1.113018 S    
C63   C79   1.553619 S    
N1    Ni1   1.837696 S    
C101  C107  1.411804 A    
C64   C80   1.528954 S    
C97   C101  1.389996 A    
C79   H67   1.114839 S    
N15   Ni8   1.882570 S    
C38   N30   1.338509 A    
C7    C23   1.394674 A    
C53   C69   1.559679 S    
C52   C68   1.554421 S    
C91   C105  1.395840 A    
C81   C109  1.400857 A    
