data_mof_unit_15087.cif
_audit_creation_date              2012-10-26T18:52:13-0400
_audit_creation_method            fapswitch 2.2
_symmetry_space_group_name_H-M    P1
_symmetry_Int_Tables_number       1
_space_group_crystal_system       triclinic
_cell_length_a                    13.879934
_cell_length_b                    14.71542
_cell_length_c                    14.713587
_cell_angle_alpha                 114.802931
_cell_angle_beta                  106.097703
_cell_angle_gamma                 72.362156
_cell_volume                      2560.31002254

loop_
_atom_site_label
_atom_site_type_symbol
_atom_type_description
_atom_site_fract_x
_atom_site_fract_y
_atom_site_fract_z
_atom_type_partial_charge
C1    C     C_R   0.516899 0.118424 0.688111 0.546622
C2    C     C_R   0.496598 0.508587 0.874751 -0.137858
C3    C     C_R   0.565692 0.382902 0.103582 -0.012375
C4    C     C_R   0.479221 0.613759 0.899524 -0.011520
C5    C     C_R   0.328307 0.297273 0.328369 0.244510
C6    C     C_R   0.675986 0.700005 0.667680 0.247837
C7    C     C_R   0.356882 0.213201 0.358610 0.062346
C8    C     C_R   0.644409 0.786008 0.640188 0.064524
C9    C     C_R   0.486873 0.285691 0.489628 0.022403
C10   C     C_R   0.514756 0.713180 0.508952 0.023332
C11   C     C_R   0.463760 0.372717 0.462067 -0.026772
C12   C     C_R   0.482845 0.881642 0.311940 0.546279
C13   C     C_R   0.541241 0.623930 0.533482 -0.023896
C14   C     C_R   0.383242 0.376467 0.378836 0.053988
C15   C     C_R   0.622916 0.619448 0.615615 0.061574
C16   C     C_R   0.686953 0.986747 0.503842 0.553103
C17   C     C_R   0.313040 0.013250 0.496148 0.552332
C18   C     C_R   0.517547 0.455143 0.513361 0.044927
C19   C     C_R   0.489135 0.540340 0.480710 0.043636
C20   C     C_R   0.409877 0.538912 0.396192 -0.140829
C21   C     C_R   0.598824 0.455202 0.596045 -0.138319
C22   C     C_R   0.358256 0.459086 0.346873 -0.100379
C23   C     C_R   0.526353 0.358288 0.923486 0.022324
C24   C     C_R   0.650570 0.534964 0.645171 -0.095693
C25   C     C_1   0.207742 0.021488 0.494572 -0.029499
C26   C     C_1   0.792231 0.978496 0.505362 -0.029273
C27   C     C_2   0.011781 0.037046 0.492206 0.303697
C28   C     C_2   0.988160 0.962895 0.507597 0.303888
C29   C     C_1   0.881057 0.970948 0.506546 -0.009400
C30   C     C_1   0.118897 0.029028 0.493326 -0.009741
C31   C     C_R   0.529184 0.184975 0.796093 -0.002792
C32   C     C_R   0.476566 0.814808 0.204264 -0.002740
C33   C     C_R   0.572473 0.209823 0.974398 -0.121849
C34   C     C_R   0.495862 0.640154 0.077994 0.022755
C35   C     C_R   0.461328 0.787669 0.027787 -0.121999
C36   C     C_R   0.560936 0.144612 0.872862 -0.133378
C37   C     C_R   0.461886 0.853781 0.128585 -0.133560
C38   C     C_R   0.509944 0.290809 0.821885 -0.131285
C39   C     C_R   0.489511 0.709591 0.178080 -0.128979
C40   C     C_3   0.031659 0.809719 0.537710 -0.121834
C41   C     C_3   0.968186 0.190004 0.461663 -0.119885
C42   C     C_3   0.155823 0.324920 0.275339 -0.137977
C43   C     C_3   0.848716 0.674062 0.718468 -0.140034
C44   C     C_1   0.594105 0.345431 0.186108 0.178952
C45   C     C_R   0.555037 0.316799 0.001177 0.039551
C46   C     C_1   0.460102 0.650862 0.817903 0.182141
C47   C     C_R   0.478485 0.680713 0.001071 0.038880
C48   C     C_R   0.512649 0.465764 0.949259 0.015501
C49   C     C_R   0.517664 0.532037 0.052801 0.015657
C50   C     C_R   0.547219 0.488148 0.128271 -0.138368
Cu1   Cu    Cu3+1 0.526370 0.916390 0.524860 0.943657
Cu2   Cu    Cu3+1 0.473630 0.083610 0.475140 0.942335
H1    H     H_    0.385779 0.598466 0.365313 0.095202
H2    H     H_    0.500321 0.461905 0.795991 0.102775
H3    H     H_    0.297733 0.462676 0.282754 0.162992
H4    H     H_    0.712531 0.530401 0.707952 0.161366
H5    H     H_    0.452913 0.723939 0.448971 0.132158
H6    H     H_    0.547205 0.275827 0.551026 0.133084
H7    H     H_    0.682660 0.849557 0.681362 0.132799
H8    H     H_    0.317782 0.150219 0.318196 0.134226
H9    H     H_    0.978231 0.772557 0.468972 0.117140
H10   H     H_    0.994909 0.845160 0.606459 0.117921
H11   H     H_    0.098443 0.748851 0.549616 0.151563
H12   H     H_    0.625029 0.394245 0.625130 0.095654
H13   H     H_    0.004828 0.154309 0.392830 0.118636
H14   H     H_    0.021679 0.227315 0.530242 0.116168
H15   H     H_    0.901368 0.250797 0.449635 0.155291
H16   H     H_    0.145883 0.400372 0.339378 0.109518
H17   H     H_    0.145386 0.264476 0.296192 0.104899
H18   H     H_    0.094385 0.331789 0.210261 0.154456
H19   H     H_    0.856957 0.736016 0.698452 0.104369
H20   H     H_    0.858938 0.599368 0.653509 0.109012
H21   H     H_    0.911305 0.666934 0.782649 0.154125
H22   H     H_    0.492758 0.684076 0.237633 0.117799
H23   H     H_    0.479457 0.318939 0.760764 0.122982
H24   H     H_    0.451147 0.935245 0.147190 0.142253
H25   H     H_    0.576059 0.062769 0.854589 0.140470
H26   H     H_    0.595612 0.175690 0.031636 0.136911
H27   H     H_    0.448872 0.820964 0.971284 0.138109
H28   H     H_    0.560249 0.533503 0.208302 0.106727
N1    N     N_R   0.433980 0.209250 0.437830 -0.267135
N2    N     N_R   0.566020 0.790750 0.562170 -0.266398
N3    N     N_1   0.616623 0.315748 0.252216 -0.294960
N4    N     N_1   0.444261 0.680772 0.752765 -0.293002
O1    O     O_R   0.534760 0.019630 0.662610 -0.502037
O2    O     O_3   0.932727 0.117426 0.475950 -0.581868
O3    O     O_3   0.251709 0.298535 0.245199 -0.577861
O4    O     O_3   0.753857 0.697918 0.749710 -0.577401
O5    O     O_R   0.465240 0.980370 0.337390 -0.502899
O6    O     O_R   0.490220 0.160840 0.620610 -0.513092
O7    O     O_R   0.509780 0.839160 0.379390 -0.512366
O8    O     O_R   0.663260 0.919400 0.523940 -0.509367
O9    O     O_R   0.336740 0.080600 0.476060 -0.509193
O10   O     O_R   0.618720 0.060610 0.481950 -0.477606
O11   O     O_R   0.381280 0.939390 0.518050 -0.477706
O12   O     O_3   0.067202 0.882517 0.523869 -0.582231

loop_
_geom_bond_atom_site_label_1
_geom_bond_atom_site_label_2
_ccdc_geom_bond_type
C43   H21   S    
C11   C18   A    
C1    O6    A    
C23   C45   A    
C18   C21   A    
C33   C45   A    
C12   O7    A    
Cu2   O6    S    
C19   C20   A    
C42   H18   S    
C44   N3    T    
C35   C47   A    
Cu1   O1    S    
C40   H10   S    
C41   H15   S    
C4    C46   S    
C41   O2    S    
C43   H20   S    
C40   H11   S    
C8    N2    A    
C43   O4    S    
C28   C29   S    
C35   C37   A    
C18   C19   A    
C36   H25   S    
C8    H7    S    
C11   C14   A    
C33   H26   S    
C32   C39   A    
C1    C31   S    
C33   C36   A    
C6    O4    S    
C9    H6    S    
C39   H22   S    
C21   H12   S    
Cu1   O7    S    
C6    C15   A    
C10   C13   A    
Cu2   O10   S    
C17   O11   A    
C12   C32   S    
C27   C30   S    
C42   H16   S    
Cu2   O5    S    
C40   O12   S    
C3    C50   A    
C38   H23   S    
C1    O1    A    
C3    C44   S    
C13   C19   A    
Cu1   Cu2   S    
C12   O5    A    
C10   H5    S    
C2    H2    S    
C5    C7    A    
C6    C8    A    
C2    C48   A    
C3    C45   A    
C42   H17   S    
C40   H9    S    
C34   C39   A    
C27   O2    S    
C2    C4    A    
Cu1   O8    S    
Cu2   O9    S    
C32   C37   A    
C9    C11   A    
Cu1   N2    S    
C5    C14   A    
C22   H3    S    
C46   N4    T    
C48   C49   A    
C7    N1    A    
C37   H24   S    
C20   C22   A    
C16   O8    A    
C13   C15   A    
C17   O9    A    
C7    H8    S    
C25   C30   T    
C15   C24   A    
C34   C49   A    
C43   H19   S    
C23   C48   A    
C20   H1    S    
C16   C26   S    
C50   H28   S    
C41   H13   S    
C41   H14   S    
C42   O3    S    
C24   H4    S    
C23   C38   A    
C16   O10   A    
C31   C38   A    
C28   O12   S    
C17   C25   S    
C14   C22   A    
C35   H27   S    
C10   N2    A    
Cu2   N1    S    
C5    O3    S    
C26   C29   T    
C49   C50   A    
C21   C24   A    
C9    N1    A    
C27   C28   D    
C31   C36   A    
C34   C47   A    
Cu1   O11   S    
C4    C47   A    
