data_mof_unit_19800.cif
_audit_creation_date              2012-12-10T18:09:55-0500
_audit_creation_method            fapswitch 2.2
_symmetry_space_group_name_H-M    P1
_symmetry_Int_Tables_number       1
_space_group_crystal_system       triclinic
_cell_length_a                    10.751769
_cell_length_b                    12.76334
_cell_length_c                    13.215841
_cell_angle_alpha                 82.198309
_cell_angle_beta                  94.1789
_cell_angle_gamma                 101.751221
_cell_volume                      1757.23088328

loop_
_atom_site_label
_atom_site_type_symbol
_atom_type_description
_atom_site_fract_x
_atom_site_fract_y
_atom_site_fract_z
_atom_type_partial_charge
C1    C     C_R   0.480785 0.439822 0.691196 0.880990
C2    C     C_R   0.560860 0.460440 0.968085 0.094461
C3    C     C_R   0.498475 0.482013 0.871906 0.030114
C4    C     C_R   0.741077 0.498227 0.506226 0.867624
C5    C     C_R   0.574761 0.537205 0.038747 0.047686
C6    C     C_R   0.555720 0.643312 0.002460 0.034819
C7    C     C_R   0.489398 0.662510 0.908919 0.041593
C8    C     C_R   0.455514 0.580320 0.847891 -0.133117
C9    C     C_R   0.586530 0.510346 0.146306 0.043249
C10   C     C_R   0.619204 0.699079 0.168211 0.102182
C11   C     C_R   0.479620 0.404003 0.802322 -0.118823
C12   C     C_3   0.119042 0.489674 0.508476 -0.098239
C13   C     C_R   0.354797 0.102499 0.322443 0.084919
C14   C     C_R   0.630701 0.796556 0.646626 0.272871
C15   C     C_R   0.633822 0.891839 0.686546 -0.191590
C16   C     C_R   0.534915 0.558663 0.312903 0.931384
C17   C     C_R   0.578168 0.970861 0.632378 -0.186160
C18   C     C_R   0.535593 0.963491 0.530539 0.022219
C19   C     C_R   0.524721 0.862058 0.492536 0.127013
C20   C     C_R   0.492260 0.050616 0.468441 -0.095164
C21   C     C_R   0.436079 0.034875 0.370787 -0.020629
C22   C     C_R   0.464491 0.951862 0.325303 0.162793
C23   C     C_3   0.072576 0.556874 0.409932 -0.050212
C24   C     C_R   0.483634 0.858914 0.387517 0.075041
C25   C     C_R   0.506908 0.155647 0.495123 0.217126
C26   C     C_R   0.352245 0.196410 0.364704 0.171386
C27   C     C_R   0.257831 0.496918 0.503373 0.934313
C28   C     C_3   0.898670 0.376275 0.526228 -0.446767
C29   C     C_3   0.037192 0.372654 0.508882 0.059810
C30   C     C_3   0.928572 0.549102 0.407371 -0.472843
C31   C     C_3   0.952391 0.555496 0.601003 0.244441
C32   C     C_3   0.877594 0.495833 0.511490 -0.012612
C33   C     C_3   0.092689 0.538458 0.605864 -0.071791
C34   C     C_R   0.596626 0.725703 0.064381 -0.131165
C35   C     C_R   0.583395 0.590565 0.209475 -0.141892
C36   C     C_R   0.492654 0.297697 0.839894 0.179772
C37   C     C_R   0.564594 0.280215 0.929765 -0.139221
C38   C     C_R   0.608478 0.364031 0.987980 -0.205166
H1    H     H_    0.838338 0.327421 0.470733 0.203563
H2    H     H_    0.572380 0.037915 0.671521 0.169304
H3    H     H_    0.680536 0.904805 0.760502 0.162371
H4    H     H_    0.039464 0.347320 0.432065 0.173725
H5    H     H_    0.880529 0.499958 0.347054 0.207264
H6    H     H_    0.766942 0.750882 0.264397 0.197964
H7    H     H_    0.633237 0.794751 0.281234 0.236628
H8    H     H_    0.521430 0.825185 0.873194 0.182167
H9    H     H_    0.386613 0.771610 0.935349 0.241088
H10   H     H_    0.677488 0.384972 0.199300 0.188762
H11   H     H_    0.515089 0.345382 0.162461 0.213355
H12   H     H_    0.156792 0.618401 0.606340 0.175343
H13   H     H_    0.294490 0.293153 0.243708 0.209746
H14   H     H_    0.178760 0.231421 0.324968 0.206593
H15   H     H_    0.691872 0.162248 0.552900 0.178261
H16   H     H_    0.594788 0.210283 0.626124 0.210633
H17   H     H_    0.667487 0.696839 0.773076 0.192703
H18   H     H_    0.703591 0.660320 0.663549 0.278335
H19   H     H_    0.905328 0.630555 0.386244 0.199712
H20   H     H_    0.114272 0.642560 0.413732 0.204531
H21   H     H_    0.607882 0.809914 0.033682 0.174514
H22   H     H_    0.677407 0.350559 0.048712 0.166165
H23   H     H_    0.587555 0.201664 0.954342 0.186956
H24   H     H_    0.872506 0.337233 0.604129 0.228759
H25   H     H_    0.396985 0.596544 0.780150 0.207815
I1    I     I_    0.397500 0.158576 0.774171 -0.279995
I2    I     I_    0.510966 0.977030 0.167553 -0.330312
I3    I     I_    0.216751 0.055775 0.203535 -0.246295
I4    I     I_    0.331206 0.752551 0.329505 -0.249999
I5    I     I_    0.093001 0.234931 0.601384 -0.237284
I6    I     I_    0.119237 0.508956 0.266878 -0.323126
I7    I     I_    0.963973 0.730171 0.576530 -0.309823
I8    I     I_    0.852772 0.500829 0.743262 -0.318863
I9    I     I_    0.157656 0.455815 0.748381 -0.266515
N1    N     N_R   0.433240 0.222190 0.444680 -0.100370
N2    N     N_R   0.566070 0.776970 0.554790 -0.136292
N3    N     N_3   0.689626 0.779997 0.226629 -0.408223
N4    N     N_3   0.444018 0.760826 0.878555 -0.424364
N5    N     N_3   0.586180 0.402130 0.193928 -0.433291
N6    N     N_3   0.273943 0.270489 0.320624 -0.365428
N7    N     N_3   0.617340 0.203672 0.552314 -0.419035
N8    N     N_3   0.705003 0.725184 0.701916 -0.409181
O1    O     O_R   0.468120 0.366740 0.627160 -0.577927
O2    O     O_R   0.510770 0.544830 0.662520 -0.659339
O3    O     O_R   0.663880 0.410950 0.482330 -0.612281
O4    O     O_R   0.706530 0.589040 0.517700 -0.629381
O5    O     O_R   0.489230 0.455170 0.337480 -0.569173
O6    O     O_R   0.531880 0.633260 0.372840 -0.613028
O7    O     O_R   0.293470 0.410960 0.482300 -0.564348
O8    O     O_R   0.336120 0.589050 0.517670 -0.607054
Zn1   Zn    Zn3+2 0.471520 0.381090 0.476390 1.017468
Zn2   Zn    Zn3+2 0.528480 0.618910 0.523610 0.966788

loop_
_geom_bond_atom_site_label_1
_geom_bond_atom_site_label_2
_ccdc_geom_bond_type
C23   H20   S    
C12   C29   S    
C4    C32   S    
C23   I6    S    
C1    C11   S    
H8    N4    S    
C7    C8    A    
C12   C23   S    
C26   N6    S    
C14   N2    A    
C36   C37   A    
H15   N7    S    
H9    N4    S    
C16   C35   S    
C5    C6    A    
C29   H4    S    
C20   C25   A    
C1    O1    A    
C30   H19   S    
C26   N1    A    
C18   C19   A    
C33   I9    S    
C31   I7    S    
C31   C33   S    
C10   C35   A    
C14   N8    S    
C18   C20   A    
C24   I4    S    
O1    Zn1   S    
C31   I8    S    
C21   C22   A    
C16   O6    A    
O4    Zn2   S    
H14   N6    S    
C13   I3    S    
O3    Zn1   S    
C12   C27   S    
C23   C30   S    
C28   C32   S    
C15   H3    S    
C3    C8    A    
O6    Zn2   S    
O5    Zn1   S    
C28   H1    S    
C33   H12   S    
C6    C34   A    
C17   H2    S    
C11   C36   A    
H10   N5    S    
H6    N3    S    
C22   I2    S    
C5    C9    A    
C37   C38   A    
C29   I5    S    
C10   N3    S    
C2    C38   A    
C31   C32   S    
C4    O4    A    
C17   C18   A    
C13   C21   A    
C10   C34   A    
C9    N5    S    
C27   O7    A    
C6    C7    A    
C38   H22   S    
O8    Zn2   S    
O7    Zn1   S    
C16   O5    A    
C22   C24   A    
C30   H5    S    
C2    C5    A    
H16   N7    S    
C15   C17   A    
C28   C29   S    
C25   N7    S    
C19   N2    A    
O2    Zn2   S    
C37   H23   S    
C7    N4    S    
H18   N8    S    
H7    N3    S    
N2    Zn2   S    
C2    C3    A    
C1    O2    A    
H13   N6    S    
N1    Zn1   S    
C30   C32   S    
H17   N8    S    
C34   H21   S    
C4    O3    A    
H11   N5    S    
C19   C24   A    
C25   N1    A    
C27   O8    A    
C13   C26   A    
C3    C11   A    
C8    H25   S    
C20   C21   A    
C9    C35   A    
C14   C15   A    
C12   C33   S    
C36   I1    S    
C28   H24   S    
