data_mof_unit_46244.cif
_audit_creation_date              2012-12-11T20:30:26-0500
_audit_creation_method            fapswitch 2.2
_symmetry_space_group_name_H-M    P1
_symmetry_Int_Tables_number       1
_space_group_crystal_system       triclinic
_cell_length_a                    8.359365
_cell_length_b                    17.396643
_cell_length_c                    18.917634
_cell_angle_alpha                 103.644821
_cell_angle_beta                  91.886896
_cell_angle_gamma                 98.690359
_cell_volume                      2636.01561898

loop_
_atom_site_label
_atom_site_type_symbol
_atom_type_description
_atom_site_fract_x
_atom_site_fract_y
_atom_site_fract_z
_atom_type_partial_charge
Ba1   Ba    Ba6+2 0.853800 0.535410 0.467450 1.667436
Ba2   Ba    Ba6+2 0.336030 0.464660 0.532560 1.656376
C1    C     C_3   0.621444 0.800609 0.272006 -0.351035
C2    C     C_R   0.889356 0.424368 0.089744 0.034592
C3    C     C_R   0.726805 0.394476 0.064327 -0.081378
C4    C     C_3   0.146998 0.755056 0.282270 0.299697
C5    C     C_R   0.667833 0.400567 0.995947 -0.052444
C6    C     C_R   0.770615 0.435526 0.950708 0.052351
C7    C     C_R   0.934669 0.464363 0.974678 0.009470
C8    C     C_R   0.711811 0.440909 0.881714 0.003768
C9    C     C_R   0.815398 0.472531 0.834054 -0.000184
C10   C     C_R   0.980995 0.502681 0.858164 -0.008302
C11   C     C_R   0.039433 0.498057 0.928758 -0.010863
C12   C     C_3   0.609256 0.726406 0.301978 0.353297
C13   C     C_R   0.760198 0.471457 0.761896 0.071142
C14   C     C_R   0.868096 0.501318 0.716175 -0.262564
C15   C     C_R   0.029758 0.534926 0.738608 0.032888
C16   C     C_3   0.105721 0.814015 0.238145 -0.151917
C17   C     C_R   0.087347 0.538401 0.812626 -0.093135
C18   C     C_R   0.156343 0.489942 0.070122 -0.002188
C19   C     C_R   0.212869 0.490437 0.142281 0.005841
C20   C     C_R   0.105937 0.458041 0.189063 -0.043840
C21   C     C_R   0.947703 0.420663 0.159638 -0.041253
C22   C     C_R   0.245074 0.576382 0.844102 0.036587
C23   C     C_3   0.436483 0.309146 0.298966 0.315759
C24   C     C_R   0.308312 0.561645 0.909215 0.000352
C25   C     C_R   0.203618 0.525568 0.953164 0.003164
C26   C     C_R   0.261723 0.521846 0.023720 0.024660
C27   C     C_R   0.473193 0.588199 0.934269 -0.096117
C28   C     C_3   0.314168 0.722316 0.669654 0.275122
C29   C     C_R   0.530410 0.583167 0.002658 -0.109920
C30   C     C_R   0.425076 0.551917 0.048468 0.035437
C31   C     C_R   0.376208 0.524198 0.167522 -0.043144
C32   C     C_R   0.481248 0.552116 0.119056 -0.112559
C33   C     C_R   0.429357 0.530088 0.240761 -0.013966
C34   C     C_3   0.429284 0.267053 0.217853 -0.225132
C35   C     C_R   0.321209 0.501883 0.287362 -0.293208
C36   C     C_R   0.161637 0.465006 0.263377 0.044430
C37   C     C_2   0.459588 0.716305 0.468584 -0.185038
C38   C     C_3   0.367364 0.766114 0.430070 -0.063423
C39   C     C_2   0.420399 0.854207 0.457029 -0.064284
C40   C     C_3   0.397670 0.800803 0.724077 -0.186530
C41   C     C_2   0.558144 0.883761 0.500209 0.033625
C42   C     C_2   0.641466 0.828003 0.532602 -0.114214
C43   C     C_1   0.583290 0.749962 0.518194 0.018448
C44   C     C_R   0.810414 0.136357 0.521402 -0.128660
C45   C     C_3   0.112515 0.283706 0.725024 0.176764
C46   C     C_R   0.864707 0.218664 0.536512 0.097891
C47   C     C_R   0.616153 0.237751 0.477997 0.039841
C48   C     C_R   0.562515 0.154827 0.461987 -0.129584
C49   C     C_R   0.656310 0.104200 0.486482 -0.002601
C50   C     C_2   0.627660 0.970519 0.515525 -0.086786
C51   C     C_2   0.594942 0.017418 0.470859 -0.079569
C52   C     C_3   0.945718 0.287959 0.364924 0.284337
C53   C     C_R   0.763301 0.270132 0.519347 -0.222396
C54   C     C_3   0.908498 0.197006 0.339486 -0.364089
C55   C     C_3   0.751688 0.661082 0.694003 0.306607
C56   C     C_3   0.195508 0.249887 0.782693 -0.235305
C57   C     C_3   0.813521 0.699013 0.773128 -0.326276
C58   C     C_3   0.281670 0.856890 0.759248 -0.352334
C59   C     C_3   0.337699 0.307221 0.169994 -0.504202
C60   C     C_2   0.950022 0.304205 0.748398 0.806740
C61   C     C_2   0.091319 0.180300 0.802295 0.907269
C62   C     C_3   0.419849 0.109864 0.641924 -0.486528
C63   C     C_3   0.129560 0.670725 0.232621 -0.321549
C64   C     C_2   0.594174 0.172136 0.757064 0.982794
C65   C     C_2   0.316041 0.653210 0.830389 0.863587
C66   C     C_3   0.812833 0.358861 0.547026 -0.278456
C67   C     C_3   0.513116 0.261571 0.670228 0.328966
C68   C     C_2   0.136145 0.898911 0.283745 0.878672
C69   C     C_2   0.251094 0.738652 0.601533 0.785991
C70   C     C_3   0.553325 0.179452 0.680217 -0.162217
C71   C     C_R   0.993575 0.459604 0.044877 0.010802
H1    H     H_    0.661582 0.744717 0.359336 0.059878
H2    H     H_    0.648214 0.612160 0.692039 0.063853
H3    H     H_    0.749504 0.829749 0.275707 0.172085
H4    H     H_    0.931669 0.738356 0.775194 0.137984
H5    H     H_    0.829382 0.652126 0.802343 0.062012
H6    H     H_    0.727258 0.736037 0.801717 0.155501
H7    H     H_    0.478658 0.700616 0.299505 -0.097771
H8    H     H_    0.551549 0.844177 0.304533 0.102451
H9    H     H_    0.311234 0.312349 0.315895 0.035604
H10   H     H_    0.508031 0.370492 0.308579 0.018860
H11   H     H_    0.368114 0.203896 0.209540 0.141290
H12   H     H_    0.469764 0.786222 0.767638 0.144564
H13   H     H_    0.554876 0.266385 0.200316 0.121385
H14   H     H_    0.572031 0.783998 0.214236 0.115709
H15   H     H_    0.181851 0.810674 0.190735 0.018132
H16   H     H_    0.191062 0.338876 0.719196 0.052626
H17   H     H_    0.302623 0.226841 0.760926 0.115609
H18   H     H_    0.239503 0.298277 0.832278 0.052652
H19   H     H_    0.595990 0.279889 0.631073 0.042578
H20   H     H_    0.390438 0.253948 0.643726 0.071553
H21   H     H_    0.664372 0.169184 0.651202 0.088895
H22   H     H_    0.644326 0.367373 0.097878 0.068238
H23   H     H_    0.487644 0.834470 0.695726 0.093248
H24   H     H_    0.541283 0.377782 0.978392 0.088275
H25   H     H_    0.823449 0.499776 0.661597 0.018854
H26   H     H_    0.584772 0.419013 0.865392 0.104623
H27   H     H_    0.866258 0.390380 0.191244 0.102461
H28   H     H_    0.559962 0.613136 0.901218 0.104620
H29   H     H_    0.657262 0.605154 0.020208 0.075881
H30   H     H_    0.607635 0.575328 0.135698 0.109626
H31   H     H_    0.275621 0.775205 0.302685 -0.026583
H32   H     H_    0.363648 0.507111 0.343230 0.064880
H33   H     H_    0.516803 0.992671 0.421383 0.126053
H34   H     H_    0.834668 0.311034 0.384128 0.023359
H35   H     H_    0.752549 0.852008 0.567252 0.100755
H36   H     H_    0.889270 0.097781 0.536123 0.101345
H37   H     H_    0.708317 0.995827 0.564335 0.108478
H38   H     H_    0.349892 0.892560 0.436359 0.085333
H39   H     H_    0.448792 0.129738 0.429915 0.100151
H40   H     H_    0.435652 0.651821 0.447265 0.067012
H41   H     H_    0.976965 0.797353 0.216405 0.082478
H42   H     H_    0.407708 0.683953 0.656061 -0.004202
H43   H     H_    0.348749 0.904213 0.804974 0.116317
H44   H     H_    0.232867 0.887257 0.719989 0.180623
H45   H     H_    0.042178 0.304375 0.410055 0.065126
H46   H     H_    0.178894 0.824025 0.781169 0.164437
H47   H     H_    0.211536 0.308202 0.186206 0.148185
H48   H     H_    0.401511 0.368817 0.174410 0.124737
H49   H     H_    0.333282 0.273232 0.112186 0.163256
H50   H     H_    0.995888 0.325053 0.858710 0.277961
H51   H     H_    0.987742 0.134598 0.881476 0.315830
H52   H     H_    0.393179 0.112568 0.584777 0.147637
H53   H     H_    0.459228 0.051387 0.640633 0.172282
H54   H     H_    0.306311 0.111955 0.670432 0.177552
H55   H     H_    0.158321 0.628730 0.265115 0.084266
H56   H     H_    0.807463 0.178826 0.296266 0.142272
H57   H     H_    0.003734 0.650241 0.207468 0.155684
H58   H     H_    0.215093 0.669605 0.188814 0.064649
H59   H     H_    0.677619 0.104291 0.818530 0.314853
H60   H     H_    0.322588 0.772459 0.864753 0.299250
H61   H     H_    0.720092 0.393805 0.554791 0.156950
H62   H     H_    0.851215 0.372705 0.605014 0.119733
H63   H     H_    0.898745 0.384101 0.511681 0.125769
H64   H     H_    0.042426 0.997505 0.330153 0.309965
H65   H     H_    0.261225 0.628734 0.541014 0.261446
H66   H     H_    0.873089 0.170443 0.385413 0.062961
H67   H     H_    0.017655 0.173299 0.317444 0.123559
H68   H     H_    0.852214 0.636588 0.664588 0.027723
O1    O     O_2   0.871520 0.445720 0.321500 -0.455554
O2    O     O_2   0.189210 0.220354 0.527094 -0.501287
O3    O     O_3   0.094644 0.224313 0.658584 -0.601892
O4    O     O_3   0.121030 0.451930 0.411150 -0.500094
O5    O     O_3   0.581210 0.598010 0.542960 -0.519329
O6    O     O_2   0.335820 0.303580 0.452320 -0.466534
O7    O     O_3   0.512643 0.262848 0.336635 -0.649358
O8    O     O_2   0.418442 0.458393 0.755372 -0.511731
O9    O     O_3   0.524940 0.321580 0.735995 -0.567045
O10   O     O_3   0.662190 0.593100 0.375060 -0.475694
O11   O     O_2   0.765510 0.529225 0.246287 -0.485045
O12   O     O_3   0.700442 0.719900 0.663710 -0.648987
O13   O     O_3   0.996915 0.318058 0.305757 -0.644327
O14   O     O_3   0.697109 0.671392 0.260605 -0.582613
O15   O     O_2   0.853880 0.696450 0.547730 -0.399321
O16   O     O_3   0.085100 0.636210 0.413950 -0.417594
O17   O     O_2   0.051564 0.782377 0.479579 -0.386839
O18   O     O_2   0.853798 0.312431 0.702788 -0.662721
O19   O     O_R   0.903792 0.313856 0.819980 -0.708337
O20   O     O_2   0.038260 0.119734 0.754992 -0.569524
O21   O     O_R   0.058402 0.184852 0.874983 -0.746567
O22   O     O_2   0.578082 0.224243 0.811114 -0.556232
O23   O     O_3   0.040734 0.754845 0.338772 -0.577737
O24   O     O_R   0.653190 0.103545 0.765498 -0.740685
O25   O     O_2   0.445004 0.659823 0.802330 -0.657883
O26   O     O_R   0.245566 0.720460 0.859893 -0.768451
O27   O     O_2   0.274454 0.931271 0.306464 -0.650806
O28   O     O_R   0.006635 0.940994 0.299088 -0.760434
O29   O     O_2   0.241030 0.806542 0.596851 -0.598905
O30   O     O_R   0.198342 0.674420 0.542966 -0.681163
O31   O     O_2   0.318180 0.554310 0.678550 -0.462047
O32   O     O_3   0.068680 0.548140 0.588860 -0.483951
O33   O     O_3   0.527520 0.406960 0.624950 -0.512397
O34   O     O_3   0.182019 0.683412 0.698894 -0.639902
O35   O     O_3   0.608500 0.402060 0.457050 -0.497762
O36   O     O_3   0.104610 0.363860 0.586060 -0.499540
P1    P     P_3+3 0.038810 0.422920 0.331160 0.967847
P2    P     P_3+3 0.678260 0.686080 0.568600 0.969722
P3    P     P_3+3 0.138818 0.737173 0.415688 1.073775
P4    P     P_3+3 0.150900 0.577150 0.668860 0.993251
P5    P     P_3+3 0.069180 0.259435 0.578983 0.974435
P6    P     P_3+3 0.636814 0.578477 0.280482 0.964193
P7    P     P_3+3 0.515837 0.300747 0.430979 0.939692
P8    P     P_3+3 0.557461 0.417804 0.719165 0.974510

loop_
_geom_bond_atom_site_label_1
_geom_bond_atom_site_label_2
_ccdc_geom_bond_type
O6    P7    D    
C16   C68   S    
C46   C53   A    
O12   P2    S    
Ba1   O35   S    
O8    P8    D    
C36   P1    S    
C12   O14   S    
C61   O21   S    
C45   H16   S    
Ba1   O4    S    
C18   C71   A    
C57   H4    S    
O9    P8    S    
C28   C69   S    
C63   H58   S    
C5    C6    A    
C50   C51   D    
Ba2   O4    S    
C13   P8    S    
Ba1   O32   S    
C24   C25   A    
C52   H34   S    
C40   H23   S    
C67   O9    S    
C12   H1    S    
C33   C35   A    
C68   O28   S    
C22   C24   A    
C67   H20   S    
H60   O26   S    
Ba2   O32   S    
C54   H67   S    
O15   P2    D    
O14   P6    S    
C41   C50   S    
C55   C57   S    
C19   C31   A    
H50   O19   S    
C33   P6    S    
O36   P5    S    
C20   C36   A    
C58   H46   S    
C59   H48   S    
Ba1   Ba2   S    
O17   P3    D    
C7    C11   A    
Ba1   O1    S    
C22   C65   S    
Ba2   O35   S    
C38   P3    S    
C9    C13   A    
C51   H33   S    
C4    C63   S    
C64   C70   S    
C14   C15   A    
C37   H40   S    
O4    P1    S    
C1    H8    S    
Ba2   O36   S    
C12   H7    S    
C67   H19   S    
C56   H18   S    
H64   O28   S    
C54   H56   S    
O23   P3    S    
C37   C43   D    
C70   H21   S    
C21   H27   S    
O32   P4    S    
C19   C20   A    
C59   H47   S    
C39   C41   D    
C16   H41   S    
Ba1   O5    S    
C7    C71   A    
C45   C60   S    
O31   P4    D    
C57   H5    S    
C3    H22   S    
C63   H57   S    
O3    P5    S    
C28   H42   S    
C42   H35   S    
C4    C16   S    
C44   C46   A    
C1    H14   S    
C63   H55   S    
C26   C30   A    
H59   O24   S    
C40   C58   S    
C37   C38   S    
C3    C5    A    
C2    C21   A    
C53   C66   S    
C6    C7    A    
C18   C26   A    
C34   H13   S    
Ba2   O6    S    
C47   C53   A    
C55   O12   S    
C44   C49   A    
C16   H15   S    
C59   H49   S    
C49   C51   S    
O16   P3    S    
C30   C32   A    
Ba1   O15   S    
C41   C42   S    
C29   H29   S    
H51   O21   S    
C35   H32   S    
C35   C36   A    
C68   O27   D    
C47   P7    S    
Ba1   P1    S    
C29   C30   A    
C50   H37   S    
O7    P7    S    
C62   H54   S    
O35   P7    S    
C48   H39   S    
C48   C49   A    
C69   O29   D    
C27   H28   S    
C58   H44   S    
C40   H12   S    
C10   C11   A    
C66   H63   S    
C1    H3    S    
C56   H17   S    
C2    C71   A    
C1    C12   S    
C65   O25   D    
C6    C8    A    
C38   C39   S    
C4    O23   S    
C62   H52   S    
C4    H31   S    
C52   H45   S    
C23   H9    S    
C60   O19   S    
C58   H43   S    
C57   H6    S    
C34   C59   S    
C28   O34   S    
C67   C70   S    
C42   C43   D    
C65   O26   S    
C56   C61   S    
C54   H66   S    
C5    H24   S    
C64   O24   S    
H65   O30   S    
C60   O18   D    
O5    P2    S    
C66   H62   S    
C28   C40   S    
C2    C3    A    
O13   P1    S    
C52   O13   S    
C9    C10   A    
C52   C54   S    
O10   P6    S    
O11   P6    D    
C55   H68   S    
Ba2   O5    S    
C62   H53   S    
C32   H30   S    
O34   P4    S    
C55   H2    S    
Ba1   O16   S    
C17   C22   A    
O33   P8    S    
C61   O20   D    
Ba2   O33   S    
C45   C56   S    
C46   P5    S    
Ba1   P2    S    
C31   C33   A    
C14   H25   S    
O2    P5    D    
O1    P1    D    
C34   H11   S    
C45   O3    S    
C10   C17   A    
C66   H61   S    
C15   C17   A    
C31   C32   A    
C64   O22   D    
Ba1   O10   S    
C23   O7    S    
C69   O30   S    
C62   C70   S    
C8    H26   S    
C8    C9    A    
C43   P2    S    
C23   C34   S    
C15   P4    S    
C18   C19   A    
C24   C27   A    
C27   C29   A    
C47   C48   A    
C39   H38   S    
C44   H36   S    
C25   C26   A    
C23   H10   S    
C20   C21   A    
C11   C25   A    
Ba2   P4    S    
C13   C14   A    
Ba2   O31   S    
