data_mof_unit_14145.cif
_audit_creation_date              2012-12-10T17:02:14-0500
_audit_creation_method            fapswitch 2.2
_symmetry_space_group_name_H-M    P1
_symmetry_Int_Tables_number       1
_space_group_crystal_system       triclinic
_cell_length_a                    10.849185
_cell_length_b                    10.631456
_cell_length_c                    10.139174
_cell_angle_alpha                 93.162416
_cell_angle_beta                  89.140355
_cell_angle_gamma                 89.372684
_cell_volume                      1167.48544953

loop_
_atom_site_label
_atom_site_type_symbol
_atom_type_description
_atom_site_fract_x
_atom_site_fract_y
_atom_site_fract_z
_atom_type_partial_charge
C1    C     C_R   0.500736 0.262634 0.494548 0.988334
C2    C     C_R   0.062474 0.425953 0.608641 -0.140687
C3    C     C_R   0.126999 0.485756 0.504968 -0.086881
C4    C     C_R   0.061107 0.543161 0.404940 0.347185
C5    C     C_R   0.935562 0.532947 0.399838 -0.256466
C6    C     C_R   0.871153 0.473447 0.497266 -0.072237
C7    C     C_2   0.403591 0.933013 0.425726 0.347385
C8    C     C_2   0.458394 0.869485 0.520574 0.120261
C9    C     C_2   0.397581 0.068942 0.443613 0.308605
C10   C     C_2   0.502590 0.129696 0.472227 0.096174
C11   C     C_2   0.489253 0.599285 0.934215 0.387753
C12   C     C_R   0.260124 0.496061 0.501513 0.951238
C13   C     C_2   0.532441 0.595497 0.078068 0.693025
C14   C     C_R   0.489542 0.737528 0.504292 0.920332
C15   C     C_R   0.738973 0.490182 0.498881 0.935140
C16   C     C_R   0.117976 0.377415 0.722705 0.289731
C17   C     C_R   0.046471 0.364611 0.837662 0.310637
C18   C     C_R   0.919654 0.348154 0.825681 0.322043
C19   C     C_R   0.870641 0.350685 0.698797 0.430384
C20   C     C_R   0.933226 0.417308 0.601251 -0.139548
H1    H     H_    0.887008 0.580979 0.324100 0.195090
N1    N     N_2   0.501340 0.501330 0.852150 0.043210
N2    N     N_2   0.501380 0.501360 0.147810 0.025122
O1    O     O_R   0.499980 0.319060 0.613040 -0.570553
O2    O     O_R   0.500020 0.319100 0.386900 -0.668700
O3    O     O_R   0.316750 0.499980 0.613090 -0.588188
O4    O     O_R   0.316790 0.500020 0.386950 -0.583714
O5    O     O_R   0.499980 0.680900 0.613100 -0.565384
O6    O     O_R   0.500020 0.680940 0.386960 -0.536500
O7    O     O_R   0.683210 0.499980 0.613050 -0.569481
O8    O     O_R   0.683250 0.500020 0.386910 -0.638959
Zn1   Zn    Zn3+2 0.499970 0.499970 0.650990 1.098455
Zn2   Zn    Zn3+2 0.500030 0.500030 0.349010 1.061640
Cl1   Cl    Cl    0.127052 0.647666 0.294956 -0.547367
Cl2   Cl    Cl    0.644881 0.063056 0.413101 -0.636196
Cl3   Cl    Cl    0.395035 0.725483 0.891994 -0.488855
O9    O     O_3   0.592897 0.423391 0.888111 -0.595745
C21   C     C_3   0.550415 0.298328 0.880972 0.104794
H2    H     H_    0.593324 0.243112 0.797793 0.218979
H3    H     H_    0.583306 0.250861 0.968242 0.111612
H4    H     H_    0.448879 0.290137 0.875517 0.182614
O10   O     O_3   0.598006 0.693101 0.140182 -0.597093
C22   C     C_3   0.671342 0.756755 0.049807 -0.235136
H5    H     H_    0.614497 0.823542 0.995481 0.234247
H6    H     H_    0.723302 0.690516 0.979929 0.116838
H7    H     H_    0.740243 0.813167 0.106222 0.230422
O11   O     O_3   0.407639 0.435713 0.091339 -0.639601
C23   C     C_3   0.397200 0.317548 0.145099 -0.070522
H8    H     H_    0.349091 0.253737 0.073196 0.184261
H9    H     H_    0.488153 0.273012 0.161648 0.163366
H10   H     H_    0.336124 0.323269 0.233104 0.228100
Cl4   Cl    Cl    0.250451 0.280940 0.715403 -0.515118
O12   O     O_3   0.102018 0.341185 0.955181 -0.563041
C24   C     C_3   0.143225 0.457411 0.010403 -0.137539
H11   H     H_    0.222800 0.491957 0.952888 0.220574
H12   H     H_    0.172355 0.443233 0.112583 0.241093
H13   H     H_    0.068732 0.530633 0.017052 0.141330
O13   O     O_3   0.849213 0.300540 0.926431 -0.566249
C25   C     C_3   0.838810 0.389613 0.034835 -0.103125
H14   H     H_    0.834318 0.488832 0.004891 0.110436
H15   H     H_    0.914965 0.376854 0.104745 0.195358
H16   H     H_    0.752174 0.372007 0.089895 0.177668
O14   O     O_3   0.769870 0.278210 0.666109 -0.597081
C26   C     C_3   0.806609 0.149772 0.661111 -0.157749
H17   H     H_    0.861191 0.122760 0.747356 0.182449
H18   H     H_    0.860256 0.125618 0.568736 0.221190
H19   H     H_    0.723188 0.090981 0.663248 0.228728
Cl5   Cl    Cl    0.352800 0.865003 0.273524 -0.396751
Cl6   Cl    Cl    0.484207 0.942256 0.680601 -0.554515
Cl7   Cl    Cl    0.254051 0.145082 0.423904 -0.546821

loop_
_geom_bond_atom_site_label_1
_geom_bond_atom_site_label_2
_ccdc_geom_bond_type
O7    Zn1   S    
C22   H5    S    
O1    Zn1   S    
O3    Zn1   S    
O9    C21   S    
O6    Zn2   S    
C2    C16   A    
C6    C20   A    
C9    C10   D    
C11   N1    D    
O11   C23   S    
C1    O1    A    
C6    C15   S    
C26   H17   S    
N2    O11   S    
O8    Zn2   S    
C17   C18   A    
O13   C25   S    
C25   H14   S    
C19   O14   S    
O12   C24   S    
O4    Zn2   S    
C1    O2    A    
C4    C5    A    
C22   H6    S    
C8    Cl6   S    
C10   Cl2   S    
N1    Zn1   S    
C21   H4    S    
C23   H8    S    
C5    C6    A    
C23   H9    S    
C13   O10   S    
C21   H3    S    
C2    C3    A    
C4    Cl1   S    
C21   H2    S    
C22   H7    S    
C24   H12   S    
C25   H15   S    
C11   C13   S    
C7    C8    D    
O10   C22   S    
C14   O6    A    
C2    C20   A    
C3    C4    A    
C26   H19   S    
C17   O12   S    
O5    Zn1   S    
C5    H1    S    
C9    Cl7   S    
C13   N2    D    
C15   O7    A    
C16   Cl4   S    
C18   C19   A    
O2    Zn2   S    
C7    C9    S    
C24   H11   S    
C11   Cl3   S    
C25   H16   S    
C8    C14   S    
C3    C12   S    
C12   O4    A    
C14   O5    A    
C7    Cl5   S    
O14   C26   S    
N1    O9    S    
C15   O8    A    
C18   O13   S    
C23   H10   S    
C1    C10   S    
C19   C20   A    
C12   O3    A    
C16   C17   A    
N2    Zn2   S    
C24   H13   S    
C26   H18   S    
