data_mof_unit_61323.cif
_audit_creation_date              2012-12-10T20:45:24-0500
_audit_creation_method            fapswitch 2.2
_symmetry_space_group_name_H-M    P1
_symmetry_Int_Tables_number       1
_space_group_crystal_system       triclinic
_cell_length_a                    28.210636
_cell_length_b                    25.880021
_cell_length_c                    15.201816
_cell_angle_alpha                 90.547078
_cell_angle_beta                  98.494924
_cell_angle_gamma                 90.043374
_cell_volume                      10976.4306693

loop_
_atom_site_label
_atom_site_type_symbol
_atom_type_description
_atom_site_fract_x
_atom_site_fract_y
_atom_site_fract_z
_atom_type_partial_charge
C1    C     C_R   0.408527 0.098550 0.490697 0.601844
C2    C     C_R   0.015732 0.529010 0.115740 -0.020264
C3    C     C_R   0.447780 0.969358 0.109621 0.180907
C4    C     C_R   0.947783 0.469356 0.109622 0.180967
C5    C     C_R   0.444422 0.966498 0.016935 0.046509
C6    C     C_R   0.944425 0.466495 0.016936 0.046565
C7    C     C_R   0.631877 0.865311 0.522418 -0.019549
C8    C     C_R   0.627904 0.138808 0.515929 0.019745
C9    C     C_R   0.131833 0.365277 0.522330 -0.019352
C10   C     C_R   0.127931 0.638788 0.515993 0.019777
C11   C     C_R   0.678510 0.883032 0.556858 -0.043867
C12   C     C_R   0.408372 0.901700 0.490552 0.595826
C13   C     C_R   0.671719 0.133434 0.573926 -0.043755
C14   C     C_R   0.178404 0.382868 0.557433 -0.044104
C15   C     C_R   0.171762 0.633326 0.573909 -0.043615
C16   C     C_R   0.717171 0.847739 0.566334 0.020791
C17   C     C_R   0.706317 0.173400 0.578415 -0.015960
C18   C     C_R   0.217038 0.347535 0.566955 0.020668
C19   C     C_R   0.206401 0.673254 0.578452 -0.015959
C20   C     C_R   0.708404 0.794937 0.547119 0.107084
C21   C     C_R   0.697487 0.216576 0.522394 0.127120
C22   C     C_R   0.208289 0.294815 0.546980 0.107207
C23   C     C_R   0.908522 0.598548 0.490707 0.601603
C24   C     C_R   0.197576 0.716504 0.522605 0.127100
C25   C     C_R   0.661139 0.776586 0.519354 0.026199
C26   C     C_R   0.653752 0.221736 0.464769 0.024579
C27   C     C_R   0.161069 0.276599 0.518366 0.026351
C28   C     C_R   0.153812 0.721769 0.465090 0.024685
C29   C     C_R   0.591628 0.901937 0.510398 0.533024
C30   C     C_R   0.591182 0.098488 0.510047 0.604699
C31   C     C_R   0.091613 0.401928 0.510370 0.533041
C32   C     C_R   0.091182 0.598491 0.510045 0.604621
C33   C     C_R   0.623080 0.812347 0.504943 0.226960
C34   C     C_R   0.908369 0.401701 0.490557 0.595648
C35   C     C_R   0.618859 0.182591 0.461966 0.207386
C36   C     C_R   0.123050 0.312399 0.504067 0.226823
C37   C     C_R   0.118895 0.682638 0.462192 0.207466
C38   C     C_R   0.307166 0.172908 0.568785 0.286387
C39   C     C_R   0.285283 0.844092 0.490878 0.291151
C40   C     C_R   0.807369 0.673119 0.569141 0.286356
C41   C     C_R   0.785238 0.344071 0.490348 0.291250
C42   C     C_R   0.347224 0.140540 0.569310 0.209442
C43   C     C_R   0.322862 0.880202 0.496415 0.209600
C44   C     C_R   0.847429 0.640762 0.569587 0.209511
C45   C     C_R   0.481327 0.988095 0.974577 -0.015595
C46   C     C_R   0.822802 0.380199 0.495895 0.209706
C47   C     C_R   0.290235 0.201596 0.491386 0.148424
C48   C     C_R   0.294857 0.790996 0.478152 0.144580
C49   C     C_R   0.790202 0.701555 0.491562 0.148383
C50   C     C_R   0.794883 0.290948 0.478155 0.144616
C51   C     C_R   0.369286 0.135398 0.492304 0.010070
C52   C     C_R   0.369665 0.863642 0.488204 0.010109
C53   C     C_R   0.869270 0.635387 0.492347 0.010028
C54   C     C_R   0.869665 0.363630 0.488194 0.010073
C55   C     C_R   0.351165 0.162539 0.415033 0.181265
C56   C     C_R   0.981330 0.488095 0.974579 -0.015554
C57   C     C_R   0.378614 0.810962 0.474584 0.182934
C58   C     C_R   0.850916 0.662285 0.414925 0.181450
C59   C     C_R   0.878685 0.310917 0.475106 0.182981
C60   C     C_R   0.312043 0.195277 0.415281 -0.082328
C61   C     C_R   0.341222 0.775358 0.468822 -0.095555
C62   C     C_R   0.811787 0.695005 0.415239 -0.082295
C63   C     C_R   0.841308 0.275296 0.469348 -0.095674
C64   C     C_R   0.489205 0.999615 0.257321 0.586447
C65   C     C_R   0.989205 0.499616 0.257322 0.586446
C66   C     C_R   0.511496 0.000466 0.742713 0.589514
C67   C     C_R   0.513725 0.024621 0.021929 -0.068288
C68   C     C_R   0.011496 0.500466 0.742714 0.589485
C69   C     C_R   0.484094 0.999428 0.159386 0.035068
C70   C     C_R   0.984093 0.499429 0.159387 0.035110
C71   C     C_R   0.516452 0.003666 0.840061 0.012884
C72   C     C_R   0.016453 0.503667 0.840062 0.012945
C73   C     C_R   0.542909 0.054998 0.973216 0.239312
C74   C     C_R   0.042905 0.555003 0.973215 0.239342
C75   C     C_R   0.545177 0.043177 0.884099 0.232808
C76   C     C_R   0.045175 0.543181 0.884099 0.232895
C77   C     C_R   0.486691 0.974169 0.886241 0.212218
C78   C     C_R   0.013723 0.524625 0.021930 -0.068264
C79   C     C_R   0.986696 0.474167 0.886244 0.212224
C80   C     C_2   0.553280 0.060595 0.170228 0.348173
C81   C     C_2   0.053271 0.560608 0.170230 0.348151
C82   C     C_2   0.767770 0.865131 0.591693 0.355011
C83   C     C_2   0.751695 0.172144 0.642613 0.289160
C84   C     C_2   0.267605 0.364819 0.593110 0.355058
C85   C     C_2   0.251824 0.671875 0.642519 0.289252
C86   C     C_2   0.685656 0.937507 0.588917 0.309014
C87   C     C_2   0.682672 0.085241 0.626008 0.314004
C88   C     C_2   0.185483 0.437247 0.590016 0.309034
C89   C     C_R   0.515736 0.029004 0.115739 -0.020290
C90   C     C_2   0.182677 0.585084 0.625864 0.313752
C91   C     C_2   0.398874 0.946989 0.965523 0.390295
C92   C     C_2   0.898880 0.446981 0.965524 0.390285
C93   C     C_2   0.652515 0.719871 0.509355 0.363288
C94   C     C_2   0.645629 0.268235 0.407812 0.386354
C95   C     C_2   0.152406 0.219961 0.507280 0.363707
C96   C     C_2   0.145668 0.768372 0.408383 0.386312
Cl1   Cl    Cl    0.563587 0.791493 0.467498 -0.361730
Cl2   Cl    Cl    0.906849 0.433048 0.162875 -0.496944
Cl3   Cl    Cl    0.571117 0.113647 0.014179 -0.387700
Cl4   Cl    Cl    0.071109 0.613656 0.014174 -0.387660
Cl5   Cl    Cl    0.586666 0.077029 0.828388 -0.359814
Cl6   Cl    Cl    0.086663 0.577034 0.828387 -0.359622
Cl7   Cl    Cl    0.462012 0.915686 0.836792 -0.457509
Cl8   Cl    Cl    0.962024 0.415680 0.836802 -0.457619
Cl9   Cl    Cl    0.367839 0.103851 0.665071 -0.379218
Cl10  Cl    Cl    0.311266 0.946228 0.516273 -0.380211
Cl11  Cl    Cl    0.868307 0.604365 0.665579 -0.379442
Cl12  Cl    Cl    0.564416 0.186063 0.387053 -0.380624
Cl13  Cl    Cl    0.811100 0.446260 0.515176 -0.380591
Cl14  Cl    Cl    0.276770 0.173407 0.662673 -0.391402
Cl15  Cl    Cl    0.226548 0.866630 0.495757 -0.383504
Cl16  Cl    Cl    0.777269 0.673918 0.663416 -0.391677
Cl17  Cl    Cl    0.726444 0.366614 0.494552 -0.383685
Cl18  Cl    Cl    0.063615 0.291663 0.465838 -0.362521
Cl19  Cl    Cl    0.064435 0.686212 0.387349 -0.380929
Cl20  Cl    Cl    0.377273 0.157184 0.316936 -0.421724
Cl21  Cl    Cl    0.435891 0.788275 0.460690 -0.398836
Cl22  Cl    Cl    0.876746 0.656666 0.316546 -0.421693
Cl23  Cl    Cl    0.936042 0.288187 0.461893 -0.398901
Cl24  Cl    Cl    0.406844 0.933053 0.162873 -0.497098
H1    H     H_    0.298548 0.216430 0.355656 0.201822
H2    H     H_    0.283645 0.691234 0.626928 0.158823
H3    H     H_    0.666541 0.968880 0.552825 0.129894
H4    H     H_    0.719130 0.070870 0.638553 0.177843
H5    H     H_    0.166422 0.468703 0.554069 0.129522
H6    H     H_    0.219107 0.570613 0.638203 0.177533
H7    H     H_    0.380976 0.913413 0.987478 0.182312
H8    H     H_    0.880984 0.413405 0.987482 0.182302
H9    H     H_    0.676341 0.693232 0.548882 0.173789
H10   H     H_    0.675596 0.287005 0.384054 0.170019
H11   H     H_    0.175816 0.193096 0.547144 0.173475
H12   H     H_    0.348330 0.734856 0.457743 0.193363
H13   H     H_    0.175621 0.787210 0.384689 0.169989
H14   H     H_    0.798115 0.715968 0.355493 0.201786
H15   H     H_    0.848474 0.234768 0.458688 0.193299
H16   H     H_    0.590745 0.054600 0.164217 0.148574
H17   H     H_    0.090737 0.554620 0.164219 0.148615
H18   H     H_    0.794053 0.839403 0.627509 0.160006
H19   H     H_    0.783522 0.191496 0.627041 0.158799
H20   H     H_    0.293748 0.338961 0.628969 0.159990
N1    N     N_2   0.748263 0.760951 0.554811 -0.204885
N2    N     N_2   0.731769 0.256856 0.529006 -0.183480
N3    N     N_2   0.248126 0.260795 0.554728 -0.204708
N4    N     N_2   0.231900 0.756748 0.529306 -0.183551
N5    N     N_2   0.250448 0.235597 0.485251 -0.210115
N6    N     N_2   0.259043 0.752119 0.472141 -0.246035
N7    N     N_2   0.750396 0.735527 0.485489 -0.210467
N8    N     N_2   0.759095 0.252046 0.472203 -0.246003
O1    O     O_3   0.500000 1.000000 0.500000 -0.516127
O2    O     O_R   0.057820 0.602510 0.558190 -0.471797
O3    O     O_R   0.402690 0.940060 0.437800 -0.488545
O4    O     O_R   0.402690 0.059940 0.437800 -0.481975
O5    O     O_R   0.902690 0.440060 0.437800 -0.488384
O6    O     O_R   0.902690 0.559940 0.437800 -0.481759
O7    O     O_R   0.592810 0.059930 0.457190 -0.531126
O8    O     O_R   0.592810 0.940070 0.457190 -0.561423
O9    O     O_R   0.092810 0.559930 0.457190 -0.531120
O10   O     O_R   0.092810 0.440070 0.457190 -0.561025
O11   O     O_R   0.451940 1.000000 0.295720 -0.460661
O12   O     O_3   0.000000 0.500000 0.500000 -0.516204
O13   O     O_R   0.951940 0.500000 0.295720 -0.460569
O14   O     O_R   0.508560 0.042600 0.700250 -0.484932
O15   O     O_R   0.508560 0.957400 0.700250 -0.483637
O16   O     O_R   0.008560 0.542600 0.700250 -0.484820
O17   O     O_R   0.008560 0.457400 0.700250 -0.483675
O18   O     O_R   0.530930 0.000000 0.303780 -0.535794
O19   O     O_R   0.030930 0.500000 0.303780 -0.535768
O20   O     O_2   0.542436 0.093955 0.220985 -0.382476
O21   O     O_2   0.042423 0.593964 0.220991 -0.382679
O22   O     O_2   0.781161 0.907266 0.569383 -0.419356
O23   O     O_R   0.446670 0.102520 0.546820 -0.496052
O24   O     O_2   0.753593 0.151642 0.715042 -0.424465
O25   O     O_2   0.281140 0.407017 0.571399 -0.419197
O26   O     O_2   0.253775 0.651262 0.714864 -0.424381
O27   O     O_2   0.711787 0.947647 0.658361 -0.409069
O28   O     O_2   0.651504 0.061494 0.656476 -0.443864
O29   O     O_2   0.211466 0.447202 0.659707 -0.408388
O30   O     O_2   0.151509 0.561416 0.656471 -0.443955
O31   O     O_2   0.379933 0.969760 0.899548 -0.375914
O32   O     O_2   0.879938 0.469749 0.899545 -0.376117
O33   O     O_2   0.620057 0.702031 0.455634 -0.363449
O34   O     O_R   0.446670 0.897480 0.546820 -0.474298
O35   O     O_2   0.605824 0.287050 0.388716 -0.347787
O36   O     O_2   0.120439 0.202468 0.452193 -0.363959
O37   O     O_2   0.105859 0.787202 0.389434 -0.347910
O38   O     O_R   0.946670 0.602520 0.546820 -0.495928
O39   O     O_R   0.946670 0.397480 0.546820 -0.474274
O40   O     O_R   0.557820 0.897490 0.558190 -0.480756
O41   O     O_R   0.557820 0.102510 0.558190 -0.471834
O42   O     O_R   0.057820 0.397490 0.558190 -0.481009
Zn1   Zn    Zn3+2 0.503210 0.939150 0.575020 1.093880
Zn2   Zn    Zn3+2 0.503210 0.060850 0.575020 1.107114
Zn3   Zn    Zn3+2 0.003210 0.439150 0.575020 1.093695
Zn4   Zn    Zn3+2 0.003210 0.560850 0.575020 1.107129
Zn5   Zn    Zn3+2 0.440370 1.000000 0.419230 1.115800
Zn6   Zn    Zn3+2 0.940370 0.500000 0.419230 1.115919
Zn7   Zn    Zn3+2 0.553220 0.000000 0.430750 1.010080
Zn8   Zn    Zn3+2 0.053220 0.500000 0.430750 1.010197

loop_
_geom_bond_atom_site_label_1
_geom_bond_atom_site_label_2
_ccdc_geom_bond_type
C26   C94   S    
C21   C26   A    
C90   O30   D    
C58   C62   A    
C8    C13   A    
C7    C29   S    
C4    Cl2   S    
C73   C75   A    
C14   C18   A    
C27   C95   S    
O8    Zn7   S    
C58   Cl22  S    
C72   C76   A    
C36   Cl18  S    
O14   Zn2   S    
C88   O29   D    
C40   Cl16  S    
O11   Zn5   S    
C87   O28   D    
C31   O42   A    
C49   N7    S    
C94   H10   S    
C56   C79   A    
C74   C76   A    
C10   C37   A    
C55   Cl20  S    
C57   Cl21  S    
C3    C69   A    
C21   N2    S    
C38   C42   A    
C72   C79   A    
C10   C15   A    
C87   H4    S    
C93   H9    S    
C43   C52   A    
C34   O5    A    
C20   C25   A    
C11   C86   S    
C65   C70   S    
C67   C89   A    
C56   C78   A    
C66   O14   A    
C1    O4    A    
C73   Cl3   S    
C86   O27   D    
C30   O41   A    
O3    Zn5   S    
C80   C89   S    
O2    Zn4   S    
C64   O18   A    
C35   Cl12  S    
C92   O32   D    
O42   Zn3   S    
C47   C60   A    
C93   O33   D    
C44   C53   A    
C12   O34   A    
C48   N6    S    
C22   N3    S    
C45   C67   A    
C9    C36   A    
C18   C84   S    
C41   C46   A    
C67   C73   A    
C81   O21   D    
C38   Cl14  S    
C33   Cl1   S    
C61   H12   S    
C68   C72   S    
C42   C51   A    
O12   Zn6   S    
O6    Zn6   S    
C68   O17   A    
C39   Cl15  S    
C55   C60   A    
O39   Zn3   S    
C95   H11   S    
C50   C63   A    
C7    C33   A    
C12   O3    A    
C13   C87   S    
C60   H1    S    
C69   C89   A    
C92   H8    S    
C83   H19   S    
C47   N5    S    
C12   C52   S    
C23   C53   S    
C46   Cl13  S    
C54   C59   A    
C68   O16   A    
C76   Cl6   S    
C82   O22   D    
C4    C70   A    
O1    Zn1   S    
N2    N8    D    
O9    Zn8   S    
C4    C6    A    
C3    Cl24  S    
C6    C56   A    
C9    C31   S    
C74   Cl4   S    
C51   C55   A    
C3    C5    A    
C81   H17   S    
C5    C45   A    
C1    O23   A    
C17   C21   A    
C20   N1    S    
O13   Zn6   S    
C91   O31   D    
C17   C83   S    
C8    C35   A    
C63   H15   S    
O41   Zn2   S    
C15   C19   A    
C9    C14   A    
C88   H5    S    
C2    C78   A    
C11   C16   A    
C7    C11   A    
C66   C71   S    
C25   C93   S    
C16   C20   A    
C83   O24   D    
C46   C54   A    
C16   C82   S    
C85   O26   D    
C90   H6    S    
O17   Zn3   S    
C85   H2    S    
C64   C69   S    
C1    C51   S    
C84   H20   S    
C38   C47   A    
C5    C91   S    
C91   H7    S    
C29   O8    A    
N4    N6    D    
C30   O7    A    
C34   C54   S    
C22   C27   A    
O40   Zn1   S    
C79   Cl8   S    
C77   Cl7   S    
O34   Zn1   S    
C84   O25   D    
C41   C50   A    
C71   C77   A    
O12   Zn4   S    
C32   O9    A    
C44   Cl11  S    
C50   N8    S    
N3    N5    D    
O1    Zn2   S    
C59   Cl23  S    
C49   C62   A    
O4    Zn5   S    
C18   C22   A    
C96   O37   D    
O38   Zn4   S    
C24   C28   A    
C41   Cl17  S    
C19   C85   S    
O7    Zn7   S    
C23   O38   A    
O12   Zn8   S    
C53   C58   A    
C57   C61   A    
C96   H13   S    
C37   Cl19  S    
C27   C36   A    
C65   O19   A    
C59   C63   A    
C80   H16   S    
C29   O40   A    
C13   C17   A    
C28   C96   S    
C8    C30   S    
C62   H14   S    
C19   C24   A    
O18   Zn7   S    
C14   C88   S    
C82   H18   S    
O1    Zn5   S    
C15   C90   S    
C71   C75   A    
C48   C61   A    
O5    Zn6   S    
O23   Zn2   S    
C28   C37   A    
C24   N4    S    
C6    C92   S    
C64   O11   A    
O10   Zn8   S    
O19   Zn8   S    
C80   O20   D    
C66   O15   A    
O16   Zn4   S    
C34   O39   A    
C95   O36   D    
C42   Cl9   S    
C31   O10   A    
C25   C33   A    
C52   C57   A    
N1    N7    D    
C10   C32   S    
C26   C35   A    
C40   C44   A    
C32   O2    A    
C39   C43   A    
C74   C78   A    
C23   O6    A    
C65   O13   A    
C86   H3    S    
C75   Cl5   S    
C39   C48   A    
C2    C81   S    
O15   Zn1   S    
C45   C77   A    
C94   O35   D    
C2    C70   A    
C43   Cl10  S    
C40   C49   A    
O1    Zn7   S    
O12   Zn3   S    
