data_mof_unit_7719.cif
_audit_creation_date              2012-12-11T14:41:01-0500
_audit_creation_method            fapswitch 2.2
_symmetry_space_group_name_H-M    P1
_symmetry_Int_Tables_number       1
_space_group_crystal_system       triclinic
_cell_length_a                    6.935103
_cell_length_b                    17.617005
_cell_length_c                    19.130564
_cell_angle_alpha                 90.000551
_cell_angle_beta                  90.071213
_cell_angle_gamma                 90.126537
_cell_volume                      2337.2833887

loop_
_atom_site_label
_atom_site_type_symbol
_atom_type_description
_atom_site_fract_x
_atom_site_fract_y
_atom_site_fract_z
_atom_type_partial_charge
O1    O     O_R   0.377350 0.828520 0.186660 -0.536864
O2    O     O_R   0.622650 0.171480 0.813340 -0.540569
O3    O     O_R   0.122650 0.171480 0.686660 -0.536246
O4    O     O_R   0.877350 0.828520 0.313340 -0.539964
O5    O     O_R   0.877350 0.671480 0.313340 -0.536957
O6    O     O_R   0.122650 0.328520 0.686660 -0.536862
O7    O     O_R   0.622650 0.328520 0.813340 -0.536872
O8    O     O_R   0.377350 0.671480 0.186660 -0.536774
O9    O     O_R   0.707090 0.671930 0.178410 -0.542204
O10   O     O_R   0.292910 0.328070 0.821590 -0.542491
O11   O     O_R   0.792910 0.328070 0.678410 -0.538189
O12   O     O_R   0.207090 0.671930 0.321590 -0.538463
O13   O     O_R   0.207090 0.828070 0.321590 -0.540270
O14   O     O_R   0.792910 0.171930 0.678410 -0.540871
O15   O     O_R   0.292910 0.171930 0.821590 -0.540565
O16   O     O_R   0.707090 0.828070 0.178410 -0.541130
C1    C     C_R   0.537771 0.646815 0.160500 0.743997
C2    C     C_R   0.462269 0.353133 0.839542 0.742852
C3    C     C_R   0.961753 0.354615 0.661781 0.733744
C4    C     C_R   0.038204 0.645437 0.338265 0.732703
C5    C     C_R   0.038177 0.853500 0.339206 0.743753
C6    C     C_R   0.961939 0.146108 0.661131 0.735273
C7    C     C_R   0.461922 0.146521 0.839202 0.741639
C8    C     C_R   0.537969 0.853871 0.161135 0.733219
O17   O     O_3   0.543850 0.750000 0.294270 -0.368733
O18   O     O_3   0.456150 0.250000 0.705730 -0.366928
O19   O     O_3   0.956150 0.250000 0.794270 -0.371633
O20   O     O_3   0.043850 0.750000 0.205730 -0.369839
V1    V     V_3+5 0.818700 0.750000 0.241790 1.391190
V2    V     V_3+5 0.181300 0.250000 0.758210 1.391292
V3    V     V_3+5 0.681300 0.250000 0.741790 1.394132
V4    V     V_3+5 0.318700 0.750000 0.258210 1.394244
C9    C     C_R   0.973098 0.418830 0.610887 -0.106770
C10   C     C_R   0.026652 0.581321 0.389253 -0.106223
C11   C     C_R   0.525125 0.582802 0.109622 -0.116795
C12   C     C_R   0.475104 0.417047 0.890514 -0.116320
C13   C     C_R   0.470341 0.082989 0.890644 -0.117587
C14   C     C_R   0.528475 0.917784 0.110069 -0.108618
C15   C     C_R   0.029898 0.917054 0.390652 -0.119014
C16   C     C_R   0.971315 0.082168 0.610067 -0.110041
C17   C     C_R   0.968196 0.447369 0.415959 0.180096
C18   C     C_R   0.030891 0.552844 0.584306 0.180649
C19   C     C_R   0.545970 0.550229 0.915394 0.185494
C20   C     C_R   0.454759 0.449561 0.084873 0.185982
C21   C     C_R   0.571820 0.052092 0.081615 0.178500
C22   C     C_R   0.421330 0.949189 0.918871 0.185620
C23   C     C_R   0.926198 0.947981 0.581348 0.178654
C24   C     C_R   0.080692 0.050720 0.419164 0.185811
C25   C     C_R   0.967976 0.508002 0.367281 0.108831
C26   C     C_R   0.031875 0.492122 0.632897 0.108767
C27   C     C_R   0.544619 0.488387 0.868109 0.105108
C28   C     C_R   0.455408 0.511506 0.132053 0.104896
C29   C     C_R   0.594844 0.991015 0.129079 0.110388
C30   C     C_R   0.396103 0.010966 0.872345 0.104826
C31   C     C_R   0.903804 0.009042 0.628866 0.110625
C32   C     C_R   0.105307 0.988953 0.372587 0.105015
C33   C     C_R   0.083188 0.591991 0.459775 0.065046
C34   C     C_R   0.915554 0.408395 0.540454 0.064766
C35   C     C_R   0.412199 0.408269 0.960421 0.065947
C36   C     C_R   0.589000 0.591331 0.039818 0.065673
C37   C     C_R   0.437987 0.907707 0.044126 0.061089
C38   C     C_R   0.563236 0.092295 0.956061 0.062868
C39   C     C_R   0.063251 0.092003 0.544428 0.060115
C40   C     C_R   0.935617 0.907991 0.455764 0.062010
C41   C     C_R   0.028936 0.536954 0.511264 0.019216
C42   C     C_R   0.970098 0.463362 0.488969 0.019110
C43   C     C_R   0.466276 0.463729 0.011579 0.019381
C44   C     C_R   0.534582 0.535949 0.988660 0.019235
C45   C     C_R   0.463667 0.963696 0.990697 0.019175
C46   C     C_R   0.533883 0.036881 0.009692 0.020149
C47   C     C_R   0.037190 0.036198 0.490854 0.019364
C48   C     C_R   0.965292 0.963216 0.509548 0.020345
C49   C     C_3   0.774977 0.344696 0.523886 -0.756342
H1    H     H_    0.651867 0.346618 0.560803 0.221462
H2    H     H_    0.707149 0.350765 0.471816 0.217460
H3    H     H_    0.846657 0.288676 0.528240 0.187056
C50   C     C_3   0.221732 0.656334 0.476502 -0.757589
H4    H     H_    0.345095 0.655084 0.439677 0.221476
H5    H     H_    0.148197 0.712005 0.472180 0.186730
H6    H     H_    0.289621 0.650494 0.528578 0.217794
C51   C     C_3   0.732570 0.654018 0.023636 -0.756670
H7    H     H_    0.851506 0.653180 0.062427 0.220261
H8    H     H_    0.806413 0.645726 0.973023 0.218226
H9    H     H_    0.661412 0.710323 0.025040 0.187624
C52   C     C_3   0.270616 0.344933 0.976779 -0.757940
H10   H     H_    0.151459 0.345100 0.938077 0.220306
H11   H     H_    0.343640 0.288975 0.975429 0.187376
H12   H     H_    0.196626 0.352987 0.027389 0.218550
C53   C     C_3   0.710934 0.155489 0.963832 -0.751189
H13   H     H_    0.815169 0.153171 0.919968 0.223703
H14   H     H_    0.639322 0.211757 0.963987 0.186512
H15   H     H_    0.801940 0.149166 0.010998 0.216341
C54   C     C_3   0.295798 0.842672 0.035509 -0.749354
H16   H     H_    0.372339 0.787492 0.033636 0.186359
H17   H     H_    0.192368 0.842281 0.079634 0.224957
H18   H     H_    0.202038 0.849114 0.989146 0.215681
C55   C     C_3   0.785884 0.845484 0.462974 -0.748888
H19   H     H_    0.682270 0.848485 0.418857 0.223773
H20   H     H_    0.855650 0.788870 0.463150 0.187253
H21   H     H_    0.694527 0.852071 0.509939 0.215769
C56   C     C_3   0.207719 0.156322 0.536387 -0.746793
H22   H     H_    0.133169 0.211913 0.534520 0.186989
H23   H     H_    0.310637 0.155948 0.580762 0.225194
H24   H     H_    0.301761 0.149598 0.490214 0.215073
C57   C     C_3   0.084308 0.508695 0.708383 -0.792155
H25   H     H_    0.223874 0.539434 0.709883 0.212827
H26   H     H_    0.974032 0.545389 0.732823 0.210225
H27   H     H_    0.099237 0.457464 0.741362 0.205913
C58   C     C_3   0.915976 0.491341 0.291765 -0.791691
H28   H     H_    0.776088 0.460839 0.290167 0.212748
H29   H     H_    0.901878 0.542507 0.258653 0.205707
H30   H     H_    0.026060 0.454406 0.267522 0.210154
C59   C     C_3   0.393068 0.501496 0.207426 -0.771328
H31   H     H_    0.350311 0.442699 0.220701 0.207873
H32   H     H_    0.510726 0.518816 0.243228 0.198175
H33   H     H_    0.266257 0.537999 0.217636 0.216786
C60   C     C_3   0.606438 0.498493 0.792681 -0.771261
H34   H     H_    0.649040 0.557300 0.779385 0.207854
H35   H     H_    0.733214 0.462021 0.782320 0.216798
H36   H     H_    0.488560 0.481181 0.756974 0.198145
C61   C     C_3   0.303976 0.999632 0.801104 -0.770349
H37   H     H_    0.252077 0.940978 0.792053 0.208831
H38   H     H_    0.176000 0.036927 0.796186 0.215102
H39   H     H_    0.408295 0.014149 0.759277 0.197632
C62   C     C_3   0.677523 0.007014 0.201212 -0.784693
H40   H     H_    0.817736 0.036866 0.195633 0.211081
H41   H     H_    0.578159 0.043437 0.231608 0.208232
H42   H     H_    0.704076 0.955696 0.233019 0.206048
C63   C     C_3   0.197734 0.000223 0.301472 -0.770395
H43   H     H_    0.250398 0.058784 0.292562 0.208700
H44   H     H_    0.325248 0.962691 0.296643 0.215172
H45   H     H_    0.093263 0.986013 0.259501 0.197673
C64   C     C_3   0.821082 0.993065 0.700917 -0.785172
H46   H     H_    0.680883 0.963208 0.695213 0.211185
H47   H     H_    0.920505 0.956654 0.731401 0.208226
H48   H     H_    0.794532 0.044383 0.732696 0.206219
C65   C     C_3   0.995127 0.367188 0.388460 -0.781776
H49   H     H_    0.114874 0.366111 0.350036 0.206885
H50   H     H_    0.039918 0.326842 0.429781 0.217336
H51   H     H_    0.861511 0.346637 0.362581 0.209435
C66   C     C_3   0.002670 0.632888 0.611948 -0.782176
H52   H     H_    0.883121 0.633560 0.650463 0.207091
H53   H     H_    0.136034 0.653775 0.637770 0.209328
H54   H     H_    0.956834 0.673142 0.570707 0.217075
C67   C     C_3   0.523972 0.629888 0.886278 -0.788493
H55   H     H_    0.415521 0.629815 0.843477 0.212787
H56   H     H_    0.467375 0.670114 0.925784 0.218441
H57   H     H_    0.663111 0.651154 0.865301 0.204352
C68   C     C_3   0.477994 0.370039 0.114166 -0.788844
H58   H     H_    0.586147 0.370511 0.157065 0.213016
H59   H     H_    0.339133 0.348424 0.135081 0.204184
H60   H     H_    0.535640 0.329915 0.074776 0.218214
C69   C     C_3   0.559174 0.132023 0.111075 -0.781717
H61   H     H_    0.458763 0.132931 0.156194 0.206874
H62   H     H_    0.703160 0.152017 0.128687 0.210050
H63   H     H_    0.496694 0.172950 0.073432 0.216721
C70   C     C_3   0.439653 0.870040 0.888255 -0.788510
H64   H     H_    0.527901 0.872148 0.839851 0.214075
H65   H     H_    0.517257 0.830879 0.923838 0.218260
H66   H     H_    0.295805 0.846221 0.875146 0.203943
C71   C     C_3   0.936783 0.867926 0.610651 -0.782214
H67   H     H_    0.036657 0.866546 0.656003 0.207059
H68   H     H_    0.792174 0.848360 0.627861 0.210038
H69   H     H_    0.998762 0.826904 0.573044 0.216805
C72   C     C_3   0.064479 0.130022 0.388706 -0.789166
H70   H     H_    0.976550 0.128377 0.340133 0.214094
H71   H     H_    0.987554 0.169371 0.424238 0.218353
H72   H     H_    0.208993 0.153354 0.375947 0.204062

loop_
_geom_bond_atom_site_label_1
_geom_bond_atom_site_label_2
_ccdc_geom_bond_type
C50   H4    S    
C70   H64   S    
C49   H1    S    
O13   V4    S    
C9    C34   A    
O14   V3    S    
C39   C56   S    
C12   C35   A    
C19   C27   A    
C51   H9    S    
C67   H55   S    
O5    C4    A    
C28   C59   S    
O6    C3    A    
C57   H26   S    
O11   C3    A    
C56   H22   S    
C16   C39   A    
C57   H25   S    
C19   C67   S    
C25   C58   S    
O20   V1    S    
C63   H43   S    
C68   H59   S    
C52   H10   S    
C37   C54   S    
C52   H12   S    
C38   C53   S    
C35   C43   A    
C38   C46   A    
C54   H17   S    
C61   H39   S    
C58   H29   S    
C71   H68   S    
C66   H52   S    
C34   C42   A    
C24   C72   S    
C19   C44   A    
C22   C45   A    
C62   H42   S    
C8    C14   S    
C69   H62   S    
C17   C65   S    
C32   C63   S    
O9    V1    S    
C14   C37   A    
C4    C10   S    
C20   C28   A    
O17   V4    S    
O15   C7    A    
O11   V3    S    
O18   V3    S    
O16   C8    A    
O12   V4    S    
O19   V2    S    
C64   H47   S    
C49   H2    S    
O12   C4    A    
C17   C25   A    
C51   H8    S    
C55   H19   S    
O5    V1    S    
C52   H11   S    
O17   V1    S    
C65   H51   S    
O7    V3    S    
C67   H56   S    
O19   V3    S    
C43   C44   A    
O8    V4    S    
C33   C50   S    
O20   V4    S    
C3    C9    S    
C60   H36   S    
O16   V1    S    
C7    C13   S    
C22   C70   S    
O1    V4    S    
C51   H7    S    
C58   H30   S    
O2    V3    S    
C69   H63   S    
C66   H53   S    
C70   H65   S    
O3    V2    S    
C35   C52   S    
C15   C40   A    
C64   H48   S    
C65   H50   S    
C36   C51   S    
O10   V2    S    
C15   C32   A    
C5    C15   S    
C26   C57   S    
O7    C2    A    
C6    C16   S    
C22   C30   A    
C18   C66   S    
C50   H5    S    
O13   C5    A    
C54   H16   S    
C57   H27   S    
C53   H15   S    
C61   H37   S    
C12   C27   A    
C29   C62   S    
C18   C26   A    
C13   C30   A    
C68   H60   S    
O9    C1    A    
C40   C55   S    
O6    V2    S    
C30   C61   S    
C39   C47   A    
C54   H18   S    
O18   V2    S    
C72   H72   S    
C62   H40   S    
C49   H3    S    
C66   H54   S    
C53   H14   S    
C24   C47   A    
C53   H13   S    
O2    C7    A    
C71   H69   S    
C67   H57   S    
O15   V2    S    
C23   C31   A    
C59   H31   S    
C56   H23   S    
C50   H6    S    
C37   C45   A    
C24   C32   A    
C18   C41   A    
C10   C25   A    
C55   H20   S    
C55   H21   S    
C21   C46   A    
O4    V1    S    
C33   C41   A    
C20   C43   A    
C16   C31   A    
C59   H33   S    
C17   C42   A    
C70   H66   S    
C65   H49   S    
C20   C68   S    
C63   H45   S    
C60   H35   S    
C9    C26   A    
C47   C48   A    
C31   C64   S    
C68   H58   S    
O8    C1    A    
O4    C5    A    
O14   C6    A    
C64   H46   S    
C14   C29   A    
C71   H67   S    
O10   C2    A    
C10   C33   A    
C27   C60   S    
C40   C48   A    
C45   C46   A    
C23   C48   A    
C61   H38   S    
C21   C29   A    
C23   C71   S    
C72   H70   S    
C21   C69   S    
C36   C44   A    
O1    C8    A    
C72   H71   S    
C41   C42   A    
C58   H28   S    
C11   C28   A    
C62   H41   S    
C13   C38   A    
C11   C36   A    
O3    C6    A    
C56   H24   S    
C1    C11   S    
C59   H32   S    
C69   H61   S    
C60   H34   S    
C2    C12   S    
C34   C49   S    
C63   H44   S    
