data_mof_unit_17314.cif
_audit_creation_date              2012-12-10T20:27:52-0500
_audit_creation_method            fapswitch 2.2
_symmetry_space_group_name_H-M    P1
_symmetry_Int_Tables_number       1
_space_group_crystal_system       triclinic
_cell_length_a                    12.867568
_cell_length_b                    10.709462
_cell_length_c                    9.879722
_cell_angle_alpha                 90.480367
_cell_angle_beta                  97.150698
_cell_angle_gamma                 90.201607
_cell_volume                      1350.82138347

loop_
_atom_site_label
_atom_site_type_symbol
_atom_type_description
_atom_site_fract_x
_atom_site_fract_y
_atom_site_fract_z
_atom_type_partial_charge
C1    C     C_R   0.498486 0.259923 0.499490 0.888550
C2    C     C_R   0.028646 0.527778 0.560250 0.174872
C3    C     C_R   0.971078 0.483887 0.437837 0.181055
C4    C     C_R   0.864193 0.471416 0.430402 -0.281389
C5    C     C_R   0.870672 0.544811 0.665281 -0.214973
C6    C     C_R   0.978439 0.557359 0.673867 -0.200951
C7    C     C_R   0.479149 0.064617 0.618788 0.134469
C8    C     C_R   0.485727 0.128037 0.497450 -0.114244
C9    C     C_R   0.475023 0.062632 0.373198 -0.196077
C10   C     C_R   0.472817 0.934008 0.373167 -0.229048
C11   C     C_R   0.483551 0.871182 0.497931 -0.106476
C12   C     C_R   0.298211 0.501667 0.473220 0.890486
C13   C     C_R   0.478312 0.936933 0.619022 0.137682
C14   C     C_3   0.547682 0.930584 0.751844 -0.471869
C15   C     C_3   0.548808 0.072099 0.751702 -0.486487
C16   C     C_R   0.409836 0.476604 0.056052 0.055988
C17   C     C_R   0.586727 0.534071 0.086169 -0.130172
C18   C     C_R   0.586768 0.533897 0.942431 -0.157484
C19   C     C_R   0.409631 0.477598 0.913421 0.183420
C20   C     C_3   0.343358 0.363094 0.892152 0.120646
C21   C     C_3   0.344562 0.359757 0.046412 0.172968
C22   C     C_R   0.497577 0.739864 0.499991 0.873972
C23   C     C_R   0.701796 0.499986 0.526768 0.876945
C24   C     C_R   0.813971 0.503429 0.542825 -0.046216
C25   C     C_R   0.185987 0.503127 0.456580 -0.062088
C26   C     C_R   0.021134 0.453342 0.324543 -0.221336
C27   C     C_R   0.128958 0.462662 0.334143 -0.193795
C28   C     C_R   0.135748 0.539543 0.567580 -0.225169
H1    H     H_    0.820044 0.437795 0.336294 0.153599
H2    H     H_    0.625352 0.888696 0.741698 0.201348
H3    H     H_    0.508617 0.113731 0.834396 0.198411
H4    H     H_    0.627123 0.112643 0.741453 0.205760
H5    H     H_    0.657366 0.559985 0.151424 0.152397
H6    H     H_    0.657380 0.559385 0.900157 0.149364
H7    H     H_    0.382494 0.284049 0.845232 0.126627
H8    H     H_    0.266655 0.373026 0.081184 0.152770
H9    H     H_    0.831651 0.570165 0.752528 0.151756
H10   H     H_    0.977318 0.420357 0.230101 0.140618
H11   H     H_    0.022221 0.590410 0.768291 0.152510
H12   H     H_    0.180128 0.574776 0.660690 0.197807
H13   H     H_    0.475859 0.109295 0.277190 0.223214
H14   H     H_    0.470465 0.884815 0.276539 0.180532
H15   H     H_    0.506458 0.890729 0.834134 0.210186
N1    N     N_R   0.499290 0.499140 0.142710 -0.093700
N2    N     N_R   0.499290 0.499180 0.857070 -0.128790
O1    O     O_R   0.500010 0.316790 0.614690 -0.626426
O2    O     O_R   0.500000 0.316760 0.385350 -0.581359
O3    O     O_R   0.346360 0.499990 0.595720 -0.585279
O4    O     O_R   0.346350 0.499960 0.366370 -0.621710
O5    O     O_R   0.500000 0.683240 0.614650 -0.618260
O6    O     O_R   0.499990 0.683210 0.385310 -0.622762
O7    O     O_R   0.653650 0.500040 0.633630 -0.633070
O8    O     O_R   0.653640 0.500010 0.404280 -0.632309
Zn1   Zn    Zn3+2 0.500010 0.500020 0.653130 0.956286
Zn2   Zn    Zn3+2 0.499990 0.499980 0.346870 0.969210
O9    O     O_3   0.243900 0.390777 0.825287 -0.777369
H16   H     H_    0.205612 0.310026 0.814550 0.340602
O10   O     O_3   0.397554 0.255627 0.106127 -0.771176
H17   H     H_    0.467067 0.249677 0.072568 0.319888
H18   H     H_    0.167644 0.435202 0.247711 0.156048

loop_
_geom_bond_atom_site_label_1
_geom_bond_atom_site_label_2
_ccdc_geom_bond_type
C8    C9    A    
C23   C24   S    
C19   N2    A    
C15   H3    S    
C16   C21   S    
C5    H9    S    
C10   H14   S    
C1    C8    S    
C11   C13   A    
C9    C10   A    
C16   N1    A    
C11   C22   S    
C9    H13   S    
C19   C20   S    
C12   O3    A    
C12   C25   S    
C20   O9    S    
O4    Zn2   S    
O1    Zn1   S    
C7    C15   S    
C17   C18   A    
C23   O7    A    
C17   N1    A    
C7    C8    A    
C21   H8    S    
C2    C6    A    
C13   C14   S    
O9    H16   S    
C25   C28   A    
O3    Zn1   S    
C18   H6    S    
N1    Zn2   S    
C26   C27   A    
O5    Zn1   S    
C5    C24   A    
C17   H5    S    
C14   H2    S    
C16   C19   A    
O7    Zn1   S    
N2    Zn1   S    
C23   O8    A    
C2    C3    A    
C27   H18   S    
O8    Zn2   S    
C5    C6    A    
C4    C24   A    
C1    O1    A    
C22   O6    A    
C12   O4    A    
C25   C27   A    
C10   C11   A    
C28   H12   S    
C3    C4    A    
C18   N2    A    
C22   O5    A    
C7    C13   A    
C20   C21   S    
O2    Zn2   S    
C6    H11   S    
C26   H10   S    
C2    C28   A    
O6    Zn2   S    
O10   H17   S    
C14   C15   S    
C20   H7    S    
C3    C26   A    
C1    O2    A    
C21   O10   S    
C4    H1    S    
C14   H15   S    
C15   H4    S    
