data_mof_unit_26762.cif
_audit_creation_date              2012-12-11T15:57:44-0500
_audit_creation_method            fapswitch 2.2
_symmetry_space_group_name_H-M    P1
_symmetry_Int_Tables_number       1
_space_group_crystal_system       triclinic
_cell_length_a                    10.738619
_cell_length_b                    10.798869
_cell_length_c                    17.029655
_cell_angle_alpha                 100.556299
_cell_angle_beta                  100.242519
_cell_angle_gamma                 61.274562
_cell_volume                      1693.23995856

loop_
_atom_site_label
_atom_site_type_symbol
_atom_type_description
_atom_site_fract_x
_atom_site_fract_y
_atom_site_fract_z
_atom_type_partial_charge
C1    C     C_R   0.353772 0.774621 0.401603 0.592124
C2    C     C_2   0.839835 0.329779 0.165249 0.233337
C3    C     C_2   0.874853 0.212042 0.199383 0.393754
C4    C     C_2   0.835811 0.222058 0.279260 0.320276
C5    C     C_2   0.322035 0.846643 0.331264 0.411278
C6    C     C_2   0.276768 0.965930 0.179753 0.432183
C7    C     C_2   0.401442 0.871917 0.213781 -0.080361
C8    C     C_2   0.423097 0.855672 0.299583 0.243170
C9    C     C_2   0.305093 0.323297 0.641834 -0.099039
C10   C     C_2   0.317156 0.311678 0.813478 -0.093315
C11   C     C_2   0.320764 0.210293 0.753303 0.332547
C12   C     C_R   0.407138 0.373985 0.356490 0.591590
C13   C     C_2   0.368334 0.203787 0.676808 0.271998
C14   C     C_1   0.817387 0.342882 0.708840 -0.029226
C15   C     C_1   0.844231 0.312847 0.776083 -0.036513
C16   C     C_1   0.359691 0.762319 0.713601 -0.010306
C17   C     C_1   0.326032 0.809412 0.780482 0.003666
C18   C     C_R   0.896964 0.308260 0.088580 0.570094
C19   C     C_R   0.321945 0.302602 0.118920 0.542551
C20   C     C_R   0.252010 0.969077 0.093369 0.618928
C21   C     C_R   0.885478 0.296519 0.858498 0.554701
C22   C     C_R   0.306036 0.290533 0.892380 0.594244
C23   C     C_R   0.777781 0.374364 0.405655 0.570828
C24   C     C_R   0.280510 0.880160 0.857305 0.591063
C25   C     C_R   0.382066 0.713504 0.631136 0.562711
C26   C     C_R   0.365645 0.346564 0.579998 0.565606
C27   C     C_R   0.772834 0.381779 0.629839 0.546742
C28   C     C_1   0.376950 0.361316 0.271973 -0.017082
C29   C     C_1   0.350726 0.343468 0.200968 -0.038474
C30   C     C_2   0.861112 0.312597 0.337767 -0.018512
Cr1   Cr    Cr6+3 0.608020 0.610770 0.522990 1.011250
Cr2   Cr    Cr6+3 0.289390 0.599570 0.488050 1.017685
Cr3   Cr    Cr6+3 0.602610 0.289690 0.489020 1.010215
Cr4   Cr    Cr6+3 0.053780 0.052210 0.965970 1.055840
Cr5   Cr    Cr6+3 0.060060 0.372530 0.992430 1.020859
Cr6   Cr    Cr6+3 0.372600 0.061970 0.991430 1.018280
H1    H     H_    0.337210 0.398052 0.805871 -0.003371
H2    H     H_    0.214904 0.415977 0.667330 0.048731
H3    H     H_    0.931114 0.353967 0.330134 0.076355
H4    H     H_    0.486534 0.797451 0.177327 0.079549
O1    O     O_R   0.749250 0.499990 0.439200 -0.517318
O2    O     O_R   0.299400 0.468710 0.556310 -0.523865
O3    O     O_R   0.489240 0.256450 0.560730 -0.488335
O4    O     O_R   0.723350 0.306730 0.584410 -0.513544
O5    O     O_3   0.500010 0.500010 0.500020 -0.304902
O6    O     O_R   0.170650 0.915100 0.051290 -0.467958
O7    O     O_R   0.941960 0.184500 0.049060 -0.459265
O8    O     O_R   0.922640 0.402670 0.071640 -0.546399
O9    O     O_R   0.196880 0.368740 0.083740 -0.504686
O10   O     O_R   0.411120 0.181190 0.091480 -0.551103
O11   O     O_R   0.364220 0.944920 0.062310 -0.570975
O12   O     O_R   0.477870 0.725740 0.440280 -0.481366
O13   O     O_R   0.158740 0.906940 0.874970 -0.525269
O14   O     O_R   0.930920 0.176940 0.885610 -0.505860
O15   O     O_R   0.910730 0.394510 0.895320 -0.507462
O16   O     O_R   0.185840 0.361180 0.920280 -0.485371
O17   O     O_R   0.399210 0.173040 0.915160 -0.485720
O18   O     O_R   0.353170 0.937370 0.898860 -0.455546
O19   O     O_3   0.162150 0.162240 0.983280 -0.272968
O20   O     O_R   0.260770 0.742210 0.412610 -0.490206
O21   O     O_R   0.297990 0.466320 0.394220 -0.510218
O22   O     O_R   0.487720 0.253870 0.385870 -0.515648
O23   O     O_R   0.721940 0.304340 0.422320 -0.459680
O24   O     O_R   0.750770 0.502570 0.614050 -0.527452
O25   O     O_R   0.479280 0.728140 0.602370 -0.481544
O26   O     O_R   0.262290 0.744790 0.587460 -0.498603
F1    F     F_    0.950443 0.079489 0.161914 -0.618135
O27   O     O_3   0.466241 0.077286 0.638042 -0.536724
C31   C     C_3   0.584810 0.996961 0.691337 0.022278
H5    H     H_    0.635839 0.885891 0.662113 0.157898
H6    H     H_    0.555755 0.989534 0.749118 0.179836
C32   C     C_3   0.694392 0.053648 0.706254 -0.298317
H7    H     H_    0.719047 0.064245 0.647942 0.197028
H8    H     H_    0.649335 0.160375 0.741418 0.150140
C33   C     C_3   0.832796 0.954053 0.751843 -0.453265
H9    H     H_    0.812920 0.948116 0.812538 0.155757
H10   H     H_    0.911935 0.994479 0.758274 0.194339
H11   H     H_    0.878439 0.845848 0.718441 0.143811
O28   O     O_3   0.749867 0.163676 0.290348 -0.572728
C34   C     C_3   0.792239 0.025364 0.249931 0.029170
H12   H     H_    0.774220 0.964424 0.287691 0.102342
H13   H     H_    0.908715 0.964356 0.244415 0.245356
C35   C     C_3   0.698202 0.031272 0.170479 -0.224546
H14   H     H_    0.598006 0.037228 0.183981 0.169750
H15   H     H_    0.671737 0.127811 0.143015 0.205255
C36   C     C_3   0.767236 0.901992 0.109704 -0.437553
H16   H     H_    0.875498 0.882429 0.100983 0.208939
H17   H     H_    0.700228 0.919856 0.051083 0.152195
H18   H     H_    0.773766 0.807697 0.130157 0.107530
O29   O     O_3   0.755140 0.463399 0.205182 -0.629784
C37   C     C_3   0.799805 0.567785 0.205848 0.006502
H19   H     H_    0.728350 0.664660 0.241748 0.195401
H20   H     H_    0.778601 0.602525 0.145609 0.158667
C38   C     C_3   0.953184 0.527458 0.246363 -0.273672
H21   H     H_    0.953490 0.537532 0.312440 0.158795
H22   H     H_    0.029727 0.416772 0.225814 0.194565
C39   C     C_3   0.006864 0.626273 0.229692 -0.430708
H23   H     H_    0.013389 0.617675 0.164452 0.177755
H24   H     H_    0.113967 0.599247 0.262286 0.191255
H25   H     H_    0.934532 0.736395 0.251886 0.125277
O30   O     O_3   0.558514 0.813616 0.339641 -0.600297
C40   C     C_3   0.573522 0.936811 0.369373 0.018533
H26   H     H_    0.489939 0.010091 0.409903 0.174161
H27   H     H_    0.563083 0.994177 0.318669 0.138045
C41   C     C_3   0.721128 0.896123 0.415979 -0.248248
H28   H     H_    0.805012 0.810380 0.379821 0.152758
H29   H     H_    0.740353 0.990579 0.427690 0.156301
C42   C     C_3   0.733083 0.846462 0.496256 -0.392985
H30   H     H_    0.646821 0.929424 0.531388 0.179997
H31   H     H_    0.837799 0.827080 0.530463 0.109773
H32   H     H_    0.724188 0.746851 0.487102 0.222297
F2    F     F_    0.182999 0.075852 0.226446 -0.624720
F3    F     F_    0.192648 0.875653 0.288693 -0.620541
F4    F     F_    0.295581 0.103111 0.764773 -0.624174

loop_
_geom_bond_atom_site_label_1
_geom_bond_atom_site_label_2
_ccdc_geom_bond_type
O30   C40   S    
C9    C26   S    
C2    C18   S    
Cr3   O5    S    
Cr2   O5    S    
Cr1   O12   S    
Cr6   O19   S    
C18   O7    A    
C22   O17   A    
C39   H23   S    
C7    C8    S    
C10   C22   S    
C41   H29   S    
C12   C28   S    
C10   H1    S    
C1    C5    S    
C28   C29   T    
Cr2   O21   S    
Cr3   O22   S    
C20   O11   A    
Cr6   O18   S    
C31   H5    S    
C34   C35   S    
C21   O14   A    
C34   H12   S    
C36   H17   S    
C42   H30   S    
C40   C41   S    
Cr5   O19   S    
C31   H6    S    
C11   F4    S    
C9    C13   D    
C27   O4    A    
C16   C17   T    
Cr5   O9    S    
C7    H4    S    
Cr4   O6    S    
C14   C27   S    
C8    O30   S    
C23   O23   A    
C24   O18   A    
C40   H26   S    
C32   C33   S    
Cr5   O8    S    
C33   H11   S    
C39   H24   S    
C26   O3    A    
C41   C42   S    
C17   C24   S    
Cr5   O15   S    
Cr3   O3    S    
C23   C30   S    
C25   O25   A    
C4    O28   S    
C32   H8    S    
Cr6   O17   S    
C10   C11   D    
C1    O20   A    
C37   H19   S    
C21   O15   A    
C36   H16   S    
O27   C31   S    
C22   O16   A    
C38   C39   S    
C24   O13   A    
C31   C32   S    
C38   H22   S    
C33   H9    S    
C37   H20   S    
C12   O22   A    
C19   O9    A    
C35   H14   S    
Cr3   O23   S    
C40   H27   S    
C33   H10   S    
Cr6   O11   S    
C34   H13   S    
C35   H15   S    
Cr4   O14   S    
Cr4   O19   S    
Cr2   O20   S    
C3    C4    S    
C19   C29   S    
C39   H25   S    
Cr6   O10   S    
C26   O2    A    
Cr2   O26   S    
C16   C25   S    
Cr1   O25   S    
Cr1   O1    S    
C5    F3    S    
Cr5   O16   S    
Cr3   O4    S    
C6    F2    S    
Cr1   O24   S    
C3    F1    S    
C25   O26   A    
C32   H7    S    
C36   H18   S    
C18   O8    A    
C5    C8    D    
C6    C7    D    
C6    C20   S    
C41   H28   S    
C23   O1    A    
C42   H32   S    
C2    C3    D    
C37   C38   S    
C12   O21   A    
C11   C13   S    
C19   O10   A    
O29   C37   S    
C9    H2    S    
C42   H31   S    
C30   H3    S    
C38   H21   S    
C1    O12   A    
C4    C30   D    
C27   O24   A    
O28   C34   S    
C15   C21   S    
C35   C36   S    
Cr4   O13   S    
C2    O29   S    
Cr1   O5    S    
Cr2   O2    S    
C14   C15   T    
Cr4   O7    S    
C20   O6    A    
C13   O27   S    
