data_mof_unit_57410.cif
_audit_creation_date              2013-03-05T15:47:45-0500
_audit_creation_method            fapswitch 2.2
_symmetry_space_group_name_H-M    P1
_symmetry_Int_Tables_number       1
_space_group_crystal_system       triclinic
_cell_length_a                    10.829969
_cell_length_b                    13.101092
_cell_length_c                    11.824211
_cell_angle_alpha                 102.077348
_cell_angle_beta                  92.467189
_cell_angle_gamma                 94.321521
_cell_volume                      1632.89517664

loop_
_atom_site_label
_atom_site_type_symbol
_atom_site_description
_atom_site_fract_x
_atom_site_fract_y
_atom_site_fract_z
_atom_type_partial_charge
O1    O     O_R   0.506570 0.354460 0.582000 -0.550648
O2    O     O_R   0.493430 0.645540 0.418000 -0.642478
O3    O     O_R   0.490940 0.341410 0.386200 -0.528108
O4    O     O_R   0.509060 0.658590 0.613800 -0.534912
C1    C     C_R   0.500586 0.298335 0.475939 0.845124
C2    C     C_R   0.499373 0.701523 0.524162 0.893215
O5    O     O_R   0.327470 0.506520 0.597900 -0.607127
O6    O     O_R   0.672530 0.493480 0.402100 -0.580157
O7    O     O_R   0.311840 0.493460 0.402100 -0.572894
O8    O     O_R   0.688160 0.506540 0.597900 -0.561361
C3    C     C_R   0.263180 0.512396 0.502646 0.846652
C4    C     C_R   0.736778 0.487185 0.496995 0.772238
Cu1   Cu    Cu3+1 0.509250 0.507730 0.615930 1.036923
Cu2   Cu    Cu3+1 0.490750 0.492270 0.384070 1.024295
C5    C     C_R   0.111749 0.600448 0.715689 -0.173214
C6    C     C_R   0.888293 0.401312 0.280867 -0.125849
C7    C     C_R   0.044982 0.598270 0.815070 0.196658
C8    C     C_R   0.958494 0.401167 0.182713 0.376256
C9    C     C_R   0.945209 0.521778 0.810227 0.352609
C10   C     C_R   0.058608 0.477010 0.188655 0.214299
C11   C     C_R   0.899235 0.460080 0.701898 -0.118386
C12   C     C_R   0.102576 0.538992 0.296505 -0.082194
C13   C     C_R   0.944407 0.487162 0.600541 -0.048616
C14   C     C_R   0.056011 0.512704 0.397855 0.040634
C15   C     C_R   0.064946 0.537323 0.607505 0.028950
C16   C     C_R   0.935118 0.462676 0.390307 -0.040998
C17   C     C_R   0.872139 0.468800 0.493937 -0.177229
C18   C     C_R   0.127862 0.530433 0.504408 -0.041154
C19   C     C_R   0.497264 0.816841 0.541179 -0.144438
C20   C     C_R   0.501873 0.182743 0.459568 -0.216657
C21   C     C_R   0.476854 0.003430 0.344188 0.266569
C22   C     C_R   0.520128 0.995728 0.657325 0.264177
C23   C     C_R   0.490177 0.111889 0.350058 0.249970
C24   C     C_R   0.506742 0.887079 0.651043 0.273764
C25   C     C_R   0.512547 0.142295 0.559964 -0.168435
C26   C     C_R   0.487101 0.857477 0.441146 -0.189486
C27   C     C_R   0.508739 0.034725 0.555109 -0.021182
C28   C     C_R   0.489609 0.964861 0.446352 -0.000926
H1    H     H_    0.477816 0.803949 0.357889 0.201160
H2    H     H_    0.523179 0.196012 0.643114 0.244395
N1    N     N_R   0.523180 0.519350 0.790130 -0.268753
N2    N     N_R   0.476820 0.480650 0.209870 -0.276474
C29   C     C_R   0.399558 0.384234 0.019191 0.230927
C30   C     C_R   0.601190 0.616394 0.980741 0.208234
C31   C     C_R   0.399647 0.402289 0.141282 0.456618
C32   C     C_R   0.601435 0.597291 0.858440 0.434342
C33   C     C_R   0.552471 0.545095 0.158427 0.080370
C34   C     C_R   0.445830 0.456847 0.842702 0.098959
C35   C     C_R   0.539418 0.541512 0.035740 -0.090568
C36   C     C_R   0.461562 0.459295 0.964775 -0.134682
Br1   Br    Br    0.142934 0.488167 0.051812 -0.509757
Br2   Br    Br    0.861247 0.514884 0.948498 -0.288460
Br3   Br    Br    0.321040 0.251081 0.933479 -0.229437
Br4   Br    Br    0.677496 0.751139 0.064990 -0.288250
C37   C     C_2   0.216791 0.681144 0.724212 0.515752
H3    H     H_    0.278154 0.700752 0.801830 0.119472
O9    O     O_2   0.232933 0.728673 0.646892 -0.488536
C38   C     C_2   0.775590 0.328560 0.270106 0.559127
H4    H     H_    0.752202 0.290121 0.340191 0.005224
O10   O     O_2   0.704501 0.315469 0.184472 -0.434222
Br5   Br    Br    0.080691 0.707816 0.952970 -0.290720
Br6   Br    Br    0.927314 0.290972 0.044890 -0.183262
C39   C     C_2   0.811698 0.363917 0.690081 0.532746
H5    H     H_    0.783024 0.317436 0.604443 0.006581
O11   O     O_2   0.773069 0.333248 0.773614 -0.446813
C40   C     C_2   0.191527 0.633010 0.303014 0.518661
H6    H     H_    0.244359 0.643017 0.229779 0.112422
O12   O     O_2   0.204651 0.702357 0.390499 -0.496668
Br7   Br    Br    0.490316 0.841897 0.794973 -0.291776
Br8   Br    Br    0.502622 0.155166 0.205306 -0.230881
Br9   Br    Br    0.434990 0.908885 0.195357 -0.308181
Br10  Br    Br    0.559394 0.089585 0.806712 -0.218117
C41   C     C_2   0.328582 0.407387 0.779987 0.529360
H7    H     H_    0.242223 0.439386 0.806011 0.057898
O13   O     O_2   0.325437 0.328204 0.704114 -0.489290
C42   C     C_2   0.658355 0.607426 0.228670 0.579580
H8    H     H_    0.645513 0.677465 0.292284 0.068040
O14   O     O_2   0.763556 0.583070 0.211756 -0.494005
Br11  Br    Br    0.717289 0.682704 0.790080 -0.313439
Br12  Br    Br    0.282835 0.317387 0.209180 -0.343460

loop_
_geom_bond_atom_site_label_1
_geom_bond_atom_site_label_2
_geom_bond_distance
_ccdc_geom_bond_type
C30   C35   1.427739 A    
C40   O12   1.220773 D    
C37   H3    1.083070 S    
C39   O11   1.219975 D    
C41   H7    1.084001 S    
Cu1   N1    2.031549 S    
C33   C35   1.442046 A    
C15   C18   1.411817 A    
O5    C3    1.317616 A    
C19   C26   1.398475 A    
C16   C17   1.418515 A    
C20   C25   1.401438 A    
O1    C1    1.310553 A    
C9    C11   1.411794 A    
C42   O14   1.219659 D    
C33   C42   1.471301 S    
C10   Br1   1.918224 S    
C32   Br11  1.932359 S    
C5    C15   1.419679 A    
C38   O10   1.219715 D    
O4    Cu1   1.982006 S    
C12   C40   1.492058 S    
C7    Br5   1.936698 S    
C9    Br2   1.919754 S    
C29   Br3   1.937983 S    
N1    C32   1.370705 A    
C21   C23   1.404157 A    
C13   C17   1.420947 A    
Cu2   N2    2.031549 S    
C34   C36   1.439493 A    
C40   H6    1.083186 S    
Cu1   Cu2   2.703987 S    
C41   O13   1.218509 D    
O2    C2    1.310899 A    
C30   C32   1.415220 A    
C6    C16   1.422928 A    
C4    C17   1.504153 S    
C42   H8    1.080048 S    
C22   Br10  1.939215 S    
C8    Br6   1.936141 S    
C38   H4    1.085350 S    
C19   C24   1.420878 A    
N2    C31   1.368982 A    
C22   C24   1.405841 A    
O7    Cu2   1.959253 S    
C27   C28   1.410784 A    
O7    C3    1.304951 A    
O6    C4    1.315339 A    
C6    C38   1.474787 S    
C22   C27   1.411407 A    
C29   C31   1.413137 A    
C24   Br7   1.926159 S    
O3    Cu2   1.982009 S    
O8    C4    1.308700 A    
C23   Br8   1.919265 S    
O4    C2    1.303673 A    
C10   C12   1.403025 A    
C37   O9    1.220541 D    
C12   C14   1.416899 A    
O1    Cu1   1.961373 S    
C1    C20   1.487189 S    
C5    C7    1.410178 A    
O6    Cu2   1.969548 S    
C20   C23   1.421119 A    
C25   C27   1.395810 A    
C34   C41   1.475128 S    
C26   H1    1.078410 S    
C14   C18   1.418695 A    
C14   C16   1.409918 A    
O3    C1    1.305842 A    
O8    Cu1   1.959253 S    
C29   C36   1.426326 A    
C21   C28   1.409000 A    
C11   C13   1.415552 A    
C25   H2    1.078733 S    
C3    C18   1.502236 S    
C26   C28   1.393417 A    
C7    C9    1.408044 A    
N1    C34   1.383163 A    
C31   Br12  1.931645 S    
C8    C10   1.403444 A    
N2    C33   1.381171 A    
C13   C15   1.407698 A    
O2    Cu2   1.961371 S    
C11   C39   1.496801 S    
C39   H5    1.085829 S    
C30   Br4   1.940356 S    
O5    Cu1   1.969547 S    
C2    C19   1.483880 S    
C6    C8    1.414312 A    
C35   C36   1.413948 A    
C5    C37   1.478612 S    
C21   Br9   1.941966 S    
