data_mof_unit_6643.cif
_audit_creation_date              2012-12-10T17:27:57-0500
_audit_creation_method            fapswitch 2.2
_symmetry_space_group_name_H-M    P1
_symmetry_Int_Tables_number       1
_space_group_crystal_system       triclinic
_cell_length_a                    10.636993
_cell_length_b                    11.972689
_cell_length_c                    12.884837
_cell_angle_alpha                 93.426448
_cell_angle_beta                  90.336041
_cell_angle_gamma                 86.169403
_cell_volume                      1634.33223102

loop_
_atom_site_label
_atom_site_type_symbol
_atom_type_description
_atom_site_fract_x
_atom_site_fract_y
_atom_site_fract_z
_atom_type_partial_charge
C1    C     C_R   0.495332 0.522312 0.700133 0.847780
C2    C     C_R   0.393811 0.615639 0.858069 0.042721
C3    C     C_R   0.548485 0.456791 0.868175 -0.242848
C4    C     C_R   0.740847 0.498518 0.490404 0.914481
C5    C     C_R   0.528282 0.454111 0.973922 -0.009205
C6    C     C_R   0.440368 0.534639 0.022489 0.115896
C7    C     C_R   0.422808 0.536661 0.129287 -0.064544
C8    C     C_R   0.577403 0.377310 0.139013 0.607055
C9    C     C_R   0.593569 0.372710 0.032294 0.006803
C10   C     C_R   0.374401 0.956481 0.411308 -0.346365
C11   C     C_R   0.386283 0.840236 0.419258 0.719971
C12   C     C_R   0.952100 0.395671 0.491503 -0.049251
C13   C     C_R   0.553444 0.856865 0.541134 0.133562
C14   C     C_R   0.544785 0.975494 0.535603 0.040717
C15   C     C_R   0.454590 0.024846 0.468642 0.004874
C16   C     C_R   0.499102 0.477607 0.299474 0.930757
C17   C     C_R   0.445496 0.142143 0.461876 0.040612
C18   C     C_R   0.609967 0.162135 0.585104 -0.005169
C19   C     C_R   0.622296 0.046110 0.594805 -0.289299
C20   C     C_R   0.261083 0.502135 0.515718 0.902462
C21   C     C_R   0.917324 0.287640 0.453278 0.021862
C22   C     C_R   0.981135 0.191043 0.490613 -0.022249
C23   C     C_R   0.876700 0.497227 0.483233 -0.256093
C24   C     C_R   0.078152 0.201912 0.563076 0.642654
C25   C     C_R   0.123300 0.307016 0.589234 0.005751
C26   C     C_R   0.068542 0.403011 0.541518 -0.074262
C27   C     C_R   0.930490 0.601043 0.495086 0.570451
C28   C     C_R   0.054908 0.605683 0.523075 -0.009646
C29   C     C_R   0.127189 0.505092 0.536725 -0.190881
C30   C     C_R   0.497758 0.462268 0.187788 -0.270888
C31   C     C_R   0.481845 0.535794 0.810665 -0.074258
C32   C     C_R   0.373935 0.614390 0.963853 -0.112147
F1    F     F_    0.863757 0.698910 0.477616 -0.677028
F2    F     F_    0.303458 0.775815 0.368297 -0.688292
F3    F     F_    0.132124 0.109211 0.605555 -0.650732
F4    F     F_    0.644178 0.301418 0.195343 -0.662149
H1    H     H_    0.615135 0.396496 0.828763 0.151509
H2    H     H_    0.271438 0.652007 0.741375 0.190994
H3    H     H_    0.613675 0.833221 0.687671 0.158970
H4    H     H_    0.729455 0.824765 0.597218 0.233580
H5    H     H_    0.810813 0.349743 0.332786 0.236407
H6    H     H_    0.751006 0.240870 0.391212 0.246988
H7    H     H_    0.959486 0.071746 0.375233 0.219620
H8    H     H_    0.852904 0.074048 0.472559 0.199279
H9    H     H_    0.299189 0.274994 0.647446 0.243641
H10   H     H_    0.228144 0.398755 0.694886 0.175733
H11   H     H_    0.056488 0.758703 0.598851 0.212185
H12   H     H_    0.376637 0.181402 0.410981 0.130641
H13   H     H_    0.094299 0.756057 0.471380 0.279938
H14   H     H_    0.377484 0.683524 0.209640 0.272359
H15   H     H_    0.281036 0.578538 0.234120 0.233460
H16   H     H_    0.670240 0.216076 0.630111 0.140985
H17   H     H_    0.302045 0.992758 0.361585 0.183046
H18   H     H_    0.692504 0.013076 0.647936 0.149812
H19   H     H_    0.305932 0.676271 0.999409 0.181668
H20   H     H_    0.752177 0.323839 0.950251 0.187764
H21   H     H_    0.630430 0.239395 0.929755 0.189241
H22   H     H_    0.379205 0.749154 0.767876 0.221943
N1    N     N_R   0.523130 0.207800 0.519340 -0.122742
N2    N     N_3   0.330460 0.616149 0.177146 -0.426614
N3    N     N_R   0.476870 0.792180 0.480660 -0.142577
N4    N     N_3   0.679037 0.286387 0.985912 -0.385552
N5    N     N_3   0.319400 0.695137 0.800644 -0.444169
N6    N     N_3   0.638142 0.803040 0.612178 -0.362519
N7    N     N_3   0.833475 0.273592 0.366145 -0.389921
N8    N     N_3   0.947999 0.080923 0.455882 -0.385826
N9    N     N_3   0.213606 0.315291 0.672512 -0.394653
N10   N     N_3   0.107050 0.712965 0.539280 -0.381820
O1    O     O_R   0.506170 0.421690 0.658830 -0.639123
O2    O     O_R   0.491330 0.609320 0.646410 -0.622382
O3    O     O_R   0.690660 0.406170 0.506210 -0.645489
O4    O     O_R   0.675810 0.593790 0.493790 -0.527744
O5    O     O_R   0.508670 0.390680 0.353590 -0.581378
O6    O     O_R   0.493830 0.578310 0.341170 -0.603982
O7    O     O_R   0.324190 0.406210 0.506210 -0.647028
O8    O     O_R   0.309340 0.593830 0.493790 -0.552374
Zn1   Zn    Zn3+2 0.509910 0.374720 0.508290 0.935962
Zn2   Zn    Zn3+2 0.490090 0.625280 0.491710 1.027066

loop_
_geom_bond_atom_site_label_1
_geom_bond_atom_site_label_2
_ccdc_geom_bond_type
C6    C32   A    
H13   N10   S    
O2    Zn2   S    
C7    N2    S    
H8    N8    S    
C25   N9    S    
C17   H12   S    
C4    O4    A    
N1    Zn1   S    
C18   H16   S    
H21   N4    S    
C27   F1    S    
H3    N6    S    
C12   C23   A    
C16   O6    A    
C28   C29   A    
C28   N10   S    
O8    Zn2   S    
C10   C15   A    
C5    C6    A    
C16   C30   S    
C1    C31   S    
C20   O8    A    
C2    C32   A    
C18   C19   A    
C8    F4    S    
C10   H17   S    
C22   N8    S    
O4    Zn2   S    
O1    Zn1   S    
C8    C9    A    
H9    N9    S    
H6    N7    S    
C23   C27   A    
C32   H19   S    
C7    C30   A    
C13   C14   A    
C20   C29   S    
C24   F3    S    
C16   O5    A    
C24   C25   A    
C4    C23   S    
H5    N7    S    
C3    C5    A    
C25   C26   A    
C12   C21   A    
C1    O1    A    
C9    N4    S    
C20   O7    A    
C12   C26   A    
C2    C31   A    
C5    C9    A    
N3    Zn2   S    
C3    C31   A    
O7    Zn1   S    
C17   N1    A    
C19   H18   S    
H20   N4    S    
H11   N10   S    
O3    Zn1   S    
C2    N5    S    
H2    N5    S    
H22   N5    S    
C15   C17   A    
C21   N7    S    
C14   C19   A    
C11   F2    S    
C11   N3    A    
C6    C7    A    
C1    O2    A    
H4    N6    S    
H14   N2    S    
C8    C30   A    
H10   N9    S    
C13   N6    S    
H7    N8    S    
C22   C24   A    
C10   C11   A    
C18   N1    A    
C13   N3    A    
C3    H1    S    
C26   C29   A    
O6    Zn2   S    
C27   C28   A    
O5    Zn1   S    
C14   C15   A    
H15   N2    S    
C21   C22   A    
C4    O3    A    
