data_mof_unit_21109.cif
_audit_creation_date              2012-12-10T20:31:03-0500
_audit_creation_method            fapswitch 2.2
_symmetry_space_group_name_H-M    P1
_symmetry_Int_Tables_number       1
_space_group_crystal_system       triclinic
_cell_length_a                    15.0165
_cell_length_b                    10.678471
_cell_length_c                    9.848766
_cell_angle_alpha                 89.857036
_cell_angle_beta                  90.023997
_cell_angle_gamma                 90.163255
_cell_volume                      1579.27027183

loop_
_atom_site_label
_atom_site_type_symbol
_atom_type_description
_atom_site_fract_x
_atom_site_fract_y
_atom_site_fract_z
_atom_type_partial_charge
C1    C     C_R   0.502776 0.259871 0.500126 0.883743
C2    C     C_R   0.184594 0.505553 0.376427 -0.256889
C3    C     C_R   0.230513 0.503826 0.499992 -0.078340
C4    C     C_R   0.326509 0.500947 0.499996 0.898291
C5    C     C_R   0.184674 0.505311 0.623573 -0.261124
C6    C     C_R   0.517486 0.063462 0.623229 0.142569
C7    C     C_R   0.517294 0.128545 0.500629 -0.104844
C8    C     C_R   0.534506 0.065173 0.378818 -0.225070
C9    C     C_R   0.534753 0.935643 0.378677 -0.225187
C10   C     C_R   0.517797 0.871388 0.500349 -0.102800
C11   C     C_R   0.517881 0.935691 0.623119 0.127105
C12   C     C_R   0.907282 0.504913 0.624667 0.118574
C13   C     C_3   0.454675 0.927449 0.740061 -0.473167
C14   C     C_3   0.453901 0.069311 0.739739 -0.495456
C15   C     C_R   0.462761 0.402624 0.071623 0.216754
C16   C     C_R   0.503061 0.740073 0.499862 0.882803
C17   C     C_R   0.544010 0.589958 0.071809 -0.137071
C18   C     C_R   0.544054 0.589935 0.927713 -0.140521
C19   C     C_R   0.462434 0.402874 0.928898 0.219669
C20   C     C_3   0.367151 0.363468 0.924320 -0.519801
C21   C     C_3   0.367968 0.361922 0.078221 -0.509718
C22   C     C_R   0.673443 0.500449 0.500008 0.890919
C23   C     C_R   0.953574 0.505860 0.252061 -0.217839
C24   C     C_R   0.815168 0.503283 0.623733 -0.259767
C25   C     C_R   0.769344 0.502192 0.500030 -0.073970
C26   C     C_R   0.815105 0.503379 0.376325 -0.259971
C27   C     C_R   0.907212 0.505037 0.375381 0.118704
C28   C     C_R   0.953560 0.505522 0.500021 0.060911
C29   C     C_R   0.046098 0.506531 0.252081 -0.217119
C30   C     C_R   0.092494 0.506287 0.375424 0.120103
C31   C     C_R   0.046206 0.506105 0.500014 0.059451
C32   C     C_R   0.092571 0.506099 0.624594 0.120728
C33   C     C_R   0.046248 0.506208 0.747944 -0.217782
C34   C     C_R   0.953720 0.505584 0.747978 -0.217812
H1    H     H_    0.779361 0.502696 0.719360 0.162554
H2    H     H_    0.358010 0.269134 0.879504 0.199698
H3    H     H_    0.324084 0.434124 0.123261 0.212543
H4    H     H_    0.779253 0.502853 0.280694 0.162365
H5    H     H_    0.360720 0.266462 0.122186 0.203069
H6    H     H_    0.918343 0.505644 0.155977 0.140868
H7    H     H_    0.081309 0.506742 0.156016 0.141102
H8    H     H_    0.220215 0.506180 0.280937 0.152578
H9    H     H_    0.220366 0.505694 0.719056 0.152758
H10   H     H_    0.081518 0.506289 0.844002 0.141050
H11   H     H_    0.918546 0.505268 0.844066 0.140935
H12   H     H_    0.541763 0.886949 0.282914 0.165161
H13   H     H_    0.541407 0.114481 0.283103 0.169883
H14   H     H_    0.389482 0.885169 0.711832 0.207259
H15   H     H_    0.486485 0.886857 0.832069 0.200095
H16   H     H_    0.388334 0.109283 0.710382 0.199997
H17   H     H_    0.484922 0.110753 0.831836 0.203563
H18   H     H_    0.578122 0.663837 0.126073 0.142210
H19   H     H_    0.578236 0.663755 0.873100 0.145912
H20   H     H_    0.323306 0.437215 0.881667 0.211885
N1    N     N_R   0.499390 0.499140 0.142800 -0.107290
N2    N     N_R   0.499390 0.499180 0.857150 -0.106685
O1    O     O_R   0.500010 0.316790 0.614690 -0.615839
O2    O     O_R   0.500000 0.316760 0.385350 -0.624287
O3    O     O_R   0.367850 0.499990 0.614680 -0.625863
O4    O     O_R   0.367840 0.499950 0.385340 -0.623449
O5    O     O_R   0.500000 0.683240 0.614650 -0.622183
O6    O     O_R   0.499990 0.683210 0.385310 -0.626681
O7    O     O_R   0.632160 0.500050 0.614660 -0.627365
O8    O     O_R   0.632150 0.500010 0.385320 -0.628162
Zn1   Zn    Zn3+2 0.500010 0.500020 0.653130 0.943553
Zn2   Zn    Zn3+2 0.499990 0.499980 0.346870 0.942689

loop_
_geom_bond_atom_site_label_1
_geom_bond_atom_site_label_2
_ccdc_geom_bond_type
C19   N2    A    
C13   H14   S    
C24   C25   A    
O7    Zn1   S    
C29   C30   A    
N2    Zn1   S    
C1    O1    A    
C6    C14   S    
C9    C10   A    
C17   N1    A    
C31   C32   A    
C21   H5    S    
C18   N2    A    
C2    C30   A    
C5    C32   A    
C32   C33   A    
C4    O4    A    
C17   C18   A    
C5    H9    S    
C8    H13   S    
O4    Zn2   S    
C9    H12   S    
C34   H11   S    
C10   C16   S    
C1    O2    A    
O3    Zn1   S    
C15   C19   A    
C11   C13   S    
O8    Zn2   S    
C26   C27   A    
C14   H16   S    
C15   C21   S    
C16   O6    A    
C2    H8    S    
C13   H15   S    
C23   C29   A    
C4    O3    A    
C25   C26   A    
C12   C28   A    
C33   C34   A    
C6    C7    A    
C23   C27   A    
C6    C11   A    
C14   H17   S    
C30   C31   A    
C24   H1    S    
C16   O5    A    
O6    Zn2   S    
C12   C34   A    
C23   H6    S    
C20   H2    S    
O5    Zn1   S    
C7    C8    A    
N1    Zn2   S    
C21   H3    S    
C20   C21   S    
C17   H18   S    
C20   H20   S    
C10   C11   A    
C27   C28   A    
C12   C24   A    
C26   H4    S    
C1    C7    S    
C2    C3    A    
C18   H19   S    
C29   H7    S    
C22   O7    A    
C13   C14   S    
C33   H10   S    
C22   O8    A    
O2    Zn2   S    
C28   C31   A    
C3    C4    S    
C19   C20   S    
O1    Zn1   S    
C8    C9    A    
C3    C5    A    
C22   C25   S    
C15   N1    A    
