data_mof_unit_63054.cif
_audit_creation_date              2012-12-10T16:48:56-0500
_audit_creation_method            fapswitch 2.2
_symmetry_space_group_name_H-M    P1
_symmetry_Int_Tables_number       1
_space_group_crystal_system       triclinic
_cell_length_a                    18.439817
_cell_length_b                    18.399269
_cell_length_c                    18.425811
_cell_angle_alpha                 119.727011
_cell_angle_beta                  119.713097
_cell_angle_gamma                 90.502378
_cell_volume                      4438.34838108

loop_
_atom_site_label
_atom_site_type_symbol
_atom_type_description
_atom_site_fract_x
_atom_site_fract_y
_atom_site_fract_z
_atom_type_partial_charge
C1    C     C_R   0.138407 0.361379 0.999570 0.511707
C2    C     C_2   0.816887 0.703712 0.011211 -0.087602
C3    C     C_2   0.719960 0.281243 0.443913 -0.154451
C4    C     C_R   0.863159 0.640005 0.001561 0.509969
C5    C     C_2   0.697431 0.192445 0.387741 -0.088078
C6    C     C_2   0.779222 0.337450 0.556254 -0.152974
C7    C     C_2   0.802780 0.304505 0.612198 -0.094194
C8    C     C_2   0.337343 0.281304 0.057200 -0.157409
C9    C     C_2   0.304733 0.192379 0.001523 -0.094589
C10   C     C_2   0.281054 0.337411 0.059691 -0.157392
C11   C     C_2   0.192244 0.304453 0.995438 -0.094504
C12   C     C_3   0.715882 0.318737 0.976923 -0.238609
C13   C     C_2   0.217355 0.775563 0.937141 -0.157000
C14   C     C_2   0.305037 0.811766 0.007312 -0.088058
C15   C     C_2   0.161613 0.724402 0.941596 -0.157481
C16   C     C_R   0.138512 0.638096 0.276952 0.510351
C17   C     C_2   0.195374 0.687911 0.992833 -0.087431
C18   C     C_2   0.219001 0.775952 0.556257 -0.154744
C19   C     C_2   0.307759 0.808998 0.612287 -0.094897
C20   C     C_2   0.162730 0.722302 0.443861 -0.154459
C21   C     C_2   0.195377 0.690795 0.387690 -0.094660
C22   C     C_R   0.638952 0.138439 0.277023 0.521261
C23   C     C_3   0.803918 0.300550 0.002503 0.018500
C24   C     C_R   0.361655 0.861809 0.723043 0.512061
C25   C     C_R   0.637066 0.859817 0.998591 0.502011
C26   C     C_R   0.361519 0.138441 0.000298 0.506207
C27   C     C_R   0.359505 0.860360 0.000925 0.517336
C28   C     C_R   0.861107 0.361389 0.722960 0.512767
C29   C     C_R   0.644867 0.141418 0.003626 0.506683
C30   C     C_R   0.140462 0.639527 0.998950 0.516950
C31   C     C_R   0.858622 0.358476 0.999789 0.497965
C32   C     C_3   0.783686 0.200658 0.925057 -0.245347
C33   C     C_3   0.728152 0.141393 0.928701 -0.277639
C34   C     C_3   0.708103 0.199308 0.009027 0.053329
C35   C     C_3   0.854972 0.321081 0.110683 -0.197400
C36   C     C_R   0.651766 0.723120 0.997210 0.034774
C37   C     C_R   0.671162 0.747046 0.091789 -0.082190
C38   C     C_R   0.646261 0.682305 0.101780 -0.106240
C39   C     C_R   0.601649 0.593422 0.017606 -0.095060
C40   C     C_R   0.581618 0.569125 0.923173 -0.112143
C41   C     C_R   0.606293 0.633625 0.912767 -0.089630
C42   C     C_R   0.861305 0.213453 0.160721 0.058545
C43   C     C_R   0.830933 0.122789 0.121800 -0.099165
C44   C     C_R   0.887013 0.084187 0.164548 -0.114228
C45   C     C_3   0.801631 0.262309 0.119995 0.217875
C46   C     C_R   0.974624 0.134802 0.248227 -0.099064
C47   C     C_R   0.006319 0.224442 0.289872 -0.109989
C48   C     C_R   0.950614 0.263393 0.247513 -0.056638
C49   C     C_3   0.656959 0.254360 0.971936 -0.219060
C50   C     C_2   0.730936 0.786692 0.953183 -0.172696
C51   C     C_2   0.678867 0.791607 0.986137 -0.000852
C52   C     C_2   0.779848 0.723844 0.943208 -0.169080
H1    H     H_    0.846715 0.186428 0.942769 0.140929
H2    H     H_    0.746897 0.183956 0.846272 0.141897
H3    H     H_    0.778241 0.234332 0.578014 0.105263
H4    H     H_    0.408385 0.315213 0.104275 0.163589
H5    H     H_    0.234793 0.156221 0.955968 0.107509
H6    H     H_    0.314776 0.408692 0.116110 0.158920
H7    H     H_    0.156198 0.234266 0.936275 0.106677
H8    H     H_    0.185021 0.784387 0.875623 0.162374
H9    H     H_    0.338576 0.808620 0.072845 0.105190
H10   H     H_    0.091402 0.715907 0.900670 0.160336
H11   H     H_    0.263904 0.690732 0.029255 0.106613
H12   H     H_    0.627791 0.290415 0.013295 0.189121
H13   H     H_    0.185310 0.789342 0.593653 0.160726
H14   H     H_    0.665129 0.096549 0.851166 0.144996
H15   H     H_    0.343738 0.799386 0.578277 0.105759
H16   H     H_    0.091648 0.707642 0.406600 0.162616
H17   H     H_    0.265368 0.701639 0.421593 0.107014
H18   H     H_    0.763528 0.097393 0.944896 0.122679
H19   H     H_    0.919312 0.310650 0.127789 0.070272
H20   H     H_    0.729005 0.388430 0.036173 0.165079
H21   H     H_    0.680431 0.310450 0.902335 0.107987
H22   H     H_    0.598410 0.208009 0.891082 0.094966
H23   H     H_    0.872262 0.393127 0.166980 0.187396
H24   H     H_    0.767810 0.324558 0.321747 0.363010
H25   H     H_    0.706808 0.815441 0.158051 0.125010
H26   H     H_    0.661859 0.701006 0.174919 0.117192
H27   H     H_    0.582614 0.543378 0.025556 0.117452
H28   H     H_    0.546972 0.500280 0.858008 0.106500
H29   H     H_    0.590259 0.613925 0.839115 0.115199
H30   H     H_    0.764655 0.079449 0.058764 0.129013
H31   H     H_    0.862052 0.014584 0.132717 0.108429
H32   H     H_    0.017768 0.104682 0.281190 0.111878
H33   H     H_    0.074240 0.264178 0.355560 0.110891
H34   H     H_    0.739484 0.831686 0.933912 0.140918
H35   H     H_    0.978263 0.333480 0.283377 0.144624
H36   H     H_    0.788105 0.696839 0.881388 0.156791
H37   H     H_    0.814760 0.735927 0.077527 0.123302
H38   H     H_    0.695163 0.314971 0.406724 0.154806
H39   H     H_    0.722718 0.156620 0.421719 0.105581
H40   H     H_    0.802869 0.408713 0.593667 0.160440
O1    O     O_3   1.000000 0.500000 0.000000 -0.442634
O2    O     O_R   0.324760 0.053850 0.939900 -0.543960
O3    O     O_R   0.443270 0.883090 0.060070 -0.541905
O4    O     O_R   0.053940 0.324750 0.939940 -0.542092
O5    O     O_R   0.616890 0.176890 0.060090 -0.461604
O6    O     O_R   0.323100 0.883090 0.939900 -0.543694
O7    O     O_R   0.616910 0.056740 0.939940 -0.579284
O8    O     O_R   0.615250 0.885990 0.939940 -0.551055
O9    O     O_R   0.446110 0.175200 0.060060 -0.539646
O10   O     O_R   0.614030 0.053850 0.229160 -0.546911
O11   O     O_R   0.324790 0.884790 0.770830 -0.540226
O12   O     O_R   0.053880 0.613970 0.229150 -0.539212
O13   O     O_R   0.884790 0.613970 0.060060 -0.538016
O14   O     O_R   0.175250 0.615170 0.229170 -0.541750
O15   O     O_R   0.886020 0.446110 0.770840 -0.540234
O16   O     O_R   0.176940 0.616860 0.060100 -0.542023
O17   O     O_R   0.883150 0.323060 0.939910 -0.548722
O18   O     O_R   0.056770 0.616860 0.939930 -0.543493
O19   O     O_R   0.883130 0.443210 0.060060 -0.544552
O20   O     O_2   0.874539 0.410679 0.313246 -0.319690
O21   O     O_2   0.718940 0.377228 0.190075 -0.296827
O22   O     O_3   0.761004 0.278920 0.257756 -0.489505
O23   O     O_R   0.884840 0.324750 0.770840 -0.541986
O24   O     O_R   0.175280 0.446110 0.060100 -0.540086
O25   O     O_R   0.885990 0.615170 0.939900 -0.543724
O26   O     O_3   0.500040 0.999960 0.000000 -0.448266
O27   O     O_R   0.615200 0.175200 0.229160 -0.512728
O28   O     O_R   0.446160 0.885990 0.770850 -0.541302
O29   O     O_R   0.614060 0.884790 0.060100 -0.542723
S1    S     S_3+6 0.788219 0.336336 0.221672 -0.007834
Zn1   Zn    Zn3+2 0.956210 0.542060 0.085830 0.938887
Zn2   Zn    Zn3+2 0.129620 0.543770 0.085850 0.939643
Zn3   Zn    Zn3+2 0.957930 0.543770 0.914160 0.934930
Zn4   Zn    Zn3+2 0.956240 0.370390 0.914160 0.932403
Zn5   Zn    Zn3+2 0.543830 0.957900 0.914170 0.922219
Zn6   Zn    Zn3+2 0.542120 0.956180 0.085840 0.941351
Zn7   Zn    Zn3+2 0.370430 0.956180 0.914150 0.935125
Zn8   Zn    Zn3+2 0.543800 0.129560 0.085840 0.988845

loop_
_geom_bond_atom_site_label_1
_geom_bond_atom_site_label_2
_ccdc_geom_bond_type
C26   O2    A    
C27   O6    A    
C16   C21   S    
O8    Zn5   S    
C27   O3    A    
C1    C11   S    
O1    Zn2   S    
C7    H3    S    
O21   S1    D    
C44   H31   S    
C8    H4    S    
C12   C49   S    
O28   Zn5   S    
O12   Zn1   S    
C18   H13   S    
C12   C23   S    
C35   H23   S    
O23   Zn4   S    
C30   O18   A    
C3    H38   S    
C47   H33   S    
C36   C37   A    
C10   H6    S    
O5    Zn8   S    
O10   Zn6   S    
C26   O9    A    
C38   C39   A    
C28   O15   A    
O27   Zn8   S    
O13   Zn1   S    
C18   C19   D    
O1    Zn4   S    
O3    Zn6   S    
C16   O12   A    
C5    C22   S    
C8    C9    D    
C9    C26   S    
H24   O22   S    
C40   H28   S    
C19   H15   S    
C1    O24   A    
C14   C27   S    
C9    H5    S    
C16   O14   A    
O9    Zn8   S    
C3    C6    S    
C12   H20   S    
C35   H19   S    
C49   H12   S    
C13   C14   D    
C17   C30   S    
C36   C41   A    
O26   Zn6   S    
O16   Zn2   S    
C11   H7    S    
C32   H2    S    
C44   C46   A    
C33   H14   S    
C50   C51   D    
C22   O27   A    
C24   O28   A    
O2    Zn7   S    
C29   O7    A    
O19   Zn1   S    
C52   H36   S    
O15   Zn3   S    
O29   Zn6   S    
C39   C40   A    
C13   H8    S    
O7    Zn5   S    
C38   H26   S    
C14   H9    S    
C37   H25   S    
C29   C34   S    
C7    C28   S    
C21   H17   S    
C42   C45   S    
C23   C31   S    
C2    H37   S    
C2    C4    S    
C43   C44   A    
C25   C51   S    
O20   S1    D    
C37   C38   A    
O26   Zn8   S    
C28   O23   A    
C25   O8    A    
C50   C52   S    
C47   C48   A    
C41   H29   S    
C33   C34   S    
C31   O17   A    
C48   H35   S    
O4    Zn4   S    
C34   C45   S    
C42   C48   A    
O11   Zn7   S    
C5    H39   S    
C36   C51   S    
C2    C52   D    
C33   H18   S    
C46   H32   S    
C40   C41   A    
C23   C35   S    
C13   C15   S    
C4    O25   A    
O26   Zn5   S    
C35   C45   S    
C32   H1    S    
C15   C17   D    
C46   C47   A    
C34   C49   S    
O24   Zn2   S    
C30   O16   A    
C20   H16   S    
O1    Zn1   S    
C3    C5    D    
C6    C7    D    
C45   S1    S    
C4    O13   A    
C22   O10   A    
C29   O5    A    
C24   O11   A    
C32   C33   S    
C19   C24   S    
O26   Zn7   S    
C23   C32   S    
C25   O29   A    
C1    O4    A    
C6    H40   S    
O6    Zn7   S    
C15   H10   S    
C18   C20   S    
O1    Zn3   S    
C10   C11   D    
C50   H34   S    
O18   Zn3   S    
O22   S1    S    
O17   Zn4   S    
C20   C21   D    
C8    C10   S    
C42   C43   A    
O14   Zn2   S    
C43   H30   S    
C31   O19   A    
C49   H22   S    
C12   H21   S    
O25   Zn3   S    
C17   H11   S    
C39   H27   S    
