data_mof_unit_19116.cif
_audit_creation_date              2013-03-05T15:52:30-0500
_audit_creation_method            fapswitch 2.2
_symmetry_space_group_name_H-M    P1
_symmetry_Int_Tables_number       1
_space_group_crystal_system       triclinic
_cell_length_a                    11.016068
_cell_length_b                    11.041827
_cell_length_c                    18.704039
_cell_angle_alpha                 90.828097
_cell_angle_beta                  90.973349
_cell_angle_gamma                 59.831338
_cell_volume                      1966.61849841

loop_
_atom_site_label
_atom_site_type_symbol
_atom_site_description
_atom_site_fract_x
_atom_site_fract_y
_atom_site_fract_z
_atom_type_partial_charge
O1    O     O_R   0.748670 0.497520 0.427970 -0.536437
O2    O     O_R   0.476470 0.723930 0.429450 -0.507098
C1    C     C_R   0.357129 0.775445 0.398823 0.546456
O3    O     O_R   0.264730 0.744140 0.416740 -0.517506
O4    O     O_R   0.309440 0.472410 0.418220 -0.491757
C2    C     C_R   0.378867 0.349976 0.391135 0.553531
O5    O     O_R   0.501630 0.260530 0.414310 -0.531382
O6    O     O_R   0.727920 0.305730 0.428950 -0.511016
C3    C     C_R   0.771594 0.381679 0.401689 0.524236
O7    O     O_R   0.738670 0.496020 0.588600 -0.526952
O8    O     O_R   0.467190 0.722540 0.578350 -0.508125
C4    C     C_R   0.348671 0.760598 0.607028 0.550074
O9    O     O_R   0.254720 0.742640 0.577370 -0.519058
O10   O     O_R   0.300170 0.471020 0.567120 -0.512951
C5    C     C_R   0.369140 0.350620 0.595165 0.555594
O11   O     O_R   0.491630 0.259030 0.574940 -0.522499
O12   O     O_R   0.718640 0.304340 0.577850 -0.510168
C6    C     C_R   0.757434 0.380076 0.612050 0.543539
Cr1   Cr    Cr6+3 0.601740 0.606840 0.505840 0.994678
Cr2   Cr    Cr6+3 0.291500 0.601560 0.495070 1.020758
Cr3   Cr    Cr6+3 0.606780 0.291630 0.499130 0.998326
O13   O     O_3   0.500010 0.500010 0.500020 -0.249222
C7    C     C_R   0.886422 0.937088 0.159599 -0.094608
C8    C     C_R   0.843548 0.022959 0.220066 -0.132277
C9    C     C_R   0.703655 0.099587 0.237648 -0.131560
C10   C     C_R   0.598700 0.102281 0.192707 0.027797
H1    H     H_    0.498245 0.112506 0.318343 0.152998
C11   C     C_R   0.345604 0.315223 0.171941 0.006865
C12   C     C_R   0.423182 0.200882 0.286586 -0.117358
C13   C     C_R   0.447563 0.199772 0.213840 -0.052427
C14   C     C_R   0.055176 0.697615 0.312036 -0.080887
C15   C     C_R   0.952114 0.801083 0.356130 -0.099454
C16   C     C_R   0.645368 0.004489 0.135418 -0.068859
C17   C     C_R   0.787207 0.925726 0.117944 -0.127697
C18   C     C_R   0.234063 0.435438 0.207417 -0.026258
C19   C     C_R   0.223086 0.438092 0.282863 -0.051631
C20   C     C_R   0.895043 0.764744 0.411905 -0.118142
C21   C     C_R   0.941701 0.624644 0.424820 -0.100769
C22   C     C_R   0.042787 0.521415 0.380843 -0.057228
C23   C     C_R   0.101083 0.554912 0.323060 0.037669
C24   C     C_R   0.331220 0.325062 0.321376 0.026858
H2    H     H_    0.820550 0.851037 0.074150 0.120867
H3    H     H_    0.918663 0.910071 0.349737 0.099192
H4    H     H_    0.996188 0.874055 0.146845 0.174192
H5    H     H_    0.915844 0.030697 0.256059 0.094495
H6    H     H_    0.679356 0.156290 0.287650 0.125145
H7    H     H_    0.102799 0.728835 0.271702 0.112166
H8    H     H_    0.578383 0.972441 0.109406 0.176956
H9    H     H_    0.817552 0.845106 0.446349 0.099538
H10   H     H_    0.903317 0.595687 0.470596 0.133741
H11   H     H_    0.084317 0.414924 0.396133 0.149386
C25   C     C_R   0.923816 0.314132 0.190639 -0.008637
C26   C     C_R   0.782239 0.399338 0.205017 0.059937
C27   C     C_R   0.735578 0.421534 0.273783 -0.038752
C28   C     C_R   0.972789 0.272370 0.318347 -0.020938
C29   C     C_R   0.020643 0.262852 0.247850 -0.162982
C30   C     C_3   0.652068 0.405319 0.175235 -0.100633
C31   C     C_3   0.593758 0.445576 0.251157 -0.304779
C32   C     C_R   0.827116 0.349016 0.330598 -0.009650
H12   H     H_    0.132032 0.209235 0.237093 0.143396
H13   H     H_    0.671818 0.301570 0.156519 0.165442
H14   H     H_    0.510993 0.557299 0.257261 0.120574
H15   H     H_    0.563366 0.375315 0.276034 0.140036
C33   C     C_R   0.309392 0.921980 0.189371 -0.004092
C34   C     C_R   0.430509 0.897748 0.228107 0.009782
C35   C     C_R   0.439026 0.871146 0.301511 0.048806
C36   C     C_R   0.203925 0.913218 0.300585 -0.119000
C37   C     C_R   0.193634 0.944290 0.228832 -0.166994
C38   C     C_3   0.583182 0.786990 0.221545 -0.291098
C39   C     C_3   0.591620 0.771372 0.301574 -0.272457
C40   C     C_R   0.332253 0.860248 0.335612 0.071876
H16   H     H_    0.113718 0.924171 0.327901 0.117258
H17   H     H_    0.094425 0.986773 0.202481 0.132742
H18   H     H_    0.657002 0.819619 0.205350 0.150997
H19   H     H_    0.598655 0.693136 0.192894 0.157661
H20   H     H_    0.619859 0.666696 0.320340 0.181249
H21   H     H_    0.650440 0.817022 0.328371 0.149933
C41   C     C_R   0.299381 0.307920 0.808993 0.021949
C42   C     C_R   0.374222 0.188842 0.765945 0.039705
C43   C     C_R   0.381860 0.198132 0.693399 0.017943
C44   C     C_R   0.221298 0.447445 0.701884 -0.164972
C45   C     C_R   0.213818 0.436926 0.775917 -0.177656
C46   C     C_3   0.522762 0.071989 0.772112 -0.263535
C47   C     C_3   0.530486 0.078884 0.691837 -0.273882
C48   C     C_R   0.316458 0.329281 0.661220 0.018457
H22   H     H_    0.164302 0.550483 0.678259 0.140881
H23   H     H_    0.148553 0.530111 0.807264 0.125035
H24   H     H_    0.531201 0.973527 0.790583 0.139463
H25   H     H_    0.591342 0.103564 0.801366 0.142745
H26   H     H_    0.608431 0.108222 0.675778 0.159769
H27   H     H_    0.539450 0.985466 0.663668 0.130225
C49   C     C_R   0.801915 0.343301 0.838152 0.023762
C50   C     C_R   0.775035 0.465566 0.801839 0.038567
C51   C     C_R   0.767047 0.470657 0.728889 0.037692
C52   C     C_R   0.780123 0.247166 0.724205 -0.164919
C53   C     C_R   0.788329 0.240784 0.799367 -0.173934
C54   C     C_3   0.849629 0.549001 0.802340 -0.264287
C55   C     C_3   0.841239 0.551233 0.721912 -0.284761
C56   C     C_R   0.781650 0.358062 0.688421 0.019644
H28   H     H_    0.779503 0.163034 0.694350 0.122047
H29   H     H_    0.797381 0.150334 0.826110 0.119069
H30   H     H_    0.959823 0.489574 0.821451 0.174270
H31   H     H_    0.785957 0.654376 0.827090 0.126261
H32   H     H_    0.774726 0.657785 0.699867 0.130423
H33   H     H_    0.944985 0.488698 0.695947 0.143964
C57   C     C_R   0.316630 0.811601 0.832657 0.025147
C58   C     C_R   0.216695 0.796729 0.792431 0.021428
C59   C     C_R   0.226925 0.783986 0.719145 0.031928
C60   C     C_R   0.449171 0.775049 0.724557 -0.157169
C61   C     C_R   0.441253 0.783518 0.799104 -0.149781
C62   C     C_3   0.060763 0.888519 0.788137 -0.272630
C63   C     C_3   0.072455 0.873038 0.707661 -0.280660
C64   C     C_R   0.335800 0.786887 0.683535 0.018594
H34   H     H_    0.540861 0.764759 0.699026 0.128311
H35   H     H_    0.525789 0.782941 0.829631 0.125464
H36   H     H_    0.027645 0.996252 0.806658 0.161089
H37   H     H_    0.004578 0.839159 0.812064 0.133165
H38   H     H_    0.024761 0.812805 0.684910 0.131680
H39   H     H_    0.043099 0.972461 0.679726 0.138981
O14   O     O_R   0.186620 0.923750 0.087000 -0.504087
O15   O     O_R   0.957350 0.194160 0.084660 -0.496906
C65   C     C_R   0.970661 0.291471 0.118105 0.532874
O16   O     O_R   0.935120 0.407280 0.085350 -0.469356
O17   O     O_R   0.203800 0.365060 0.067090 -0.476456
C66   C     C_R   0.326602 0.290405 0.095442 0.575384
O18   O     O_R   0.417470 0.174910 0.067830 -0.545462
O19   O     O_R   0.375160 0.946380 0.070880 -0.506500
C67   C     C_R   0.279355 0.952554 0.112839 0.533669
O20   O     O_R   0.160500 0.919670 0.926690 -0.509214
O21   O     O_R   0.933140 0.190380 0.936050 -0.499790
C68   C     C_R   0.878132 0.311966 0.906171 0.580761
O22   O     O_R   0.909010 0.403210 0.925030 -0.508838
O23   O     O_R   0.179590 0.361290 0.918480 -0.508448
C69   C     C_R   0.294175 0.286517 0.884660 0.558489
O24   O     O_R   0.391360 0.170840 0.907510 -0.516633
O25   O     O_R   0.350950 0.942600 0.922260 -0.501220
C70   C     C_R   0.277653 0.889247 0.899675 0.568161
Cr4   Cr    Cr6+3 0.062440 0.063060 0.008240 1.031585
Cr5   Cr    Cr6+3 0.062950 0.375000 0.998920 1.050960
Cr6   Cr    Cr6+3 0.374550 0.061770 0.992470 1.002519
O26   O     O_3   0.166650 0.166610 0.999880 -0.302395
C71   C     C_2   0.072716 0.198777 0.377978 0.177644
H40   H     H_    0.035440 0.183315 0.428430 0.114300
O27   O     O_2   0.197726 0.157269 0.372127 -0.545559
C72   C     C_2   0.573587 0.516148 0.120030 0.229026
H41   H     H_    0.464833 0.596054 0.128534 0.146549
O28   O     O_2   0.629591 0.514052 0.063934 -0.461188
C73   C     C_2   0.131296 0.560417 0.166445 0.227398
H42   H     H_    0.020454 0.613032 0.179179 0.105989
O29   O     O_2   0.170846 0.607445 0.119260 -0.514138

loop_
_geom_bond_atom_site_label_1
_geom_bond_atom_site_label_2
_geom_bond_distance
_ccdc_geom_bond_type
C31   H14   1.111367 S    
C22   H11   1.066918 S    
C28   C29   1.411201 A    
C50   C51   1.365963 A    
C30   C72   1.501341 S    
H1    C12   1.085304 S    
C66   O18   1.269069 A    
O17   Cr5   1.952171 S    
C52   C53   1.407717 A    
C17   H2    1.082702 S    
C43   C47   1.499656 S    
C43   C48   1.392919 A    
C54   C55   1.505389 S    
O4    Cr2   1.950886 S    
C26   C27   1.365771 A    
C11   C66   1.484035 S    
O22   Cr5   2.069963 S    
O8    Cr1   1.945097 S    
C20   C21   1.386743 A    
C55   H33   1.111214 S    
C46   C47   1.510483 S    
C8    H5    1.069254 S    
C33   C37   1.393751 A    
C73   O29   1.221506 D    
C28   C32   1.409188 A    
C72   H41   1.085848 S    
O4    C2    1.274105 A    
C52   C56   1.411540 A    
C57   C58   1.398204 A    
C51   C55   1.488103 S    
C45   H23   1.082934 S    
O16   Cr5   2.068718 S    
C49   C53   1.404584 A    
C14   C23   1.409272 A    
C36   H16   1.076026 S    
C25   C65   1.433082 S    
O20   Cr4   2.065775 S    
C62   C63   1.512785 S    
C11   C18   1.440479 A    
O6    C3    1.273161 A    
C33   C67   1.469057 S    
C2    C24   1.471433 S    
C7    C8    1.392214 A    
C62   H36   1.106512 S    
C47   H27   1.111314 S    
C54   H30   1.106048 S    
O25   Cr6   1.950866 S    
C5    C48   1.445335 S    
C18   C73   1.484636 S    
C46   H24   1.103716 S    
C28   C71   1.483741 S    
C14   H7    1.079767 S    
C53   H29   1.081783 S    
C39   H21   1.111350 S    
C19   C24   1.413538 A    
C38   C39   1.505202 S    
C47   H26   1.106160 S    
C72   O28   1.220216 D    
C44   C45   1.398511 A    
C27   C32   1.401400 A    
O24   Cr6   2.073501 S    
C46   H25   1.112161 S    
O1    Cr1   2.064893 S    
C36   C37   1.378685 A    
O10   Cr2   1.953527 S    
C19   C23   1.516337 S    
C49   C68   1.458657 S    
O1    C3    1.266050 A    
C8    C9    1.377520 A    
C22   C23   1.411087 A    
C26   C30   1.499893 S    
C41   C42   1.399728 A    
C57   C70   1.451873 S    
C37   H17   1.063248 S    
O5    Cr3   2.073212 S    
O12   Cr3   1.952501 S    
C7    H4    1.078227 S    
C59   C63   1.490158 S    
C3    C32   1.436765 S    
C18   C19   1.416992 A    
C21   C22   1.394307 A    
O15   Cr4   1.947005 S    
C1    C40   1.453558 S    
C12   C13   1.390054 A    
C63   H38   1.111253 S    
C20   H9    1.082576 S    
C41   C45   1.398717 A    
C10   C16   1.416269 A    
O21   C68   1.293992 A    
C35   C40   1.405262 A    
O7    Cr1   2.071003 S    
C58   C59   1.376663 A    
C7    C17   1.386869 A    
O18   Cr6   2.071510 S    
Cr1   O13   1.994994 S    
O12   C6    1.275000 A    
C1    O3    1.279225 A    
C38   H18   1.090351 S    
C15   C20   1.390133 A    
Cr6   O26   1.986431 S    
C41   C69   1.445070 S    
O15   C65   1.305052 A    
C54   H31   1.111438 S    
C60   H34   1.077326 S    
Cr2   O13   1.987206 S    
O23   Cr5   1.949664 S    
C39   H20   1.096589 S    
O23   C69   1.280506 A    
C71   O27   1.219750 D    
O14   Cr4   2.071155 S    
O19   Cr6   1.954318 S    
O19   C67   1.299503 A    
O21   Cr4   1.950715 S    
C50   C54   1.511439 S    
C25   C26   1.386368 A    
C4    C64   1.451089 S    
C27   C31   1.501424 S    
C31   H15   1.098761 S    
O9    Cr2   2.068311 S    
C12   C24   1.389350 A    
O2    Cr1   1.952060 S    
C52   H28   1.079861 S    
C58   C62   1.494045 S    
C14   C15   1.405456 A    
C44   H22   1.082137 S    
O25   C70   1.279369 A    
Cr4   O26   1.995040 S    
O6    Cr3   1.949971 S    
C63   H39   1.112121 S    
O8    C4    1.278578 A    
O14   C67   1.297574 A    
O11   Cr3   2.069797 S    
C30   H13   1.105768 S    
C2    O5    1.281493 A    
C21   H10   1.081751 S    
C60   C64   1.404214 A    
C59   C64   1.396242 A    
C69   O24   1.259408 A    
C62   H37   1.111726 S    
C33   C34   1.410896 A    
C11   C13   1.435497 A    
O2    C1    1.269756 A    
C9    C10   1.406186 A    
C60   C61   1.397390 A    
C42   C46   1.493819 S    
Cr5   O26   1.989590 S    
C30   C31   1.533778 S    
C35   C39   1.475823 S    
C25   C29   1.405389 A    
C51   C56   1.385781 A    
O7    C6    1.273298 A    
C34   C38   1.508207 S    
C9    H6    1.077703 S    
C49   C50   1.410485 A    
C15   H3    1.074837 S    
C16   C17   1.395684 A    
C38   H19   1.095299 S    
C36   C40   1.385038 A    
C73   H42   1.085395 S    
C68   O22   1.259081 A    
C42   C43   1.369431 A    
O3    Cr2   2.073007 S    
C29   H12   1.082345 S    
O20   C70   1.270919 A    
C4    O9    1.265612 A    
C57   C61   1.403749 A    
C34   C35   1.399879 A    
C6    C56   1.450027 S    
C71   H40   1.084701 S    
C16   H8    1.073182 S    
O10   C5    1.269336 A    
C65   O16   1.294254 A    
Cr3   O13   1.989298 S    
C61   H35   1.081370 S    
C55   H32   1.108330 S    
C44   C48   1.415436 A    
C5    O11   1.273312 A    
O17   C66   1.287718 A    
C10   C13   1.515158 S    
