data_mof_unit_13173.cif
_audit_creation_date              2012-12-10T19:44:33-0500
_audit_creation_method            fapswitch 2.2
_symmetry_space_group_name_H-M    P1
_symmetry_Int_Tables_number       1
_space_group_crystal_system       triclinic
_cell_length_a                    8.53494
_cell_length_b                    14.950389
_cell_length_c                    14.3586
_cell_angle_alpha                 89.864692
_cell_angle_beta                  97.46874
_cell_angle_gamma                 92.697435
_cell_volume                      1814.59689054

loop_
_atom_site_label
_atom_site_type_symbol
_atom_type_description
_atom_site_fract_x
_atom_site_fract_y
_atom_site_fract_z
_atom_type_partial_charge
C1    C     C_R   0.504309 0.327966 0.500267 0.857609
C2    C     C_R   0.500549 0.671467 0.500103 0.850301
C3    C     C_R   0.444848 0.427602 0.100315 -0.260431
C4    C     C_R   0.625811 0.536487 0.904930 -0.145925
C5    C     C_R   0.431468 0.430045 0.197277 0.108699
C6    C     C_R   0.621398 0.541909 0.806347 0.099695
C7    C     C_R   0.567523 0.572348 0.209251 0.031780
C8    C     C_R   0.378977 0.455268 0.786948 0.059048
C9    C     C_R   0.555364 0.578523 0.109159 -0.092942
C10   C     C_R   0.367793 0.462247 0.885275 -0.093228
C11   C     C_R   0.498764 0.503098 0.053079 0.032473
C12   C     C_R   0.496147 0.501155 0.946373 0.048276
C13   C     C_R   0.201780 0.499016 0.475841 0.963760
C14   C     C_R   0.798168 0.504943 0.523780 0.955683
C15   C     C_2   0.036759 0.492449 0.463687 -0.383467
C16   C     C_2   0.962884 0.518239 0.533716 -0.380400
C17   C     C_R   0.575241 0.095474 0.583962 -0.177607
C18   C     C_R   0.399101 0.904669 0.446680 -0.183288
C19   C     C_R   0.569481 0.187732 0.583898 -0.223200
C20   C     C_R   0.390762 0.812267 0.446240 -0.210931
C21   C     C_R   0.518869 0.232156 0.500291 -0.034251
C22   C     C_R   0.507481 0.766652 0.501232 0.019146
C23   C     C_R   0.486291 0.184693 0.415573 -0.170517
C24   C     C_R   0.633040 0.811947 0.556336 -0.177857
C25   C     C_R   0.495561 0.092928 0.415153 -0.172224
C26   C     C_R   0.643820 0.904408 0.555028 -0.172415
C27   C     C_R   0.535071 0.047836 0.499732 0.107010
C28   C     C_R   0.526653 0.950950 0.500277 0.101980
H1    H     H_    0.976697 0.462128 0.399190 0.168263
H2    H     H_    0.023284 0.550298 0.597005 0.172678
H3    H     H_    0.606917 0.061408 0.649897 0.145264
H4    H     H_    0.305905 0.939883 0.405633 0.139890
H5    H     H_    0.603748 0.223936 0.648980 0.151684
H6    H     H_    0.293556 0.776428 0.403902 0.129439
H7    H     H_    0.451777 0.218028 0.349824 0.193391
H8    H     H_    0.724077 0.775702 0.598154 0.132514
H9    H     H_    0.469072 0.057027 0.349097 0.144613
H10   H     H_    0.743808 0.939382 0.595737 0.137332
H11   H     H_    0.404939 0.367548 0.060615 0.215702
H12   H     H_    0.728583 0.564054 0.949636 0.174574
N1    N     N_R   0.500000 0.499980 0.252470 -0.150944
N2    N     N_R   0.500000 0.500020 0.747530 -0.168547
O1    O     O_R   0.500010 0.369070 0.579480 -0.628188
O2    O     O_R   0.499990 0.630930 0.420520 -0.606918
O3    O     O_R   0.500010 0.369060 0.420520 -0.650571
O4    O     O_R   0.499990 0.630940 0.579480 -0.641925
O5    O     O_R   0.271750 0.500000 0.560890 -0.604634
O6    O     O_R   0.728250 0.500000 0.439110 -0.603656
O7    O     O_R   0.271750 0.499990 0.401930 -0.654736
O8    O     O_R   0.728250 0.500010 0.598070 -0.662565
Zn1   Zn    Zn3+2 0.500000 0.500010 0.606140 0.928932
Zn2   Zn    Zn3+2 0.500000 0.499990 0.393860 0.931862
C29   C     C_2   0.332919 0.358922 0.235969 0.386953
H13   H     H_    0.281562 0.370020 0.299483 0.117111
O9    O     O_2   0.301736 0.287582 0.194862 -0.587131
C30   C     C_2   0.748551 0.595372 0.768492 0.420060
H14   H     H_    0.727558 0.626347 0.700401 0.110987
O10   O     O_2   0.878607 0.607614 0.814438 -0.608587
C31   C     C_R   0.659350 0.644301 0.265571 0.141465
C32   C     C_R   0.599630 0.730091 0.270305 -0.145455
C33   C     C_R   0.694529 0.800213 0.315177 -0.116985
C34   C     C_R   0.848980 0.785272 0.355650 -0.127490
C35   C     C_R   0.910281 0.700848 0.348950 -0.155150
C36   C     C_R   0.816834 0.631212 0.302357 -0.107251
H15   H     H_    0.480286 0.742479 0.238901 0.138669
H16   H     H_    0.648132 0.866055 0.318893 0.149639
H17   H     H_    0.921769 0.839380 0.391082 0.135658
H18   H     H_    0.030964 0.689667 0.378453 0.133888
H19   H     H_    0.867774 0.567499 0.293138 0.131033
C37   C     C_R   0.268763 0.390741 0.730650 0.196951
C38   C     C_R   0.107329 0.407092 0.709741 -0.070789
C39   C     C_R   0.000668 0.340405 0.667710 -0.113981
C40   C     C_R   0.054000 0.256711 0.647277 -0.127234
C41   C     C_R   0.212895 0.238455 0.672099 -0.135670
C42   C     C_R   0.318723 0.304502 0.715759 -0.058646
H20   H     H_    0.063562 0.469958 0.730013 0.146106
H21   H     H_    0.876177 0.352848 0.652538 0.150792
H22   H     H_    0.971391 0.205268 0.614728 0.140723
H23   H     H_    0.253320 0.172562 0.659463 0.146944
H24   H     H_    0.439337 0.288259 0.739877 0.118065
C43   C     C_2   0.598047 0.664968 0.065026 0.358904
H25   H     H_    0.700376 0.705786 0.095314 0.084082
O11   O     O_2   0.515726 0.692817 0.996105 -0.539580
C44   C     C_2   0.220639 0.432562 0.924217 0.382367
H26   H     H_    0.173866 0.475197 0.974072 0.104189
O12   O     O_2   0.156130 0.358965 0.905745 -0.550871

loop_
_geom_bond_atom_site_label_1
_geom_bond_atom_site_label_2
_ccdc_geom_bond_type
C1    C21   S    
C40   C41   A    
C8    N2    A    
O1    Zn1   S    
C43   H25   S    
C29   H13   S    
C2    O4    A    
C31   C36   A    
C34   C35   A    
C34   H17   S    
C5    C29   S    
C19   C21   A    
C24   C26   A    
C38   H20   S    
C16   H2    S    
C15   C16   D    
C30   H14   S    
C25   H9    S    
C33   H16   S    
C1    O1    A    
C4    H12   S    
C2    O2    A    
C2    C22   S    
C40   H22   S    
C37   C38   A    
C4    C12   A    
C42   H24   S    
N1    Zn2   S    
C18   C20   A    
N2    Zn1   S    
C20   H6    S    
O2    Zn2   S    
C23   C25   A    
C3    H11   S    
C31   C32   A    
C7    C31   S    
C43   O11   D    
C15   H1    S    
C29   O9    D    
C41   C42   A    
C17   C27   A    
C18   C28   A    
C44   H26   S    
C4    C6    A    
C19   H5    S    
C13   O5    A    
C26   H10   S    
O5    Zn1   S    
O3    Zn2   S    
O4    Zn1   S    
C32   C33   A    
C39   H21   S    
O7    Zn2   S    
O8    Zn1   S    
C24   H8    S    
C36   H19   S    
C9    C11   A    
C10   C12   A    
C13   O7    A    
C20   C22   A    
C32   H15   S    
C23   H7    S    
C41   H23   S    
C13   C15   S    
C17   H3    S    
C14   C16   S    
C18   H4    S    
C37   C42   A    
C7    C9    A    
C5    N1    A    
C35   H18   S    
C8    C37   S    
C6    C30   S    
C39   C40   A    
C3    C5    A    
C14   O6    A    
C11   C12   S    
C25   C27   A    
C26   C28   A    
C21   C23   A    
C38   C39   A    
C1    O3    A    
C14   O8    A    
C10   C44   S    
C17   C19   A    
C30   O10   D    
C22   C24   A    
C7    N1    A    
C33   C34   A    
C3    C11   A    
C35   C36   A    
O6    Zn2   S    
C8    C10   A    
C6    N2    A    
C27   C28   S    
C44   O12   D    
C9    C43   S    
