data_mof_unit_30672.cif
_audit_creation_date              2012-12-11T14:51:43-0500
_audit_creation_method            fapswitch 2.2
_symmetry_space_group_name_H-M    P1
_symmetry_Int_Tables_number       1
_space_group_crystal_system       triclinic
_cell_length_a                    6.932571
_cell_length_b                    16.719824
_cell_length_c                    16.93183
_cell_angle_alpha                 101.502074
_cell_angle_beta                  91.892392
_cell_angle_gamma                 89.262957
_cell_volume                      1922.08940895

loop_
_atom_site_label
_atom_site_type_symbol
_atom_type_description
_atom_site_fract_x
_atom_site_fract_y
_atom_site_fract_z
_atom_type_partial_charge
O1    O     O_R   0.506340 0.439070 0.579550 -0.540821
O2    O     O_R   0.170010 0.404890 0.412100 -0.541398
O3    O     O_R   0.005010 0.560930 0.420450 -0.537031
C1    C     C_R   0.338769 0.381368 0.383423 0.691041
O4    O     O_R   0.176280 0.429360 0.578400 -0.539852
O5    O     O_R   0.011320 0.585570 0.587940 -0.539408
C2    C     C_R   0.349571 0.413839 0.605290 0.697978
O6    O     O_R   0.500030 0.414430 0.412060 -0.537960
O7    O     O_3   0.340950 0.551220 0.502940 -0.368275
V1    V     V_3+5 0.064020 0.490500 0.499460 1.398270
O8    O     O_R   0.681910 0.595110 0.587900 -0.541953
C3    C     C_R   0.852376 0.618367 0.616738 0.679853
O9    O     O_R   0.675640 0.570640 0.421600 -0.543674
C4    C     C_R   0.840565 0.586470 0.394847 0.699472
V2    V     V_3+5 0.564670 0.509500 0.500540 1.396374
O10   O     O_3   0.837610 0.448780 0.497060 -0.367489
C5    C     C_R   0.927800 0.855777 0.163014 -0.114906
C6    C     C_R   0.833597 0.638630 0.333035 -0.067841
C7    C     C_R   0.643482 0.693315 0.231778 -0.195215
C8    C     C_R   0.663425 0.640627 0.285874 -0.171266
C9    C     C_R   0.985994 0.690381 0.323970 -0.233046
C10   C     C_R   0.965844 0.744994 0.270255 0.151223
C11   C     C_R   0.793062 0.746927 0.223285 0.111839
C12   C     C_R   0.774481 0.801938 0.169050 -0.114659
C13   C     C_R   0.096427 0.852837 0.211187 -0.148602
C14   C     C_R   0.115557 0.798273 0.263558 -0.198598
H1    H     H_    0.216119 0.893001 0.208083 0.137073
H2    H     H_    0.508567 0.692254 0.197542 0.134883
H3    H     H_    0.248447 0.797857 0.299041 0.120913
H4    H     H_    0.543377 0.601350 0.291126 0.126462
H5    H     H_    0.117449 0.690037 0.360412 0.120649
C15   C     C_3   0.705876 0.776887 0.772104 -0.108340
C16   C     C_3   0.791151 0.775349 0.688393 -0.146387
H6    H     H_    0.715094 0.795819 0.637126 0.102406
H7    H     H_    0.559392 0.799301 0.790500 0.113252
C17   C     C_3   0.868093 0.688504 0.687524 -0.009280
C18   C     C_3   0.782909 0.689214 0.770427 -0.143099
C19   C     C_3   0.974907 0.724467 0.811825 -0.137954
C20   C     C_3   0.060185 0.722923 0.728112 -0.112735
C21   C     C_3   0.983151 0.810593 0.729784 -0.147775
C22   C     C_3   0.897969 0.811308 0.812679 -0.005391
H8    H     H_    0.699877 0.638786 0.786617 0.102670
H9    H     H_    0.050964 0.704025 0.863108 0.112554
H10   H     H_    0.206683 0.700510 0.709736 0.111943
H11   H     H_    0.066181 0.861028 0.713604 0.098547
C23   C     C_3   0.513547 0.244062 0.309360 -0.120382
C24   C     C_3   0.361125 0.178525 0.272872 -0.186577
H12   H     H_    0.343504 0.119133 0.291570 0.107818
H13   H     H_    0.622718 0.239138 0.357655 0.106306
C25   C     C_3   0.410557 0.189284 0.187203 -0.025012
C26   C     C_3   0.557383 0.254394 0.223615 0.262100
C27   C     C_3   0.404718 0.322367 0.227193 -0.210782
C28   C     C_3   0.253030 0.256423 0.191010 -0.142055
C29   C     C_3   0.203561 0.246105 0.277292 -0.097763
C30   C     C_3   0.355534 0.310947 0.312679 -0.055088
H14   H     H_    0.424397 0.381529 0.208275 0.106469
H15   H     H_    0.146446 0.261465 0.141842 0.128736
H16   H     H_    0.057082 0.242362 0.300715 0.134992
C31   C     C_R   0.386724 0.138292 0.833148 -0.066804
C32   C     C_R   0.379812 0.361804 0.666821 -0.070409
C33   C     C_R   0.601052 0.314738 0.764166 -0.200088
C34   C     C_R   0.555413 0.368103 0.712351 -0.161439
C35   C     C_R   0.247957 0.301417 0.676029 -0.244917
C36   C     C_R   0.294043 0.246866 0.727914 0.159598
C37   C     C_R   0.472505 0.253251 0.772081 0.159151
C38   C     C_R   0.518577 0.198695 0.823970 -0.246129
C39   C     C_R   0.211144 0.131995 0.787604 -0.163386
C40   C     C_R   0.165500 0.185376 0.735813 -0.201396
H17   H     H_    0.653366 0.204959 0.858910 0.121917
H18   H     H_    0.106333 0.085959 0.792798 0.124899
H19   H     H_    0.738079 0.321163 0.797463 0.120707
H20   H     H_    0.028477 0.178954 0.702513 0.120261
H21   H     H_    0.660223 0.414131 0.707133 0.126607
H22   H     H_    0.113145 0.295155 0.641106 0.122871
O11   O     O_R   0.266070 0.085680 0.087850 -0.538644
O12   O     O_R   0.590090 0.070660 0.921580 -0.543629
O13   O     O_R   0.754780 0.914400 0.912080 -0.540262
C41   C     C_R   0.416856 0.086242 0.894671 0.683708
O14   O     O_R   0.596110 0.095130 0.087880 -0.530918
O15   O     O_R   0.760850 0.939050 0.079570 -0.531975
C42   C     C_R   0.427343 0.118781 0.116462 0.684038
O16   O     O_R   0.260010 0.061030 0.920360 -0.544980
O17   O     O_3   0.425070 0.948840 0.997010 -0.352740
V3    V     V_3+5 0.702100 0.009490 0.000550 1.438290
O18   O     O_R   0.090200 0.929250 0.078500 -0.532478
C43   C     C_R   0.924509 0.911745 0.103928 0.711124
O19   O     O_R   0.084180 0.904770 0.912200 -0.541031
C44   C     C_R   0.913709 0.881500 0.883388 0.675554
V4    V     V_3+5 0.201420 0.990350 0.999580 1.446043
O20   O     O_3   0.928580 0.051150 0.002990 -0.369837
C45   C     C_1   0.603170 0.799974 0.117249 0.275395
N1    N     N_1   0.466334 0.797938 0.075864 -0.344487
N2    N     N_3   0.750848 0.259181 0.194232 -0.680221
H23   H     H_    0.811377 0.313548 0.226058 0.215751
H24   H     H_    0.736637 0.265092 0.134025 0.216652

loop_
_geom_bond_atom_site_label_1
_geom_bond_atom_site_label_2
_ccdc_geom_bond_type
O19   C44   A    
N2    H23   S    
C6    C9    A    
C4    C6    S    
O2    C1    A    
C7    C8    A    
O15   V3    S    
O12   V3    S    
C8    H4    S    
C28   C29   S    
C9    H5    S    
C23   H13   S    
O16   V4    S    
C32   C35   A    
C36   C40   A    
C17   C18   S    
O12   C41   A    
C31   C38   A    
O5    C3    A    
C19   C20   S    
C38   H17   S    
V2    O10   S    
C16   C17   S    
C32   C34   A    
C18   H8    S    
O15   C43   A    
C31   C39   A    
C23   C24   S    
O8    V2    S    
O17   V3    S    
O13   C44   A    
C23   C30   S    
C11   C12   A    
C34   H21   S    
O1    V2    S    
C3    C17   S    
O7    V1    S    
C27   C30   S    
C1    O6    A    
C33   H19   S    
N2    H24   S    
O9    C4    A    
V3    O20   S    
C31   C41   S    
O4    V1    S    
C25   C26   S    
C24   C25   S    
C21   H11   S    
O17   V4    S    
C25   C28   S    
C39   C40   A    
C16   C21   S    
C15   H7    S    
C19   C22   S    
C45   N1    T    
O4    C2    A    
C28   H15   S    
O11   C42   A    
O13   V3    S    
C13   C14   A    
O18   C43   A    
C23   C26   S    
C5    C43   S    
C40   H20   S    
C7    C11   A    
C18   C19   S    
C41   O16   A    
C24   H12   S    
C15   C22   S    
C16   H6    S    
C15   C18   S    
C7    H2    S    
O3    C4    A    
C26   N2    S    
C24   C29   S    
C21   C22   S    
O6    V2    S    
O9    V2    S    
C1    C30   S    
O2    V1    S    
C12   C45   S    
C2    C32   S    
C20   C21   S    
C27   C28   S    
O14   C42   A    
C29   H16   S    
C22   C44   S    
C29   C30   S    
O18   V4    S    
O1    C2    A    
C17   C20   S    
O5    V1    S    
O8    C3    A    
C20   H10   S    
C35   H22   S    
C13   H1    S    
C39   H18   S    
C5    C13   A    
C15   C16   S    
O19   V4    S    
C5    C12   A    
O7    V2    S    
C26   C27   S    
O3    V1    S    
V1    O10   S    
C36   C37   A    
O14   V3    S    
C6    C8    A    
C33   C34   A    
O11   V4    S    
C35   C36   A    
C33   C37   A    
C19   H9    S    
C14   H3    S    
C37   C38   A    
C10   C14   A    
C10   C11   A    
V4    O20   S    
C9    C10   A    
C27   H14   S    
C25   C42   S    
