data_mof_unit_63253.cif
_audit_creation_date              2012-12-10T21:09:16-0500
_audit_creation_method            fapswitch 2.2
_symmetry_space_group_name_H-M    P1
_symmetry_Int_Tables_number       1
_space_group_crystal_system       triclinic
_cell_length_a                    10.426429
_cell_length_b                    17.461383
_cell_length_c                    16.762263
_cell_angle_alpha                 90.669314
_cell_angle_beta                  102.050111
_cell_angle_gamma                 90.369402
_cell_volume                      2984.16477231

loop_
_atom_site_label
_atom_site_type_symbol
_atom_type_description
_atom_site_fract_x
_atom_site_fract_y
_atom_site_fract_z
_atom_type_partial_charge
C1    C     C_R   0.500736 0.352904 0.499622 0.992117
C2    C     C_R   0.589526 0.544824 0.265598 0.485061
C3    C     C_R   0.579783 0.550212 0.758231 0.405060
C4    C     C_R   0.412097 0.455277 0.240079 0.398680
C5    C     C_R   0.584703 0.549319 0.844212 0.249532
C6    C     C_R   0.408176 0.457308 0.154257 0.244049
C7    C     C_R   0.499207 0.500754 0.875332 -0.067461
C8    C     C_R   0.502415 0.500665 0.124960 -0.068800
C9    C     C_1   0.500695 0.501028 0.963589 0.196874
C10   C     C_1   0.501647 0.500971 0.036798 0.196449
C11   C     C_R   0.256296 0.497875 0.467326 0.861282
C12   C     C_R   0.501123 0.647138 0.500676 0.937837
C13   C     C_R   0.743602 0.497015 0.532463 0.843884
C14   C     C_2   0.114618 0.485885 0.451673 0.242815
C15   C     C_2   0.884255 0.482228 0.546817 0.229827
C16   C     C_2   0.067211 0.431560 0.494384 0.371190
C17   C     C_2   0.927237 0.431966 0.496666 0.341291
C18   C     C_R   0.507857 0.853297 0.571493 0.049074
C19   C     C_R   0.500320 0.146253 0.431803 0.046510
C20   C     C_R   0.480835 0.773894 0.566774 0.417767
C21   C     C_R   0.473464 0.225394 0.429713 0.425802
C22   C     C_R   0.518887 0.730014 0.504587 -0.152170
C23   C     C_R   0.574355 0.885985 0.515131 -0.036750
C24   C     C_R   0.518267 0.270283 0.500555 -0.138873
C25   C     C_R   0.584539 0.764096 0.449209 -0.289427
C26   C     C_R   0.589697 0.237531 0.571756 -0.293227
C27   C     C_R   0.613223 0.841625 0.454508 0.189065
C28   C     C_R   0.617892 0.160230 0.573749 0.192764
C29   C     C_R   0.572906 0.114863 0.504127 -0.038164
C30   C     C_1   0.587775 0.966538 0.513213 0.109350
C31   C     C_1   0.587305 0.034515 0.509689 0.109150
C32   C     C_R   0.415181 0.451018 0.820996 -0.079105
C33   C     C_R   0.594475 0.544654 0.181003 -0.073779
C34   C     C_R   0.419440 0.450358 0.736317 0.477566
H1    H     H_    0.616086 0.730120 0.402461 0.222850
H2    H     H_    0.390626 0.225878 0.313615 0.362998
H3    H     H_    0.301480 0.362276 0.709330 0.355768
H4    H     H_    0.724302 0.624282 0.295969 0.356217
H5    H     H_    0.667027 0.648511 0.757813 0.342384
H6    H     H_    0.304564 0.363655 0.235971 0.352805
H7    H     H_    0.626072 0.272435 0.625709 0.201177
H8    H     H_    0.890842 0.353493 0.412092 0.353016
H9    H     H_    0.096086 0.343941 0.565351 0.349463
H10   H     H_    0.750413 0.604352 0.875583 0.357658
H11   H     H_    0.232787 0.414380 0.120259 0.356913
H12   H     H_    0.922232 0.558106 0.633843 0.357537
H13   H     H_    0.083750 0.570318 0.376450 0.343491
H14   H     H_    0.412362 0.771142 0.666862 0.366721
I1    I     I_    0.442680 0.925869 0.659168 -0.230593
I2    I     I_    0.426848 0.072118 0.329051 -0.230278
I3    I     I_    0.713246 0.888613 0.367952 -0.214902
I4    I     I_    0.726823 0.115088 0.684325 -0.216727
I5    I     I_    0.282006 0.379283 0.868396 -0.199853
I6    I     I_    0.739881 0.608679 0.136109 -0.201122
N1    N     N_R   0.500030 0.500030 0.707240 -0.131345
N2    N     N_R   0.499970 0.499970 0.292760 -0.130221
O1    O     O_R   0.500000 0.389130 0.566570 -0.590877
O2    O     O_3   0.149545 0.377892 0.537847 -0.733113
O3    O     O_3   0.672439 0.593916 0.898925 -0.713376
O4    O     O_3   0.313250 0.418830 0.097978 -0.712647
O5    O     O_3   0.972483 0.522426 0.605814 -0.752557
O6    O     O_3   0.030183 0.532770 0.399576 -0.748151
O7    O     O_3   0.414629 0.737727 0.619344 -0.723086
O8    O     O_3   0.401080 0.260419 0.361558 -0.714929
O9    O     O_3   0.343069 0.401308 0.680773 -0.658985
O10   O     O_3   0.673850 0.588579 0.322970 -0.698314
O11   O     O_3   0.653132 0.601236 0.723816 -0.715068
O12   O     O_R   0.500000 0.610870 0.433430 -0.608645
O13   O     O_3   0.329877 0.408480 0.272699 -0.680353
O14   O     O_R   0.499990 0.389100 0.433480 -0.521159
O15   O     O_R   0.500010 0.610900 0.566520 -0.520447
O16   O     O_R   0.317810 0.500010 0.541690 -0.531663
O17   O     O_R   0.682190 0.499990 0.458310 -0.518228
O18   O     O_R   0.317800 0.499990 0.408610 -0.583307
O19   O     O_R   0.682200 0.500010 0.591390 -0.600641
O20   O     O_3   0.840145 0.384754 0.444261 -0.769651
Zn1   Zn    Zn3+2 0.500010 0.500020 0.588860 1.096201
Zn2   Zn    Zn3+2 0.499990 0.499980 0.411140 1.099794

loop_
_geom_bond_atom_site_label_1
_geom_bond_atom_site_label_2
_ccdc_geom_bond_type
H11   O4    S    
O14   Zn2   S    
H13   O6    S    
C12   O12   A    
C28   C29   A    
C19   C21   A    
C24   C26   A    
C30   C31   T    
N1    Zn1   S    
C11   C14   S    
H10   O3    S    
C14   O6    S    
C12   C22   S    
N2    Zn2   S    
C15   C17   D    
C21   O8    S    
H9    O2    S    
C3    N1    A    
H4    O10   S    
C16   C17   S    
C22   C25   A    
H3    O9    S    
C17   O20   S    
O17   Zn2   S    
C13   O19   A    
C23   C27   A    
C9    C10   T    
C34   N1    A    
C4    N2    A    
C6    O4    S    
H5    O11   S    
C34   O9    S    
C4    O13   S    
C27   I3    S    
O12   Zn2   S    
H6    O13   S    
C5    O3    S    
H12   O5    S    
C18   C23   A    
C23   C30   S    
O1    Zn1   S    
C4    C6    A    
C5    C7    A    
C11   O16   A    
H14   O7    S    
C6    C8    A    
C3    C5    A    
C32   C34   A    
O16   Zn1   S    
C1    O1    A    
C15   O5    S    
C16   O2    S    
O19   Zn1   S    
C25   H1    S    
C2    C33   A    
C12   O15   A    
C20   C22   A    
C13   C15   S    
C14   C16   D    
C19   C29   A    
C32   I5    S    
O15   Zn1   S    
C33   I6    S    
C7    C9    S    
C7    C32   A    
C26   C28   A    
C3    O11   S    
C13   O17   A    
C2    O10   S    
C11   O18   A    
C25   C27   A    
H8    O20   S    
C1    O14   A    
C20   O7    S    
C29   C31   S    
C2    N2    A    
C28   I4    S    
C19   I2    S    
C18   C20   A    
C8    C33   A    
C26   H7    S    
C1    C24   S    
C8    C10   S    
O18   Zn2   S    
C21   C24   A    
H2    O8    S    
C18   I1    S    
