data_mof_unit_53098.cif
_audit_creation_date              2012-12-10T19:05:51-0500
_audit_creation_method            fapswitch 2.2
_symmetry_space_group_name_H-M    P1
_symmetry_Int_Tables_number       1
_space_group_crystal_system       triclinic
_cell_length_a                    19.362146
_cell_length_b                    10.847237
_cell_length_c                    9.56587
_cell_angle_alpha                 90.111478
_cell_angle_beta                  90.38202
_cell_angle_gamma                 89.647589
_cell_volume                      2008.99306633

loop_
_atom_site_label
_atom_site_type_symbol
_atom_type_description
_atom_site_fract_x
_atom_site_fract_y
_atom_site_fract_z
_atom_type_partial_charge
C1    C     C_R   0.500303 0.262775 0.499918 0.815013
C2    C     C_R   0.290894 0.488141 0.496687 -0.226169
C3    C     C_R   0.929164 0.499625 0.508600 0.405065
C4    C     C_R   0.069240 0.493252 0.506079 0.467109
C5    C     C_R   0.816150 0.447116 0.617687 -0.166236
C6    C     C_R   0.744181 0.446271 0.614803 -0.224273
C7    C     C_R   0.708012 0.499707 0.502542 -0.016774
C8    C     C_R   0.744651 0.553959 0.393213 -0.192348
C9    C     C_R   0.816555 0.554613 0.395728 -0.162572
C10   C     C_R   0.853060 0.500922 0.507835 0.058726
C11   C     C_R   0.475095 0.064362 0.613328 0.097914
C12   C     C_R   0.367354 0.495802 0.499149 0.827229
C13   C     C_R   0.497821 0.130145 0.497841 -0.143050
C14   C     C_R   0.514151 0.066484 0.374880 -0.302145
C15   C     C_R   0.512804 0.937425 0.371174 0.442941
C16   C     C_R   0.499017 0.871820 0.495827 -0.195124
C17   C     C_R   0.476526 0.937562 0.612420 0.048114
C18   C     C_3   0.499310 0.930982 0.761020 -0.433998
C19   C     C_3   0.497340 0.070833 0.762903 -0.478392
C20   C     C_R   0.536825 0.586027 0.074275 0.212866
C21   C     C_R   0.458215 0.423021 0.072508 0.028130
C22   C     C_R   0.458545 0.423276 0.924055 -0.116619
C23   C     C_R   0.500898 0.737813 0.499494 0.829126
C24   C     C_R   0.536952 0.585674 0.927102 0.235093
C25   C     C_3   0.613043 0.604103 0.922034 0.220668
C26   C     C_3   0.612936 0.605496 0.080940 -0.556613
C27   C     C_R   0.632350 0.499922 0.500537 0.781688
C28   C     C_R   0.255411 0.446461 0.616274 0.400988
C29   C     C_R   0.183422 0.451163 0.620159 -0.251658
C30   C     C_R   0.145357 0.489131 0.502961 -0.069994
C31   C     C_R   0.180173 0.518205 0.379590 -0.270364
C32   C     C_R   0.252785 0.519083 0.374474 0.411391
Cu1   Cu    Cu3+1 0.500000 0.499980 0.640670 0.956524
Cu2   Cu    Cu3+1 0.500000 0.500020 0.359330 0.975642
H1    H     H_    0.459216 0.887910 0.826251 0.195971
H2    H     H_    0.552211 0.892671 0.773114 0.246945
H3    H     H_    0.456254 0.109201 0.831280 0.183709
H4    H     H_    0.549133 0.113078 0.776834 0.205607
H5    H     H_    0.426328 0.359542 0.866728 0.158438
H6    H     H_    0.640439 0.523509 0.875118 0.092803
H7    H     H_    0.641119 0.525187 0.125815 0.175178
H8    H     H_    0.157519 0.421401 0.714144 0.175054
H9    H     H_    0.626290 0.696278 0.127663 0.233998
H10   H     H_    0.150496 0.537595 0.286122 0.167329
H11   H     H_    0.842744 0.404839 0.705398 0.153751
H12   H     H_    0.716793 0.403377 0.700063 0.135718
H13   H     H_    0.717785 0.597681 0.306951 0.139917
H14   H     H_    0.843423 0.597488 0.309825 0.151699
H15   H     H_    0.530370 0.116531 0.283111 0.168913
N1    N     N_R   0.033084 0.539669 0.395964 -0.243215
N2    N     N_R   0.964488 0.542783 0.397165 -0.246053
N3    N     N_R   0.965249 0.453703 0.619244 -0.245148
N4    N     N_R   0.033975 0.450729 0.618109 -0.243111
N5    N     N_R   0.500440 0.500930 0.147930 -0.210152
N6    N     N_R   0.500440 0.500890 0.852020 -0.220860
O1    O     O_R   0.500000 0.319640 0.618810 -0.596140
O2    O     O_R   0.500010 0.319680 0.381230 -0.587743
O3    O     O_R   0.400140 0.499970 0.618830 -0.551847
O4    O     O_R   0.400150 0.500010 0.381250 -0.536772
O5    O     O_R   0.499990 0.680320 0.618770 -0.566430
O6    O     O_R   0.500000 0.680360 0.381190 -0.540245
O7    O     O_R   0.599850 0.499990 0.618750 -0.586844
O8    O     O_R   0.599860 0.500030 0.381170 -0.582947
O9    O     O_3   0.290387 0.391641 0.726522 -0.608885
C33   C     C_3   0.304173 0.266237 0.693144 0.052355
H16   H     H_    0.360788 0.250452 0.698958 0.156082
H17   H     H_    0.287849 0.237829 0.585337 0.134400
C34   C     C_3   0.269017 0.182860 0.799415 -0.344403
H18   H     H_    0.292123 0.198491 0.904630 0.224202
H19   H     H_    0.213107 0.206217 0.804008 0.229179
C35   C     C_3   0.276938 0.047123 0.759635 -0.928405
H20   H     H_    0.251913 0.029025 0.656867 0.262028
H21   H     H_    0.251715 0.988857 0.839496 0.266537
H22   H     H_    0.332406 0.021224 0.753603 0.261283
O10   O     O_3   0.528606 0.874533 0.249004 -0.603400
C36   C     C_3   0.482652 0.907186 0.138802 0.084232
H23   H     H_    0.495106 0.845674 0.049787 0.175677
H24   H     H_    0.491814 0.002817 0.102145 0.135079
C37   C     C_3   0.406016 0.888485 0.175917 -0.382102
H25   H     H_    0.398805 0.793000 0.214260 0.230635
H26   H     H_    0.390377 0.953294 0.260194 0.219853
C38   C     C_3   0.358940 0.912368 0.050534 -0.955207
H27   H     H_    0.369461 0.004727 0.005915 0.273870
H28   H     H_    0.304163 0.909986 0.083988 0.260449
H29   H     H_    0.366802 0.840315 0.969600 0.253208
C39   C     C_1   0.413616 0.337075 0.141455 0.336041
N7    N     N_1   0.377518 0.267540 0.195768 -0.307366
O11   O     O_3   0.627930 0.720170 0.863607 -0.602388
C40   C     C_3   0.699434 0.729427 0.839190 0.064907
H30   H     H_    0.717991 0.651958 0.772793 0.156300
H31   H     H_    0.728392 0.729366 0.940187 0.144680
C41   C     C_3   0.713339 0.849730 0.761921 -0.338542
H32   H     H_    0.682103 0.852344 0.663954 0.222957
H33   H     H_    0.697621 0.929043 0.828526 0.217608
C42   C     C_3   0.789578 0.861598 0.725136 -0.896660
H34   H     H_    0.821852 0.860396 0.821573 0.256630
H35   H     H_    0.798027 0.950062 0.669799 0.258142
H36   H     H_    0.805767 0.784647 0.655562 0.265090
O12   O     O_3   0.287560 0.531621 0.248339 -0.584755
C43   C     C_3   0.261764 0.628325 0.163378 0.027515
H37   H     H_    0.306614 0.683780 0.131533 0.180677
H38   H     H_    0.225831 0.693160 0.217478 0.126482
C44   C     C_3   0.229178 0.575500 0.030013 -0.318742
H39   H     H_    0.267816 0.516825 0.975411 0.262436
H40   H     H_    0.184333 0.516917 0.056327 0.214146
C45   C     C_3   0.205361 0.678164 0.931656 -0.894335
H41   H     H_    0.167378 0.739213 0.984621 0.254742
H42   H     H_    0.180338 0.637536 0.837791 0.266515
H43   H     H_    0.250162 0.733734 0.897497 0.255836

loop_
_geom_bond_atom_site_label_1
_geom_bond_atom_site_label_2
_ccdc_geom_bond_type
Cu1   N6    S    
C15   O10   S    
Cu1   O3    S    
C29   H8    S    
C42   H34   S    
C36   C37   S    
C2    C12   S    
C42   H36   S    
C7    C8    A    
C24   N6    A    
C11   C19   S    
C45   H42   S    
C28   C29   A    
C19   H4    S    
C1    O1    A    
C36   H24   S    
C25   H6    S    
C30   C31   A    
C4    N4    A    
C14   H15   S    
C16   C17   A    
C45   H41   S    
C15   C16   A    
C7    C27   S    
C2    C32   A    
C18   C19   S    
C41   H32   S    
C19   H3    S    
C34   H18   S    
C12   O4    A    
C20   C24   A    
C8    C9    A    
C33   H17   S    
Cu2   O2    S    
C40   H31   S    
C9    C10   A    
C12   O3    A    
Cu1   O1    S    
C21   C22   A    
C41   H33   S    
C26   H9    S    
Cu1   Cu2   S    
C43   H37   S    
C23   O5    A    
C31   H10   S    
C24   C25   S    
C20   N5    A    
C35   H21   S    
C3    N2    A    
C39   N7    T    
Cu1   O7    S    
N1    N2    A    
C25   C26   S    
C5    H11   S    
C41   C42   S    
C4    N1    A    
C43   C44   S    
O10   C36   S    
C29   C30   A    
C27   O7    A    
C1    O2    A    
C35   H22   S    
O12   C43   S    
C33   C34   S    
C43   H38   S    
C17   C18   S    
C44   H40   S    
C36   H23   S    
C40   C41   S    
C22   N6    A    
C27   O8    A    
C28   O9    S    
Cu2   N5    S    
Cu1   O5    S    
C38   H28   S    
Cu2   O4    S    
C1    C13   S    
N3    N4    A    
C37   H26   S    
C18   H1    S    
C21   C39   S    
C11   C17   A    
C6    H12   S    
C31   C32   A    
C37   C38   S    
C3    N3    A    
C42   H35   S    
C6    C7    A    
C16   C23   S    
C38   H29   S    
C32   O12   S    
C21   N5    A    
O9    C33   S    
C8    H13   S    
C5    C10   A    
C33   H16   S    
C3    C10   S    
C11   C13   A    
C5    C6    A    
C20   C26   S    
C34   C35   S    
C22   H5    S    
Cu2   O8    S    
C44   C45   S    
C25   O11   S    
C37   H25   S    
C23   O6    A    
C35   H20   S    
O11   C40   S    
C9    H14   S    
C34   H19   S    
C38   H27   S    
Cu2   O6    S    
C44   H39   S    
C14   C15   A    
C2    C28   A    
C40   H30   S    
C13   C14   A    
C18   H2    S    
C4    C30   S    
C26   H7    S    
C45   H43   S    
