data_mof_unit_25188.cif
_audit_creation_date              2012-10-26T20:17:35-0400
_audit_creation_method            fapswitch 2.2
_symmetry_space_group_name_H-M    P1
_symmetry_Int_Tables_number       1
_space_group_crystal_system       triclinic
_cell_length_a                    27.770726
_cell_length_b                    8.721756
_cell_length_c                    7.472597
_cell_angle_alpha                 103.23387
_cell_angle_beta                  94.784593
_cell_angle_gamma                 93.270066
_cell_volume                      1750.31305813

loop_
_atom_site_label
_atom_site_type_symbol
_atom_type_description
_atom_site_fract_x
_atom_site_fract_y
_atom_site_fract_z
_atom_type_partial_charge
C1    C     C_R   0.497945 0.200207 0.453732 0.572748
C2    C     C_R   0.867021 0.370493 0.398876 0.012849
C3    C     C_R   0.354620 0.499218 0.505068 -0.036853
C4    C     C_R   0.644912 0.500807 0.495872 -0.030534
C5    C     C_R   0.969085 0.362131 0.406686 0.025983
C6    C     C_R   0.030161 0.631510 0.604531 0.025930
C7    C     C_R   0.978881 0.635626 0.597510 -0.027177
C8    C     C_R   0.020374 0.358033 0.413664 -0.026943
C9    C     C_R   0.948640 0.500991 0.499085 0.025118
C10   C     C_R   0.050608 0.492824 0.511691 0.025417
C11   C     C_R   0.937185 0.231462 0.310031 -0.152390
C12   C     C_R   0.502097 0.799798 0.546254 0.572193
C13   C     C_R   0.062049 0.762150 0.701311 -0.152080
C14   C     C_R   0.887363 0.235985 0.306534 -0.125282
C15   C     C_R   0.111854 0.758055 0.703734 -0.125716
C16   C     C_R   0.407519 0.499766 0.501466 0.546844
C17   C     C_R   0.592315 0.500282 0.498621 0.545459
C18   C     C_R   0.042637 0.222828 0.325632 -0.131925
C19   C     C_R   0.956638 0.770885 0.685479 -0.133683
C20   C     C_2   0.491573 0.032796 0.431103 0.087314
C21   C     C_2   0.508519 0.967201 0.568808 0.086468
C22   C     C_R   0.174011 0.357063 0.427255 0.458452
C23   C     C_R   0.101901 0.489741 0.515607 -0.072262
C24   C     C_R   0.825247 0.638040 0.580632 0.411568
C25   C     C_R   0.182513 0.622030 0.608513 0.371937
C26   C     C_R   0.816662 0.373347 0.398599 0.412419
C27   C     C_R   0.274318 0.500243 0.347732 0.322829
C28   C     C_R   0.722749 0.432493 0.617084 0.329862
C29   C     C_R   0.324607 0.499949 0.344202 -0.122862
C30   C     C_R   0.672240 0.430797 0.617561 -0.128321
C31   C     C_R   0.333643 0.496865 0.669191 -0.159686
C32   C     C_R   0.668144 0.572332 0.372994 -0.157593
C33   C     C_R   0.283549 0.492986 0.671916 -0.107527
C34   C     C_R   0.897343 0.504506 0.494128 -0.073626
C35   C     C_R   0.718308 0.575118 0.372798 -0.120430
C36   C     C_R   0.253746 0.493632 0.511702 0.244806
C37   C     C_R   0.745536 0.503477 0.492312 0.251936
C38   C     C_3   0.110119 0.968895 0.346901 -0.080859
C39   C     C_3   0.889465 0.025198 0.662109 -0.066949
C40   C     C_3   0.751506 0.439731 0.913200 -0.100435
C41   C     C_3   0.241595 0.654540 0.171355 -0.106836
C42   C     C_R   0.123057 0.353308 0.424472 0.025661
C43   C     C_R   0.876208 0.641229 0.584689 0.026568
C44   C     C_R   0.092861 0.217899 0.333889 0.273149
C45   C     C_R   0.906432 0.776246 0.676220 0.271673
C46   C     C_R   0.132193 0.623958 0.610326 0.017417
Cu1   Cu    Cu3+1 0.505380 0.517380 0.684380 1.007625
Cu2   Cu    Cu3+1 0.494620 0.482620 0.315620 1.007672
H1    H     H_    0.355825 0.496522 0.795210 0.140437
H2    H     H_    0.050152 0.871217 0.777052 0.121063
H3    H     H_    0.022374 0.116701 0.247167 0.117918
H4    H     H_    0.976897 0.876854 0.764374 0.118187
H5    H     H_    0.418077 0.381035 0.970835 0.211304
H6    H     H_    0.457181 0.240245 0.941142 0.219308
H7    H     H_    0.582051 0.616800 0.028990 0.213866
H8    H     H_    0.543402 0.759087 0.058363 0.218190
H9    H     H_    0.072090 0.928118 0.358969 0.099201
H10   H     H_    0.129956 0.014715 0.486583 0.144445
H11   H     H_    0.128156 0.864479 0.276955 0.155240
H12   H     H_    0.647618 0.628406 0.279735 0.132708
H13   H     H_    0.869675 0.979308 0.522352 0.144949
H14   H     H_    0.927564 0.065360 0.650224 0.092607
H15   H     H_    0.871544 0.130037 0.731598 0.176844
H16   H     H_    0.715677 0.428531 0.967066 0.116245
H17   H     H_    0.764030 0.566486 0.931030 0.136304
H18   H     H_    0.777945 0.388171 0.997643 0.181815
H19   H     H_    0.277383 0.708417 0.150531 0.123471
H20   H     H_    0.226644 0.728419 0.293082 0.154660
H21   H     H_    0.216286 0.653380 0.048003 0.174885
H22   H     H_    0.429623 0.986604 0.257129 0.223587
H23   H     H_    0.267765 0.488771 0.798475 0.161129
H24   H     H_    0.481032 0.956322 0.151727 0.229784
H25   H     H_    0.570548 0.013382 0.742308 0.226358
H26   H     H_    0.519211 0.043574 0.848172 0.229756
H27   H     H_    0.736139 0.632698 0.279626 0.121407
H28   H     H_    0.654302 0.372130 0.709733 0.135166
H29   H     H_    0.339950 0.501241 0.215872 0.132208
H30   H     H_    0.864742 0.132090 0.231308 0.184381
H31   H     H_    0.134459 0.862028 0.778845 0.185789
H32   H     H_    0.949092 0.122118 0.235049 0.119782
N1    N     N_R   0.202231 0.490529 0.516557 -0.391281
N2    N     N_R   0.797019 0.505328 0.489403 -0.392689
N3    N     N_2   0.486510 0.456430 0.038510 -0.016201
N4    N     N_2   0.513490 0.543570 0.961490 -0.015071
N5    N     N_3   0.451420 0.353004 0.922299 -0.440738
N6    N     N_3   0.548798 0.646185 0.077498 -0.443487
N7    N     N_3   0.463614 0.941566 0.266098 -0.611460
N8    N     N_3   0.536548 0.058408 0.733657 -0.610831
O1    O     O_R   0.503500 0.286120 0.619780 -0.447989
O2    O     O_2   0.803819 0.765187 0.668233 -0.433414
O3    O     O_2   0.787419 0.245036 0.308966 -0.478791
O4    O     O_2   0.211613 0.751425 0.695810 -0.516462
O5    O     O_3   0.111923 0.082741 0.239953 -0.525759
O6    O     O_3   0.887386 0.911696 0.769442 -0.526084
O7    O     O_3   0.749959 0.355390 0.727604 -0.533254
O8    O     O_3   0.244957 0.497745 0.188313 -0.553852
O9    O     O_R   0.496500 0.713880 0.380220 -0.448195
O10   O     O_R   0.494410 0.256780 0.308360 -0.531481
O11   O     O_R   0.505590 0.743220 0.691640 -0.531799
O12   O     O_R   0.434810 0.514700 0.655690 -0.483097
O13   O     O_R   0.565190 0.485300 0.344310 -0.479573
O14   O     O_R   0.425720 0.485350 0.344280 -0.521063
O15   O     O_R   0.574280 0.514650 0.655720 -0.519174
O16   O     O_2   0.195460 0.229172 0.341744 -0.411173

loop_
_geom_bond_atom_site_label_1
_geom_bond_atom_site_label_2
_ccdc_geom_bond_type
C27   C29   A    
C22   O16   S    
C41   H19   S    
Cu2   O9    S    
C35   H27   S    
C23   C42   A    
C28   O7    S    
C35   C37   A    
N4    N6    S    
C5    C11   A    
C11   C14   A    
C41   O8    S    
H22   N7    S    
C20   N7    S    
C33   C36   A    
Cu1   O11   S    
C3    C29   A    
C17   O13   A    
C12   O11   A    
C24   N2    A    
C44   O5    S    
C38   H10   S    
C19   H4    S    
C15   H31   S    
N3    N4    D    
C1    C20   S    
C31   C33   A    
C2    C34   A    
C21   N8    S    
C26   N2    A    
C23   C46   A    
C40   H18   S    
C25   N1    A    
Cu1   O1    S    
C27   O8    S    
C42   C44   A    
C31   H1    S    
C45   O6    S    
C18   H3    S    
C41   H20   S    
C39   H13   S    
Cu1   O15   S    
C32   C35   A    
C16   O12   A    
C26   O3    S    
C12   C21   S    
C8    C18   A    
Cu1   O12   S    
C13   H2    S    
C22   N1    A    
H25   N8    S    
C5    C9    A    
C18   C44   A    
C5    C8    A    
C38   H9    S    
C30   H28   S    
H8    N6    S    
Cu1   Cu2   S    
C36   N1    S    
Cu2   O14   S    
C2    C26   A    
Cu1   N4    S    
C3    C31   A    
C43   C45   A    
C12   O9    A    
C4    C32   A    
C4    C17   S    
C16   O14   A    
N3    N5    S    
C39   O6    S    
C7    C19   A    
C40   H17   S    
C13   C15   A    
C9    C34   A    
C10   C23   A    
C37   N2    S    
C32   H12   S    
C40   O7    S    
H24   N7    S    
Cu2   O10   S    
C41   H21   S    
C7    C9    A    
C39   H14   S    
C25   O4    S    
C1    O1    A    
C34   C43   A    
C24   O2    S    
C1    O10   A    
C6    C10   A    
H6    N5    S    
C19   C45   A    
C6    C7    A    
C27   C36   A    
C39   H15   S    
C40   H16   S    
Cu2   N3    S    
H7    N6    S    
C28   C30   A    
C17   O15   A    
C6    C13   A    
C22   C42   A    
C28   C37   A    
Cu2   O13   S    
C38   O5    S    
C14   H30   S    
C2    C14   A    
C11   H32   S    
C33   H23   S    
C38   H11   S    
C29   H29   S    
C20   C21   D    
C8    C10   A    
C24   C43   A    
H5    N5    S    
C15   C46   A    
H26   N8    S    
C25   C46   A    
C4    C30   A    
C3    C16   S    
