data_mof_unit_59841.cif
_audit_creation_date              2012-12-10T17:18:58-0500
_audit_creation_method            fapswitch 2.2
_symmetry_space_group_name_H-M    P1
_symmetry_Int_Tables_number       1
_space_group_crystal_system       triclinic
_cell_length_a                    10.260537
_cell_length_b                    10.675487
_cell_length_c                    13.379819
_cell_angle_alpha                 92.177685
_cell_angle_beta                  99.003218
_cell_angle_gamma                 95.92618
_cell_volume                      1437.59315999

loop_
_atom_site_label
_atom_site_type_symbol
_atom_type_description
_atom_site_fract_x
_atom_site_fract_y
_atom_site_fract_z
_atom_type_partial_charge
C1    C     C_R   0.054818 0.733815 0.496792 0.906956
C2    C     C_R   0.947985 0.266772 0.509952 0.905573
C3    C     C_R   0.494165 0.631384 0.107096 -0.232557
C4    C     C_R   0.547850 0.468356 0.870061 -0.236232
C5    C     C_R   0.366127 0.663007 0.081297 -0.210526
C6    C     C_R   0.674878 0.434380 0.896512 -0.199887
C7    C     C_2   0.092447 0.869452 0.507634 0.021373
C8    C     C_2   0.922973 0.133808 0.529121 0.022194
C9    C     C_2   0.019937 0.937432 0.559993 -0.159805
C10   C     C_2   0.030000 0.073264 0.558434 -0.163159
C11   C     C_2   0.430040 0.512591 0.506510 -0.040613
C12   C     C_2   0.570187 0.484308 0.496692 -0.040259
C13   C     C_R   0.092945 0.516486 0.686970 0.869060
C14   C     C_R   0.907574 0.485648 0.312744 0.884083
C15   C     C_R   0.145101 0.541331 0.795891 -0.175661
C16   C     C_R   0.860338 0.477181 0.202070 -0.173792
C17   C     C_R   0.155987 0.649370 0.962268 0.169539
C18   C     C_R   0.866343 0.406718 0.026488 0.167400
C19   C     C_R   0.086404 0.614525 0.863412 -0.022464
C20   C     C_R   0.928689 0.425260 0.129125 -0.018045
C21   C     C_R   0.267785 0.500262 0.828692 -0.275691
C22   C     C_R   0.737525 0.519358 0.170749 -0.283687
C23   C     C_R   0.346344 0.547472 0.919261 0.054721
C24   C     C_R   0.677744 0.511634 0.069567 0.051687
C25   C     C_R   0.288747 0.620041 0.988297 0.136261
C26   C     C_R   0.740493 0.450799 0.996972 0.131733
C27   C     C_R   0.480674 0.522064 0.942727 0.089388
C28   C     C_R   0.551474 0.555078 0.040925 0.092966
H1    H     H_    0.329360 0.722127 0.135636 0.162229
H2    H     H_    0.719338 0.392985 0.836873 0.167580
H3    H     H_    0.685756 0.553588 0.228273 0.177552
H4    H     H_    0.302029 0.432157 0.780158 0.167740
H5    H     H_    0.547688 0.672737 0.178480 0.147084
H6    H     H_    0.506300 0.454693 0.790732 0.148935
H7    H     H_    0.129646 0.122934 0.570376 0.170823
H8    H     H_    0.940453 0.892065 0.595394 0.163747
H9    H     H_    0.583597 0.401626 0.451575 0.140547
H10   H     H_    0.416726 0.593001 0.554218 0.144025
N1    N     N_2   0.322180 0.446120 0.460900 -0.048720
N2    N     N_2   0.677820 0.553880 0.539100 -0.048980
O1    O     O_R   0.935190 0.693030 0.507870 -0.623136
O2    O     O_R   0.064810 0.306970 0.492130 -0.625158
O3    O     O_R   0.142080 0.658430 0.482770 -0.603155
O4    O     O_R   0.857920 0.341570 0.517230 -0.604250
O5    O     O_R   0.969700 0.527180 0.651960 -0.597641
O6    O     O_R   0.030300 0.472820 0.348040 -0.591405
O7    O     O_R   0.176600 0.492580 0.626860 -0.609823
O8    O     O_R   0.823400 0.507420 0.373140 -0.606988
Zn1   Zn    Zn3+2 0.861850 0.523100 0.516760 0.942971
Zn2   Zn    Zn3+2 0.138150 0.476900 0.483240 0.943922
C29   C     C_1   0.061167 0.390017 0.158384 0.202251
N3    N     N_1   0.167503 0.362194 0.180284 -0.221911
C30   C     C_1   0.956232 0.654170 0.832690 0.192726
N4    N     N_1   0.851939 0.686311 0.810038 -0.227323
C31   C     C_3   0.091491 0.719493 0.039172 -0.918204
H11   H     H_    0.984828 0.727988 0.014115 0.254816
H12   H     H_    0.097518 0.668440 0.110220 0.242798
H13   H     H_    0.143376 0.816286 0.055759 0.237247
C32   C     C_3   0.928733 0.334007 0.949689 -0.917952
H14   H     H_    0.026701 0.304220 0.980156 0.253241
H15   H     H_    0.862109 0.247110 0.921363 0.237991
H16   H     H_    0.943167 0.392117 0.884790 0.242516
C33   C     C_3   0.782836 0.068280 0.512467 -0.920090
H17   H     H_    0.709201 0.133762 0.485453 0.244309
H18   H     H_    0.772732 0.989147 0.454456 0.253161
H19   H     H_    0.758971 0.031039 0.584629 0.245162
C34   C     C_3   0.204524 0.928911 0.458002 -0.921747
H20   H     H_    0.248674 0.857099 0.415686 0.248396
H21   H     H_    0.167040 0.997882 0.403475 0.251966
H22   H     H_    0.283869 0.977903 0.516639 0.243140
C35   C     C_3   0.666785 0.671064 0.593841 -0.622120
H23   H     H_    0.767106 0.719582 0.621408 0.240788
H24   H     H_    0.612333 0.735076 0.543067 0.180980
H25   H     H_    0.617285 0.652423 0.660804 0.192847
C36   C     C_3   0.331819 0.331507 0.402213 -0.618919
H26   H     H_    0.230774 0.287445 0.369978 0.244842
H27   H     H_    0.386159 0.352787 0.338166 0.194725
H28   H     H_    0.380973 0.262746 0.451409 0.175910

loop_
_geom_bond_atom_site_label_1
_geom_bond_atom_site_label_2
_ccdc_geom_bond_type
O4    Zn1   S    
C31   H11   S    
C33   H18   S    
N2    C35   S    
C18   C26   A    
C14   O6    A    
C30   N4    T    
C15   C19   A    
C3    C28   A    
C24   C26   A    
C20   C29   S    
C3    H5    S    
N2    Zn1   S    
C12   H9    S    
C1    O3    A    
C2    O4    A    
C9    H8    S    
C10   H7    S    
C14   C16   S    
N1    C36   S    
C9    C10   S    
C17   C31   S    
C19   C30   S    
C33   H19   S    
C32   H14   S    
O1    Zn1   S    
O7    Zn2   S    
C5    H1    S    
C21   C23   A    
C21   H4    S    
C4    H6    S    
C32   H15   S    
C22   H3    S    
C29   N3    T    
C4    C6    A    
C35   H24   S    
C14   O8    A    
C34   H20   S    
C34   H21   S    
C12   N2    D    
C11   H10   S    
C36   H26   S    
O5    Zn1   S    
C16   C20   A    
C11   N1    D    
C36   H27   S    
O2    Zn2   S    
C5    C25   A    
C1    O1    A    
O8    Zn1   S    
C6    H2    S    
C23   C27   A    
C13   C15   S    
C22   C24   A    
C4    C27   A    
C13   O7    A    
C7    C9    D    
C32   H16   S    
C16   C22   A    
C1    C7    S    
C2    C8    S    
C24   C28   A    
C3    C5    A    
C35   H25   S    
C11   C12   S    
O3    Zn2   S    
O6    Zn2   S    
C34   H22   S    
C17   C25   A    
C31   H12   S    
C35   H23   S    
C13   O5    A    
C6    C26   A    
C2    O2    A    
C17   C19   A    
C18   C20   A    
C23   C25   A    
C36   H28   S    
C8    C33   S    
C7    C34   S    
C33   H17   S    
C18   C32   S    
C15   C21   A    
N1    Zn2   S    
C8    C10   D    
C31   H13   S    
C27   C28   A    
