data_mof_unit_15870.cif
_audit_creation_date              2013-03-05T15:49:18-0500
_audit_creation_method            fapswitch 2.2
_symmetry_space_group_name_H-M    P1
_symmetry_Int_Tables_number       1
_space_group_crystal_system       triclinic
_cell_length_a                    10.668289
_cell_length_b                    11.927875
_cell_length_c                    12.982106
_cell_angle_alpha                 92.887046
_cell_angle_beta                  90.11277
_cell_angle_gamma                 86.897535
_cell_volume                      1647.45785518

loop_
_atom_site_label
_atom_site_type_symbol
_atom_site_description
_atom_site_fract_x
_atom_site_fract_y
_atom_site_fract_z
_atom_type_partial_charge
O1    O     O_R   0.506170 0.421690 0.658830 -0.617549
O2    O     O_R   0.491330 0.609320 0.646410 -0.617667
C1    C     C_R   0.498422 0.521806 0.700555 0.898849
O3    O     O_R   0.690660 0.406170 0.506210 -0.613305
O4    O     O_R   0.675810 0.593790 0.493790 -0.627621
C2    C     C_R   0.740072 0.499329 0.490268 0.907121
Zn1   Zn    Zn3+2 0.509910 0.374720 0.508290 0.935540
Zn2   Zn    Zn3+2 0.490090 0.625280 0.491710 0.934997
O5    O     O_R   0.508670 0.390680 0.353590 -0.627434
O6    O     O_R   0.493830 0.578310 0.341170 -0.615087
O7    O     O_R   0.324190 0.406210 0.506210 -0.632781
O8    O     O_R   0.309340 0.593830 0.493790 -0.619120
C3    C     C_R   0.491168 0.478167 0.299675 0.903215
C4    C     C_R   0.260267 0.500610 0.513137 0.887854
H1    H     H_    0.870493 0.678132 0.521613 0.172818
C5    C     C_R   0.905255 0.293981 0.427282 0.214588
C6    C     C_R   0.962806 0.191986 0.456514 -0.214645
H2    H     H_    0.927311 0.112932 0.427541 0.153123
C7    C     C_R   0.065753 0.191926 0.522793 -0.003455
C8    C     C_R   0.120789 0.292934 0.549205 -0.188030
H3    H     H_    0.202162 0.290673 0.598960 0.188268
C9    C     C_R   0.066729 0.396113 0.516666 0.005387
C10   C     C_R   0.947540 0.397019 0.472151 0.081501
C11   C     C_R   0.874182 0.499420 0.482039 -0.170241
C12   C     C_R   0.927701 0.600326 0.512100 -0.218364
C13   C     C_R   0.053532 0.602133 0.534785 0.162972
C14   C     C_R   0.125954 0.499454 0.528735 -0.136230
C15   C     C_R   0.470439 0.465917 0.188527 -0.108959
C16   C     C_R   0.495704 0.534723 0.812267 -0.141301
C17   C     C_R   0.534391 0.641704 0.972077 0.000295
C18   C     C_R   0.546143 0.629724 0.864337 0.122313
C19   C     C_R   0.449270 0.446875 0.867776 -0.097142
C20   C     C_R   0.459780 0.451260 0.974282 0.026881
C21   C     C_R   0.485664 0.553692 0.026188 0.037574
C22   C     C_R   0.462091 0.564241 0.131714 0.104400
C23   C     C_R   0.458081 0.359565 0.136555 0.151519
C24   C     C_R   0.443913 0.355368 0.030157 -0.179314
H4    H     H_    0.428403 0.275169 0.990604 0.158654
N1    N     N_R   0.523130 0.207800 0.519340 -0.111595
N2    N     N_R   0.476870 0.792180 0.480660 -0.116522
C25   C     C_R   0.378071 0.953996 0.404100 0.117170
C26   C     C_R   0.389675 0.837447 0.416150 -0.000587
C27   C     C_R   0.554167 0.858120 0.537428 -0.071496
C28   C     C_R   0.544478 0.975564 0.531416 0.051872
C29   C     C_R   0.455061 0.024708 0.464436 0.080760
C30   C     C_R   0.446201 0.143051 0.460763 -0.058305
C31   C     C_R   0.610277 0.161054 0.583150 0.039065
C32   C     C_R   0.622413 0.044472 0.590618 -0.310124
H5    H     H_    0.378027 0.184644 0.412119 0.146483
H6    H     H_    0.670649 0.214539 0.628273 0.141480
H7    H     H_    0.692078 0.008559 0.642044 0.148306
H8    H     H_    0.329337 0.782022 0.373495 0.135948
H9    H     H_    0.622833 0.818892 0.587622 0.132980
C33   C     C_3   0.613502 0.716019 0.805579 -0.855270
H10   H     H_    0.670477 0.771775 0.855237 0.233499
H11   H     H_    0.680587 0.672977 0.749300 0.234371
H12   H     H_    0.543814 0.770473 0.765080 0.254115
C34   C     C_1   0.384628 0.354556 0.817278 0.193345
N3    N     N_1   0.333350 0.280917 0.777739 -0.215214
C35   C     C_3   0.286831 0.999325 0.325628 -0.956281
H13   H     H_    0.234984 0.931267 0.286073 0.245861
H14   H     H_    0.217014 0.060220 0.363144 0.252090
H15   H     H_    0.338692 0.041794 0.266139 0.250643
C36   C     C_3   0.810387 0.288932 0.341037 -0.851899
H16   H     H_    0.852730 0.240414 0.273344 0.225216
H17   H     H_    0.726824 0.245633 0.365799 0.259022
H18   H     H_    0.781201 0.373580 0.315000 0.225487
C37   C     C_1   0.117796 0.088013 0.560856 0.153758
N4    N     N_1   0.159550 0.004619 0.591655 -0.203888
C38   C     C_3   0.104588 0.713002 0.571759 -0.814759
H19   H     H_    0.175718 0.700068 0.633242 0.243908
H20   H     H_    0.146295 0.754197 0.506180 0.253503
H21   H     H_    0.029277 0.771452 0.605640 0.222561
C39   C     C_3   0.397845 0.672995 0.175589 -0.837808
H22   H     H_    0.353092 0.722582 0.113897 0.228367
H23   H     H_    0.320161 0.654257 0.227777 0.231323
H24   H     H_    0.466122 0.725757 0.217092 0.264075
C40   C     C_3   0.451024 0.251057 0.190834 -0.867086
H25   H     H_    0.432870 0.178846 0.136456 0.226263
H26   H     H_    0.541270 0.230076 0.229889 0.256833
H27   H     H_    0.372477 0.258997 0.247028 0.242404
C41   C     C_1   0.584252 0.738332 0.027607 0.175383
N5    N     N_1   0.624209 0.815341 0.071622 -0.214880

loop_
_geom_bond_atom_site_label_1
_geom_bond_atom_site_label_2
_geom_bond_distance
_ccdc_geom_bond_type
C22   C39   1.519148 S    
C25   C26   1.405557 A    
C7    C8    1.395719 A    
C19   C34   1.457949 S    
C29   C30   1.412834 A    
Zn1   O7    1.996917 S    
C30   H5    1.079164 S    
C13   C14   1.411104 A    
C39   H23   1.110550 S    
C35   H15   1.109306 S    
C23   C24   1.387903 A    
C16   C19   1.412911 A    
C17   C18   1.403953 A    
O7    C4    1.283713 A    
C40   H26   1.109687 S    
H1    C12   1.084647 S    
C35   H14   1.107610 S    
C21   C22   1.391537 A    
C1    C16   1.450861 S    
O5    C3    1.290621 A    
C27   H9    1.082549 S    
C32   H7    1.083495 S    
C15   C22   1.415266 A    
C37   N4    1.157223 T    
C39   H24   1.109438 S    
C10   C11   1.414911 A    
C3    C15   1.460582 S    
C38   H19   1.110882 S    
C4    C14   1.448417 S    
N2    C26   1.358799 A    
O3    Zn1   1.984766 S    
C6    H2    1.084606 S    
C31   H6    1.081803 S    
N2    C27   1.360582 A    
C33   H11   1.110891 S    
C39   H22   1.111236 S    
C17   C21   1.414420 A    
C36   H18   1.109308 S    
C11   C12   1.397542 A    
O3    C2    1.281579 A    
C40   H25   1.110855 S    
C5    C6    1.402062 A    
C12   C13   1.374832 A    
C20   C24   1.402884 A    
C35   H13   1.110911 S    
O1    C1    1.284773 A    
C36   H17   1.110184 S    
C17   C41   1.453342 S    
C27   C28   1.405157 A    
C24   H4    1.083272 S    
C31   C32   1.397822 A    
Zn2   O8    1.984764 S    
C2    C11   1.434981 S    
C38   H21   1.111264 S    
C20   C21   1.405700 A    
C7    C37   1.440414 S    
N1    C30   1.362091 A    
O8    C4    1.290423 A    
C5    C10   1.428335 A    
C9    C14   1.416908 A    
C13   C38   1.512911 S    
C28   C29   1.413241 A    
N1    C31   1.359738 A    
Zn1   O5    2.026806 S    
C33   H10   1.107419 S    
Zn1   N1    2.000711 S    
O1    Zn1   2.005607 S    
O2    Zn2   2.026807 S    
C25   C35   1.507391 S    
C8    C9    1.414311 A    
O6    C3    1.287090 A    
O4    Zn2   1.996916 S    
Zn2   N2    2.000475 S    
C36   H16   1.110534 S    
O2    C1    1.286311 A    
C34   N3    1.157475 T    
C16   C18   1.420547 A    
C23   C40   1.509960 S    
C19   C20   1.385574 A    
C40   H27   1.109147 S    
O4    C2    1.285657 A    
C6    C7    1.393855 A    
C18   C33   1.522843 S    
C8    H3    1.081007 S    
C15   C23   1.418934 A    
Zn2   O6    2.005607 S    
C41   N5    1.157806 T    
C25   C29   1.416139 A    
C9    C10   1.395413 A    
C38   H20   1.109748 S    
C5    C36   1.508938 S    
C28   C32   1.401915 A    
C26   H8    1.079735 S    
C33   H12   1.109778 S    
