data_mof_unit_67994.cif
_audit_creation_date              2012-12-11T14:13:12-0500
_audit_creation_method            fapswitch 2.2
_symmetry_space_group_name_H-M    P1
_symmetry_Int_Tables_number       1
_space_group_crystal_system       triclinic
_cell_length_a                    11.853247
_cell_length_b                    18.580958
_cell_length_c                    10.201045
_cell_angle_alpha                 89.962413
_cell_angle_beta                  110.777465
_cell_angle_gamma                 90.09491
_cell_volume                      2100.60783953

loop_
_atom_site_label
_atom_site_type_symbol
_atom_type_description
_atom_site_fract_x
_atom_site_fract_y
_atom_site_fract_z
_atom_type_partial_charge
C1    C     C_R   0.127667 0.638561 0.157912 0.527063
C2    C     C_R   0.919012 0.355940 0.856693 0.515823
C3    C     C_R   0.923109 0.146093 0.857403 0.509972
C4    C     C_R   0.118129 0.862475 0.153982 0.530461
C5    C     C_R   0.397055 0.459241 0.489487 -0.106404
C6    C     C_R   0.602064 0.542851 0.512069 -0.124734
C7    C     C_R   0.605616 0.959221 0.496726 -0.098586
C8    C     C_R   0.407677 0.032445 0.527849 -0.096136
C9    C     C_2   0.392833 0.934611 0.968944 0.302071
C10   C     C_2   0.633348 0.061817 0.988846 0.308233
C11   C     C_2   0.631924 0.438208 0.989016 0.323747
C12   C     C_2   0.391976 0.566456 0.964147 0.250565
C13   C     C_2   0.498411 0.958241 0.965796 -0.166035
C14   C     C_2   0.526633 0.034971 0.981897 -0.117677
C15   C     C_2   0.525949 0.465212 0.984344 -0.086485
C16   C     C_2   0.495022 0.541704 0.956050 -0.122041
C17   C     C_2   0.081810 0.938767 0.134184 -0.091287
C18   C     C_2   0.984294 0.077878 0.875579 -0.085505
C19   C     C_2   0.953128 0.431428 0.871931 -0.078744
C20   C     C_2   0.099469 0.561835 0.145245 -0.060747
C21   C     C_2   0.068580 0.973646 0.013090 0.276354
C22   C     C_2   0.051962 0.052116 0.001122 0.280618
C23   C     C_2   0.032041 0.458005 0.990887 0.270653
C24   C     C_2   0.019131 0.534213 0.027490 0.275930
C25   C     C_R   0.468639 0.647103 0.441904 0.603755
C26   C     C_R   0.532708 0.354506 0.561500 0.593048
C27   C     C_R   0.532129 0.144893 0.563637 0.603806
C28   C     C_R   0.471490 0.852285 0.442169 0.597006
C29   C     C_R   0.373902 0.643440 0.969826 0.608026
C30   C     C_R   0.647751 0.360566 0.988660 0.576586
C31   C     C_R   0.648320 0.139574 0.987700 0.593522
C32   C     C_R   0.372307 0.857814 0.974202 0.611696
C33   C     C_R   0.503475 0.426187 0.489752 0.059927
C34   C     C_R   0.496233 0.576597 0.515686 0.045356
C35   C     C_R   0.510897 0.921215 0.519089 0.066409
C36   C     C_R   0.500420 0.071712 0.499296 0.049291
C37   C     C_R   0.290234 0.418276 0.460260 0.046327
C38   C     C_R   0.709590 0.582025 0.527358 0.022038
C39   C     C_R   0.707875 0.922895 0.487496 0.034161
C40   C     C_R   0.298741 0.064100 0.531317 0.026902
C41   C     C_R   0.204445 0.440764 0.515840 0.234295
C42   C     C_R   0.776957 0.561425 0.444587 0.277986
C43   C     C_R   0.766342 0.951971 0.401817 0.222394
C44   C     C_R   0.233523 0.028359 0.603381 0.235515
C45   C     C_R   0.203384 0.512737 0.555372 0.229284
C46   C     C_R   0.753140 0.495165 0.375572 0.227503
C47   C     C_R   0.745026 0.023587 0.358146 0.232554
C48   C     C_R   0.258747 0.956719 0.642358 0.251604
C49   C     C_R   0.299338 0.559215 0.560920 0.019994
C50   C     C_R   0.672039 0.446825 0.401915 0.032770
C51   C     C_R   0.655712 0.063664 0.386980 0.030312
C52   C     C_R   0.358728 0.922681 0.628418 0.007923
C53   C     C_R   0.398408 0.533046 0.524486 -0.130600
C54   C     C_R   0.595812 0.469975 0.473241 -0.126004
C55   C     C_R   0.589054 0.032882 0.463746 -0.133180
C56   C     C_R   0.426965 0.958709 0.560530 -0.124279
Cr1   Cr    Cr6+3 0.187610 0.750000 0.979860 1.063936
Cr2   Cr    Cr6+3 0.812390 0.250000 0.020140 1.099420
Cr3   Cr    Cr6+3 0.245810 0.750000 0.341640 1.085950
Cr4   Cr    Cr6+3 0.754190 0.250000 0.658360 1.085650
Cr5   Cr    Cr6+3 0.485760 0.750000 0.219910 0.975601
Cr6   Cr    Cr6+3 0.514240 0.250000 0.780090 0.961724
H1    H     H_    0.456538 0.071541 0.986113 0.170681
H2    H     H_    0.564110 0.920500 0.955041 0.156234
H3    H     H_    0.557986 0.578809 0.935873 0.145979
H4    H     H_    0.458523 0.429017 0.997085 0.166948
H5    H     H_    0.964092 0.046008 0.781579 0.110209
H6    H     H_    0.075224 0.968337 0.223034 0.096588
H7    H     H_    0.156296 0.526939 0.227250 0.068717
H8    H     H_    0.899632 0.467155 0.789815 0.074758
O1    O     O_R   0.267710 0.668200 0.902110 -0.491792
O2    O     O_R   0.732290 0.331800 0.097890 -0.466209
O3    O     O_R   0.732290 0.168200 0.097890 -0.449645
O4    O     O_R   0.267710 0.831800 0.902110 -0.407087
O5    O     O_R   0.099480 0.674460 0.038850 -0.471800
O6    O     O_R   0.900520 0.325540 0.961150 -0.474028
O7    O     O_R   0.900520 0.174460 0.961150 -0.466857
O8    O     O_R   0.099480 0.825540 0.038850 -0.484419
O9    O     O_R   0.116720 0.669210 0.267660 -0.484301
O10   O     O_R   0.883280 0.330790 0.732340 -0.520617
O11   O     O_R   0.883280 0.169210 0.732340 -0.524154
O12   O     O_R   0.116720 0.830790 0.267660 -0.527143
O13   O     O_R   0.366710 0.675440 0.427590 -0.482000
O14   O     O_R   0.633290 0.324560 0.572410 -0.469543
O15   O     O_R   0.633290 0.175440 0.572410 -0.471994
O16   O     O_R   0.366710 0.824560 0.427590 -0.491512
O17   O     O_R   0.534870 0.669390 0.371760 -0.535295
O18   O     O_R   0.465130 0.330610 0.628240 -0.541934
O19   O     O_R   0.465130 0.169390 0.628240 -0.523060
O20   O     O_R   0.534870 0.830610 0.371760 -0.524659
O21   O     O_R   0.453080 0.674480 0.075160 -0.543545
O22   O     O_R   0.546920 0.325520 0.924840 -0.561262
O23   O     O_R   0.546920 0.174480 0.924840 -0.556865
O24   O     O_R   0.453080 0.825520 0.075160 -0.567813
O25   O     O_3   0.306390 0.750000 0.180470 -0.331104
O26   O     O_3   0.693610 0.250000 0.819530 -0.345355
O27   O     O_3   0.118848 0.393368 0.528621 -0.573012
C57   C     C_3   0.175915 0.341215 0.631876 -0.083370
H9    H     H_    0.246893 0.364816 0.725572 0.077227
H10   H     H_    0.215886 0.297768 0.587761 0.187531
H11   H     H_    0.106886 0.316143 0.667680 0.145914
O28   O     O_3   0.862188 0.606733 0.424519 -0.477091
C58   C     C_3   0.802382 0.659282 0.324023 -0.038236
H12   H     H_    0.870772 0.689734 0.295257 0.147699
H13   H     H_    0.754303 0.698342 0.367656 0.179872
H14   H     H_    0.737962 0.634847 0.226369 0.096686
O29   O     O_3   0.844963 0.910941 0.360322 -0.582650
C59   C     C_3   0.779352 0.874399 0.235565 -0.068965
H15   H     H_    0.706036 0.840594 0.247515 0.143300
H16   H     H_    0.841799 0.838073 0.208141 0.136312
H17   H     H_    0.742257 0.912900 0.148041 0.185052
O30   O     O_3   0.141221 0.061968 0.632513 -0.560101
C60   C     C_3   0.192010 0.111074 0.743637 -0.078334
H18   H     H_    0.122258 0.151250 0.740721 0.138376
H19   H     H_    0.270280 0.142088 0.736843 0.119341
H20   H     H_    0.220055 0.082266 0.845107 0.180689
O31   O     O_3   0.101798 0.541075 0.573229 -0.501822
C61   C     C_3   0.088441 0.513632 0.694874 -0.042847
H21   H     H_    0.043549 0.555015 0.737406 0.213627
H22   H     H_    0.175546 0.500316 0.778143 0.139904
H23   H     H_    0.029305 0.465702 0.666832 0.141834
O32   O     O_3   0.785821 0.484608 0.259693 -0.572956
C62   C     C_3   0.903728 0.457856 0.301034 -0.001187
H24   H     H_    0.919069 0.414325 0.379617 0.216717
H25   H     H_    0.969378 0.502310 0.338517 0.193257
H26   H     H_    0.917533 0.434281 0.208072 0.188799
O33   O     O_3   0.800433 0.051688 0.271206 -0.524828
C63   C     C_3   0.918911 0.072351 0.351671 0.027767
H27   H     H_    0.954196 0.105401 0.284242 0.222461
H28   H     H_    0.978119 0.024585 0.385051 0.147106
H29   H     H_    0.922699 0.105842 0.443751 0.181200
O34   O     O_3   0.183155 0.918676 0.692225 -0.492075
C64   C     C_3   0.080739 0.898068 0.577783 0.001580
H30   H     H_    0.052181 0.843664 0.597856 0.177657
H31   H     H_    0.094467 0.894983 0.475351 0.138356
H32   H     H_    0.008739 0.937193 0.569782 0.177601
C65   C     C_2   0.262005 0.356498 0.360049 0.604487
O35   O     O_2   0.161941 0.328554 0.320483 -0.473847
O36   O     O_R   0.346603 0.333712 0.302492 -0.691364
H33   H     H_    0.316054 0.295231 0.228126 0.316266
C66   C     C_2   0.752013 0.642787 0.628399 0.612516
O37   O     O_2   0.686557 0.667954 0.686129 -0.547156
O38   O     O_R   0.870675 0.667794 0.665060 -0.610796
H34   H     H_    0.893429 0.704394 0.743724 0.332168
C67   C     C_2   0.750986 0.854692 0.566773 0.575760
O39   O     O_2   0.816301 0.813169 0.533988 -0.522802
O40   O     O_R   0.718639 0.839561 0.682959 -0.691750
H35   H     H_    0.760127 0.795567 0.736667 0.347537
C68   C     C_2   0.247218 0.131144 0.452864 0.618302
O41   O     O_2   0.154243 0.157773 0.456896 -0.516311
O42   O     O_R   0.306926 0.165253 0.376025 -0.695961
H36   H     H_    0.277877 0.215870 0.355650 0.355536
C69   C     C_2   0.297390 0.630868 0.623671 0.656973
O43   O     O_2   0.391170 0.658980 0.699178 -0.528878
O44   O     O_R   0.186935 0.666726 0.591956 -0.578765
H37   H     H_    0.188607 0.708808 0.654794 0.370244
C70   C     C_2   0.655080 0.377131 0.333008 0.641876
O45   O     O_2   0.741024 0.336475 0.361787 -0.486118
O46   O     O_R   0.541929 0.358089 0.237166 -0.700596
H38   H     H_    0.539040 0.308754 0.194626 0.345691
C71   C     C_2   0.620757 0.132996 0.316136 0.626826
O47   O     O_2   0.516067 0.144528 0.241387 -0.562020
O48   O     O_R   0.708316 0.185816 0.338162 -0.613249
H39   H     H_    0.675928 0.226464 0.270611 0.373540
C72   C     C_2   0.394826 0.850229 0.690402 0.608838
O49   O     O_2   0.318270 0.804136 0.674462 -0.472533
O50   O     O_R   0.516385 0.833350 0.759469 -0.701483
H40   H     H_    0.528838 0.782007 0.795337 0.370297
O51   O     O_3   0.724727 0.018186 0.980708 -0.570249
C73   C     C_3   0.709777 0.011958 0.838134 -0.130907
H41   H     H_    0.629485 0.978946 0.782232 0.168365
H42   H     H_    0.788023 0.984059 0.829867 0.134722
H43   H     H_    0.704649 0.065131 0.786233 0.091311
O52   O     O_3   0.318455 0.980645 0.007775 -0.560426
C74   C     C_3   0.356522 0.980054 0.155817 -0.102592
H44   H     H_    0.305145 0.020370 0.191043 0.168558
H45   H     H_    0.453249 0.994175 0.204693 0.131651
H46   H     H_    0.339852 0.926869 0.194975 0.105109
O53   O     O_3   0.321739 0.522068 0.013352 -0.626261
C75   C     C_3   0.368939 0.524299 0.161508 -0.100430
H47   H     H_    0.346685 0.576093 0.199891 0.104912
H48   H     H_    0.468137 0.516103 0.205180 0.146837
H49   H     H_    0.328680 0.480571 0.203407 0.187295
O54   O     O_3   0.714229 0.480996 0.958975 -0.588391
C76   C     C_3   0.681307 0.480999 0.812364 -0.144403
H50   H     H_    0.585052 0.495126 0.758577 0.123210
H51   H     H_    0.700351 0.428143 0.774604 0.107582
H52   H     H_    0.733691 0.522309 0.782312 0.185089
O55   O     O_3   0.098035 0.096287 0.117931 -0.576859
C77   C     C_3   0.168024 0.152860 0.090820 -0.056737
H53   H     H_    0.265036 0.139127 0.134315 0.194362
H54   H     H_    0.149585 0.202937 0.138249 0.178178
H55   H     H_    0.149771 0.166725 0.979717 0.032806
O56   O     O_3   0.078469 0.937552 0.898601 -0.486137
C78   C     C_3   0.968121 0.903162 0.823140 -0.045860
H56   H     H_    0.916329 0.936158 0.732081 0.079541
H57   H     H_    0.911524 0.889768 0.886893 0.116798
H58   H     H_    0.987999 0.851195 0.783063 0.175609
O57   O     O_3   0.928707 0.576883 0.934626 -0.579056
C79   C     C_3   0.860089 0.612412 0.004911 -0.065253
H59   H     H_    0.765366 0.617469 0.933494 0.178695
H60   H     H_    0.892005 0.668313 0.032930 0.135369
H61   H     H_    0.858936 0.583311 0.099815 0.167697
O58   O     O_3   0.123870 0.415511 0.080621 -0.561522
C80   C     C_3   0.184766 0.376466 0.005559 -0.077155
H62   H     H_    0.283296 0.380717 0.060009 0.190676
H63   H     H_    0.168833 0.396561 0.898163 0.077139
H64   H     H_    0.158965 0.318821 0.999946 0.107671

loop_
_geom_bond_atom_site_label_1
_geom_bond_atom_site_label_2
_ccdc_geom_bond_type
C32   O24   A    
C77   H53   S    
C5    C37   A    
C12   C29   S    
O51   C73   S    
O40   H35   S    
Cr3   O12   S    
C7    C55   A    
Cr2   O2    S    
C63   H27   S    
C8    C56   A    
C67   O39   D    
Cr2   O6    S    
C62   H24   S    
C74   H45   S    
C80   H62   S    
C75   H47   S    
C10   O51   S    
C65   O36   S    
C72   O49   D    
C5    C53   A    
Cr3   O13   S    
C38   C42   A    
Cr6   O26   S    
C66   O38   S    
C32   O4    A    
C62   H25   S    
C68   O41   D    
C73   H41   S    
C45   O31   S    
O38   H34   S    
Cr6   O19   S    
C25   O17   A    
O54   C76   S    
C3    C18   S    
C8    C36   A    
C27   O15   A    
Cr2   O26   S    
O52   C74   S    
C9    C13   D    
Cr5   O17   S    
C77   H55   S    
C71   O48   S    
C61   H21   S    
C11   C15   D    
C10   C31   S    
C70   O45   D    
O48   H39   S    
C28   C35   S    
C79   H59   S    
C17   H6    S    
C5    C33   A    
C3    O11   A    
C64   H32   S    
C77   H54   S    
O42   H36   S    
C6    C38   A    
C27   O19   A    
C59   H15   S    
C21   O56   S    
C69   O44   S    
C58   H12   S    
C40   C44   A    
C9    C32   S    
C75   H49   S    
C25   C34   S    
C78   H58   S    
O56   C78   S    
C35   C56   A    
O57   C79   S    
C72   O50   S    
C37   C65   S    
C21   C22   S    
O28   C58   S    
Cr3   O25   S    
C6    C54   A    
C42   O28   S    
C36   C55   A    
O30   C60   S    
C67   O40   S    
C75   H48   S    
O27   C57   S    
C74   H46   S    
C80   H63   S    
C50   C70   S    
C15   C16   S    
C52   C56   A    
C1    O5    A    
C12   C16   D    
C2    O10   A    
C11   C30   S    
C30   O22   A    
C10   C14   D    
Cr3   O9    S    
O50   H40   S    
Cr5   O24   S    
O34   C64   S    
C76   H52   S    
C47   C51   A    
C78   H56   S    
C18   H5    S    
C31   O23   A    
C15   H4    S    
Cr6   O18   S    
C17   C21   D    
C6    C34   A    
Cr6   O22   S    
C61   H23   S    
Cr1   O4    S    
C19   C23   D    
C78   H57   S    
C4    O8    A    
C52   C72   S    
Cr4   O11   S    
C26   C33   S    
C30   O2    A    
O46   H38   S    
C45   C49   A    
C23   C24   S    
C39   C67   S    
C9    O52   S    
C58   H13   S    
C43   O29   S    
C41   C45   A    
Cr1   O1    S    
C22   O55   S    
C4    C17   S    
C44   O30   S    
C26   O18   A    
Cr2   O7    S    
C31   O3    A    
C57   H10   S    
C42   C46   A    
C64   H30   S    
C1    O9    A    
C38   C66   S    
C41   O27   S    
C20   H7    S    
O29   C59   S    
O33   C63   S    
C3    O7    A    
C63   H29   S    
Cr4   O26   S    
C29   O21   A    
C2    O6    A    
Cr5   O20   S    
C64   H31   S    
C60   H18   S    
C80   H64   S    
C49   C69   S    
C33   C54   A    
Cr4   O10   S    
C1    C20   S    
C26   O14   A    
C2    C19   S    
C18   C22   D    
C7    C35   A    
Cr1   O8    S    
C46   O32   S    
C11   O54   S    
C62   H26   S    
C63   H28   S    
C39   C43   A    
O36   H33   S    
Cr5   O25   S    
C47   O33   S    
C27   C36   S    
C57   H11   S    
C65   O35   D    
C46   C50   A    
O31   C61   S    
C59   H17   S    
C23   O58   S    
C60   H20   S    
C68   O42   S    
O32   C62   S    
Cr3   O16   S    
C50   C54   A    
C74   H44   S    
C71   O47   D    
C66   O37   D    
C28   O16   A    
Cr4   O14   S    
Cr1   O5    S    
C76   H50   S    
C13   H2    S    
C73   H42   S    
C79   H61   S    
C49   C53   A    
C14   H1    S    
C59   H16   S    
C40   C68   S    
C51   C71   S    
C58   H14   S    
C51   C55   A    
C37   C41   A    
O55   C77   S    
C61   H22   S    
C76   H51   S    
O53   C75   S    
Cr4   O15   S    
Cr5   O21   S    
C48   C52   A    
C12   O53   S    
C4    O12   A    
O58   C80   S    
C24   O57   S    
C34   C53   A    
C70   O46   S    
C57   H9    S    
Cr1   O25   S    
Cr6   O23   S    
O44   H37   S    
C25   O13   A    
C7    C39   A    
C48   O34   S    
C19   H8    S    
C28   O20   A    
C16   H3    S    
C8    C40   A    
C60   H19   S    
C69   O43   D    
C13   C14   S    
C43   C47   A    
C20   C24   D    
C79   H60   S    
C44   C48   A    
Cr2   O3    S    
C29   O1    A    
C73   H43   S    
