data_mof_unit_45776.cif
_audit_creation_date              2013-03-05T16:06:01-0500
_audit_creation_method            fapswitch 2.2
_symmetry_space_group_name_H-M    P1
_symmetry_Int_Tables_number       1
_space_group_crystal_system       triclinic
_cell_length_a                    10.979269
_cell_length_b                    9.601969
_cell_length_c                    23.539851
_cell_angle_alpha                 89.69656
_cell_angle_beta                  92.179769
_cell_angle_gamma                 89.723571
_cell_volume                      2479.77047795

loop_
_atom_site_label
_atom_site_type_symbol
_atom_site_description
_atom_site_fract_x
_atom_site_fract_y
_atom_site_fract_z
_atom_type_partial_charge
O1    O     O_R   0.319640 0.618740 0.500000 -0.563530
O2    O     O_R   0.680360 0.381260 0.500000 -0.548125
O3    O     O_R   0.680360 0.618740 0.500000 -0.567628
O4    O     O_R   0.319640 0.381260 0.500000 -0.556180
C1    C     C_R   0.262419 0.500184 0.501855 0.957870
C2    C     C_R   0.737442 0.499568 0.497832 0.958560
O5    O     O_R   0.499960 0.618810 0.417880 -0.593045
O6    O     O_R   0.500040 0.381190 0.582120 -0.572794
O7    O     O_R   0.500040 0.618810 0.582120 -0.593176
O8    O     O_R   0.499960 0.381190 0.417880 -0.571489
C3    C     C_R   0.497922 0.500313 0.391261 0.924864
C4    C     C_R   0.502908 0.499930 0.608717 0.932931
Cu1   Cu    Cu3+1 0.500000 0.640660 0.500000 1.075419
Cu2   Cu    Cu3+1 0.500000 0.359340 0.500000 1.094730
C5    C     C_R   0.539372 0.619090 0.880448 0.593059
C6    C     C_R   0.478135 0.381865 0.120114 0.586722
N1    N     N_R   0.505410 0.501700 0.851780 -0.469139
N2    N     N_R   0.511665 0.499640 0.148597 -0.469929
C7    C     C_R   0.473376 0.383094 0.879495 0.572941
C8    C     C_R   0.546683 0.616939 0.120854 0.578959
C9    C     C_R   0.468454 0.380654 0.939531 -0.079577
C10   C     C_R   0.553047 0.618431 0.060892 -0.081893
C11   C     C_R   0.510053 0.499476 0.970116 -0.041437
C12   C     C_R   0.511093 0.499669 0.030352 -0.041581
C13   C     C_R   0.550306 0.618396 0.940369 -0.115161
C14   C     C_R   0.470081 0.381094 0.060120 -0.113550
C15   C     C_R   0.422477 0.265000 0.969720 -0.150698
C16   C     C_R   0.600431 0.733310 0.030714 -0.150156
C17   C     C_R   0.422586 0.265670 0.029423 0.301145
C18   C     C_R   0.599472 0.732997 0.971001 0.300619
O9    O     O_2   0.560796 0.736121 0.850556 -0.435084
O10   O     O_2   0.453816 0.266156 0.150302 -0.438920
O11   O     O_2   0.447370 0.268448 0.848572 -0.494743
O12   O     O_2   0.573803 0.731447 0.151675 -0.489505
C19   C     C_R   0.615257 0.485983 0.243082 -0.090617
C20   C     C_R   0.394878 0.509362 0.758670 -0.094184
C21   C     C_R   0.611230 0.485164 0.302603 0.230797
C22   C     C_R   0.394736 0.505968 0.699035 0.229658
C23   C     C_R   0.498422 0.500202 0.328874 -0.244093
C24   C     C_R   0.506211 0.500077 0.671118 -0.246248
C25   C     C_R   0.388881 0.518766 0.295431 0.218199
C26   C     C_R   0.618771 0.503503 0.702997 0.216368
C27   C     C_R   0.394733 0.517340 0.235533 -0.102860
C28   C     C_R   0.616857 0.498258 0.762917 -0.098508
C29   C     C_R   0.507343 0.501168 0.209694 0.157635
C30   C     C_R   0.505542 0.502555 0.790536 0.157484
C31   C     C_R   0.064258 0.372355 0.504579 0.258345
C32   C     C_R   0.935417 0.625679 0.492656 0.245825
C33   C     C_R   0.937305 0.371658 0.501614 0.265494
C34   C     C_R   0.062139 0.627080 0.500228 0.250586
C35   C     C_R   0.871433 0.498487 0.495970 -0.302455
C36   C     C_R   0.128263 0.500072 0.503616 -0.301357
C37   C     C_R   0.431776 0.074914 0.460341 0.051055
C38   C     C_R   0.569485 0.924506 0.539134 0.046849
C39   C     C_R   0.567644 0.072778 0.539900 0.052977
C40   C     C_R   0.431176 0.926637 0.460666 0.047686
N3    N     N_R   0.500000 0.852070 0.500000 -0.213059
N4    N     N_R   0.500000 0.147930 0.500000 -0.210520
C41   C     C_1   0.366393 0.147273 0.940698 0.511516
N5    N     N_1   0.321495 0.053084 0.917817 -0.151321
C42   C     C_1   0.658637 0.849705 0.059753 0.511912
N6    N     N_1   0.705241 0.942814 0.082655 -0.151061
N7    N     N_R   0.366018 0.152199 0.058278 0.159417
O13   O     O_R   0.261432 0.171237 0.081338 -0.274220
O14   O     O_R   0.411095 0.026987 0.055528 -0.319048
N8    N     N_R   0.657111 0.845575 0.942018 0.158796
O15   O     O_R   0.759195 0.823804 0.917094 -0.272336
O16   O     O_R   0.615362 0.972047 0.945925 -0.319577
C43   C     C_1   0.729845 0.465424 0.215828 0.435117
N9    N     N_1   0.821414 0.449000 0.193957 -0.175941
C44   C     C_1   0.281028 0.516115 0.787581 0.435495
N10   N     N_1   0.190066 0.521452 0.810776 -0.176380
N11   N     N_R   0.722039 0.469452 0.336513 0.112468
O17   O     O_R   0.737507 0.361659 0.369673 -0.302725
O18   O     O_R   0.811778 0.555559 0.330365 -0.268607
N12   N     N_R   0.281230 0.510843 0.666667 0.118980
O19   O     O_R   0.251108 0.409104 0.632858 -0.311002
O20   O     O_R   0.204976 0.613144 0.673193 -0.266749
N13   N     N_R   0.272936 0.539749 0.321551 0.140250
O21   O     O_R   0.250099 0.482437 0.370096 -0.365140
O22   O     O_R   0.190117 0.620793 0.297818 -0.274063
N14   N     N_R   0.733842 0.518825 0.675581 0.139086
O23   O     O_R   0.750378 0.468572 0.625337 -0.370919
O24   O     O_R   0.820712 0.592928 0.699160 -0.268040
C45   C     C_1   0.285127 0.527722 0.199523 0.453429
N15   N     N_1   0.197779 0.535806 0.170555 -0.171105
C46   C     C_1   0.728912 0.482936 0.796898 0.450995
N16   N     N_1   0.818270 0.470602 0.824198 -0.170281
N17   N     N_R   0.126254 0.240338 0.507960 0.172467
O25   O     O_R   0.176787 0.198884 0.556032 -0.227303
O26   O     O_R   0.109092 0.150550 0.467310 -0.245917
N18   N     N_R   0.872985 0.755063 0.480808 0.176252
O27   O     O_R   0.820071 0.776233 0.431085 -0.250754
O28   O     O_R   0.881844 0.857444 0.516671 -0.238538
N19   N     N_R   0.877393 0.239430 0.505196 0.171477
O29   O     O_R   0.829485 0.183722 0.459363 -0.223561
O30   O     O_R   0.897635 0.161239 0.549889 -0.247488
N20   N     N_R   0.122117 0.759331 0.504513 0.170961
O31   O     O_R   0.171150 0.797876 0.553084 -0.243138
O32   O     O_R   0.107981 0.850496 0.463717 -0.240132
C47   C     C_1   0.359229 0.147282 0.417127 0.381528
N21   N     N_1   0.300388 0.201615 0.381670 -0.148004
C48   C     C_1   0.646907 0.850372 0.579997 0.375909
N22   N     N_1   0.710020 0.793256 0.613051 -0.139780
C49   C     C_1   0.635167 0.142146 0.585030 0.382442
N23   N     N_1   0.689419 0.193310 0.622385 -0.152333
C50   C     C_1   0.357710 0.855071 0.418294 0.375910
N24   N     N_1   0.297945 0.800571 0.383703 -0.134475

loop_
_geom_bond_atom_site_label_1
_geom_bond_atom_site_label_2
_geom_bond_distance
_ccdc_geom_bond_type
N8    O16   1.300886 A    
C46   N16   1.157431 T    
C17   N7    1.437004 S    
C47   N21   1.156424 T    
C15   C17   1.405418 A    
C31   N17   1.436317 S    
N11   O17   1.299638 A    
N19   O29   1.300947 A    
C26   N14   1.448143 S    
O3    C2    1.304185 A    
N7    O14   1.300821 A    
C23   C25   1.422117 A    
C22   N12   1.436179 S    
C45   N15   1.157457 T    
O5    C3    1.301717 A    
C39   C49   1.440211 S    
O1    C1    1.304208 A    
C19   C21   1.403489 A    
N12   O20   1.301105 A    
C5    C13   1.411054 A    
Cu1   N3    2.029952 S    
C40   N3    1.369483 A    
O7    Cu1   1.943323 S    
C32   C35   1.415123 A    
C37   C47   1.441400 S    
C33   C35   1.416412 A    
C34   C36   1.416575 A    
C50   N24   1.155277 T    
C1    C36   1.475100 S    
C20   C30   1.404492 A    
C2    C35   1.473437 S    
N17   O26   1.300379 A    
C28   C46   1.448181 S    
C42   N6    1.157708 T    
O3    Cu1   1.990364 S    
C20   C44   1.447144 S    
C8    O12   1.348748 S    
C16   C42   1.451376 S    
C32   C34   1.396090 A    
N8    O15   1.301219 A    
C9    C15   1.420353 A    
C41   N5    1.157713 T    
C10   C16   1.420359 A    
Cu1   Cu2   2.701226 S    
C25   C27   1.414009 A    
O2    C2    1.301746 A    
C26   C28   1.412096 A    
C28   C30   1.406526 A    
C6    C14   1.411716 A    
Cu2   N4    2.029953 S    
C34   N20   1.435526 S    
C27   C45   1.448105 S    
C38   C48   1.441964 S    
N1    C30   1.441708 S    
C31   C33   1.392999 A    
O8    Cu2   1.943323 S    
N13   O22   1.301694 A    
C33   N19   1.436297 S    
N7    O13   1.301180 A    
C4    C24   1.467975 S    
C40   C50   1.438423 S    
O6    C4    1.303575 A    
N18   O28   1.300789 A    
N12   O19   1.299394 A    
C3    C23   1.468808 S    
C27   C29   1.406782 A    
C18   N8    1.437388 S    
C8    C10   1.415878 A    
N14   O23   1.298527 A    
N20   O32   1.300396 A    
C9    C11   1.420351 A    
C7    O11   1.348691 S    
C10   C12   1.420546 A    
O1    Cu1   1.992385 S    
N11   O18   1.301049 A    
C20   C22   1.404301 A    
C19   C29   1.403218 A    
N2    C29   1.440966 S    
C37   C40   1.423781 A    
C13   C18   1.416592 A    
C5    N1    1.363075 A    
C21   N11   1.436370 S    
C38   C39   1.423963 A    
O6    Cu2   1.945532 S    
C7    C9    1.416382 A    
C12   C14   1.417961 A    
O4    C1    1.302396 A    
C25   N13   1.448286 S    
C37   N4    1.372207 A    
N19   O30   1.300830 A    
C5    O9    1.349077 S    
C31   C36   1.416850 A    
C6    O10   1.348914 S    
C49   N23   1.156266 T    
N14   O24   1.301734 A    
C16   C18   1.405286 A    
C44   N10   1.157329 T    
C21   C23   1.412357 A    
C15   C41   1.451416 S    
C22   C24   1.412073 A    
C24   C26   1.421836 A    
N18   O27   1.301314 A    
N1    C7    1.363731 A    
N2    C8    1.363208 A    
C11   C13   1.417549 A    
O4    Cu2   1.990365 S    
C43   N9    1.157306 T    
O2    Cu2   1.992384 S    
O7    C4    1.298667 A    
O8    C3    1.300976 A    
C11   C12   1.417569 A    
N13   O21   1.299257 A    
O5    Cu1   1.945533 S    
C19   C43   1.446967 S    
C14   C17   1.416966 A    
C6    N2    1.362794 A    
N20   O31   1.301400 A    
C32   N18   1.436877 S    
C39   N4    1.374423 A    
C48   N22   1.156353 T    
N17   O25   1.300827 A    
C38   N3    1.368520 A    
