data_mof_unit_46349.cif
_audit_creation_date              2012-12-10T17:51:30-0500
_audit_creation_method            fapswitch 2.2
_symmetry_space_group_name_H-M    P1
_symmetry_Int_Tables_number       1
_space_group_crystal_system       triclinic
_cell_length_a                    9.969513
_cell_length_b                    10.582224
_cell_length_c                    16.672244
_cell_angle_alpha                 93.599344
_cell_angle_beta                  87.091773
_cell_angle_gamma                 91.153957
_cell_volume                      1752.93135061

loop_
_atom_site_label
_atom_site_type_symbol
_atom_type_description
_atom_site_fract_x
_atom_site_fract_y
_atom_site_fract_z
_atom_type_partial_charge
Br1   Br    Br    0.809049 0.341979 0.077372 -0.225678
Br2   Br    Br    0.978727 0.149730 0.494341 -0.422113
Br3   Br    Br    0.254997 0.210798 0.346127 -0.448444
Br4   Br    Br    0.238639 0.533683 0.247493 -0.325601
Br5   Br    Br    0.123028 0.657600 0.813579 -0.255987
Br6   Br    Br    0.239490 0.752992 0.637673 -0.419818
Br7   Br    Br    0.809491 0.525053 0.245152 -0.334604
Br8   Br    Br    0.230107 0.286196 0.115614 -0.303555
C1    C     C_R   0.500995 0.737210 0.486949 1.012231
C2    C     C_R   0.520905 0.469396 0.257573 -0.278003
C3    C     C_R   0.249847 0.859745 0.433497 0.521829
C4    C     C_R   0.483678 0.486675 0.651925 1.002032
C5    C     C_R   0.129626 0.924631 0.451895 -0.295832
C6    C     C_R   0.133736 0.055725 0.459986 0.277543
C7    C     C_R   0.253772 0.117755 0.440677 0.277398
C8    C     C_R   0.374721 0.057379 0.451469 -0.118138
C9    C     C_R   0.374668 0.924627 0.447700 -0.035708
C10   C     C_R   0.498952 0.864788 0.457925 -0.229628
C11   C     C_R   0.620463 0.930713 0.441509 0.437321
C12   C     C_R   0.353470 0.424253 0.773598 -0.209914
C13   C     C_R   0.617215 0.062192 0.435343 0.377592
C14   C     C_R   0.497073 0.125582 0.457697 -0.248313
C15   C     C_R   0.851944 0.616109 0.632119 0.366452
C16   C     C_R   0.499636 0.259995 0.486633 0.888788
C17   C     C_R   0.907516 0.621951 0.708267 0.303318
C18   C     C_R   0.045568 0.612727 0.711633 0.208689
C19   C     C_R   0.124097 0.605933 0.639137 0.142827
C20   C     C_R   0.066794 0.551930 0.567355 -0.019969
C21   C     C_R   0.922866 0.554021 0.565905 0.058809
C22   C     C_R   0.932900 0.452073 0.436453 0.018850
C23   C     C_R   0.398781 0.355020 0.152820 0.204003
C24   C     C_R   0.074878 0.456090 0.435643 -0.014564
C25   C     C_R   0.516636 0.499308 0.345791 0.925436
C26   C     C_R   0.478454 0.441473 0.733611 -0.248987
C27   C     C_R   0.595448 0.400815 0.768368 0.279908
C28   C     C_R   0.588524 0.371962 0.849926 0.404056
C29   C     C_R   0.462370 0.364894 0.891202 -0.040440
C30   C     C_R   0.343675 0.384620 0.851415 0.432556
C31   C     C_R   0.399315 0.438958 0.220426 0.279232
C32   C     C_R   0.643597 0.443729 0.213607 0.194885
C33   C     C_R   0.642859 0.371859 0.139752 0.257113
C34   C     C_R   0.520190 0.325981 0.110001 -0.288110
C35   C     C_2   0.456752 0.371497 0.978862 -0.155929
C36   C     C_2   0.514125 0.288664 0.023612 0.604570
H1    H     H_    0.034083 0.874436 0.454434 0.186310
H2    H     H_    0.733228 0.756880 0.664008 0.344067
H3    H     H_    0.735922 0.640132 0.768161 0.352008
H4    H     H_    0.605173 0.131780 0.032970 0.367121
H5    H     H_    0.222144 0.324939 0.936582 0.378775
H6    H     H_    0.778247 0.407088 0.865715 0.379729
H7    H     H_    0.883754 0.409177 0.385122 0.190481
H8    H     H_    0.129702 0.423608 0.382039 0.221861
H9    H     H_    0.261936 0.440579 0.744067 0.218617
H10   H     H_    0.408388 0.454875 0.007913 0.154428
H11   H     H_    0.769647 0.323560 0.744311 0.364728
H12   H     H_    0.814395 0.923054 0.418037 0.393958
H13   H     H_    0.152088 0.713408 0.388277 0.352572
H14   H     H_    0.699566 0.200933 0.379027 0.349268
N1    N     N_R   0.857140 0.501200 0.500750 -0.082688
N2    N     N_R   0.142740 0.501280 0.500770 -0.085081
O1    O     O_R   0.385310 0.683220 0.500000 -0.554277
O2    O     O_3   0.738628 0.864242 0.429737 -0.707695
O3    O     O_3   0.246912 0.741242 0.394022 -0.690719
O4    O     O_3   0.729084 0.124837 0.404658 -0.705530
O5    O     O_3   0.746832 0.692594 0.618629 -0.695123
O6    O     O_3   0.832405 0.653301 0.778349 -0.675393
O7    O     O_3   0.572129 0.179746 0.988932 -0.651557
O8    O     O_3   0.216701 0.372168 0.887520 -0.667341
O9    O     O_3   0.703052 0.360008 0.892043 -0.663133
O10   O     O_R   0.614640 0.683250 0.500010 -0.501457
O11   O     O_R   0.371780 0.500010 0.615800 -0.616970
O12   O     O_R   0.601110 0.500030 0.615800 -0.520189
O13   O     O_R   0.385360 0.316750 0.499990 -0.603607
O14   O     O_R   0.614690 0.316780 0.500000 -0.584039
O15   O     O_R   0.398890 0.499970 0.384200 -0.564534
O16   O     O_R   0.628220 0.499990 0.384200 -0.616651
O17   O     O_3   0.713606 0.387691 0.721820 -0.746162
Zn1   Zn    Zn3+2 0.346870 0.499980 0.499990 1.040862
Zn2   Zn    Zn3+2 0.653130 0.500020 0.500010 1.081255

loop_
_geom_bond_atom_site_label_1
_geom_bond_atom_site_label_2
_ccdc_geom_bond_type
C5    H1    S    
C22   H7    S    
H5    O8    S    
C33   C34   A    
C27   C28   A    
O16   Zn2   S    
N2    Zn1   S    
C18   C19   A    
C1    O1    A    
C15   C21   A    
C28   C29   A    
C23   C34   A    
H6    O9    S    
C10   C11   A    
O12   Zn2   S    
C3    O3    S    
H11   O17   S    
C16   O13   A    
C11   O2    S    
C7    C8    A    
C2    C32   A    
C26   C27   A    
C24   H8    S    
C13   O4    S    
C35   H10   S    
C25   O15   A    
C3    C9    A    
C21   N1    A    
C8    C9    A    
Br7   C32   S    
H3    O6    S    
C12   C26   A    
C4    O12   A    
C13   C14   A    
C34   C36   S    
H13   O3    S    
C20   N2    A    
H14   O4    S    
C1    O10   A    
H2    O5    S    
N1    Zn2   S    
C17   C18   A    
C27   O17   S    
C2    C31   A    
C29   C35   S    
C35   C36   D    
C29   C30   A    
C12   C30   A    
C25   O16   A    
Br6   C19   S    
Br4   C31   S    
O1    Zn1   S    
O13   Zn1   S    
C22   N1    A    
C9    C10   A    
Br1   C33   S    
C32   C33   A    
C4    O11   A    
C30   O8    S    
O14   Zn2   S    
H12   O2    S    
C24   N2    A    
C4    C26   S    
Br3   C7    S    
C28   O9    S    
C20   C21   A    
C8    C14   A    
C11   C13   A    
O10   Zn2   S    
Br8   C23   S    
C17   O6    S    
C12   H9    S    
C15   O5    S    
C22   C24   A    
C3    C5    A    
C16   O14   A    
C23   C31   A    
C2    C25   S    
C14   C16   S    
C15   C17   A    
H4    O7    S    
Br2   C6    S    
O15   Zn1   S    
Br5   C18   S    
C1    C10   S    
C19   C20   A    
C6    C7    A    
C36   O7    S    
C5    C6    A    
O11   Zn1   S    
