data_mof_unit_68507.cif
_audit_creation_date              2012-12-10T16:55:46-0500
_audit_creation_method            fapswitch 2.2
_symmetry_space_group_name_H-M    P1
_symmetry_Int_Tables_number       1
_space_group_crystal_system       triclinic
_cell_length_a                    7.760695
_cell_length_b                    8.638311
_cell_length_c                    10.468904
_cell_angle_alpha                 91.186844
_cell_angle_beta                  85.96918
_cell_angle_gamma                 93.447142
_cell_volume                      698.729436192

loop_
_atom_site_label
_atom_site_type_symbol
_atom_type_description
_atom_site_fract_x
_atom_site_fract_y
_atom_site_fract_z
_atom_type_partial_charge
C1    C     C_R   0.545305 0.794097 0.499106 0.845644
C2    C     C_R   0.455122 0.205782 0.502002 0.880878
C3    C     C_R   0.502427 0.501393 0.742603 0.833893
C4    C     C_R   0.497717 0.499991 0.257546 0.832849
C5    C     C_3   0.439543 0.634665 0.962797 -0.176798
C6    C     C_3   0.560304 0.368481 0.037898 -0.166535
C7    C     C_3   0.599047 0.622680 0.041389 -0.190278
C8    C     C_3   0.400832 0.380154 0.959384 -0.173913
C9    C     C_3   0.494515 0.501043 0.122851 0.038275
C10   C     C_3   0.505382 0.501867 0.877605 0.037523
C11   C     C_3   0.334871 0.512860 0.047204 -0.147224
C12   C     C_3   0.665015 0.490072 0.953466 -0.144237
C13   C     C_2   0.568605 0.956711 0.511945 0.157265
C14   C     C_2   0.433790 0.043573 0.488870 0.160766
H1    H     H_    0.678295 0.720245 0.082333 0.135299
H2    H     H_    0.321858 0.281647 0.919579 0.137606
H3    H     H_    0.391437 0.743261 0.927346 0.139675
H4    H     H_    0.608535 0.262045 0.076665 0.137950
H5    H     H_    0.200712 0.521828 0.089950 0.140164
H6    H     H_    0.799194 0.480748 0.910881 0.141867
H7    H     H_    0.013854 0.382620 0.404099 0.192872
H8    H     H_    0.986181 0.617446 0.595865 0.187789
N1    N     N_2   0.950320 0.457950 0.465730 -0.161702
N2    N     N_2   0.049680 0.542050 0.534270 -0.165607
O1    O     O_R   0.389250 0.738570 0.508410 -0.590125
O2    O     O_R   0.610750 0.261430 0.491590 -0.577101
O3    O     O_R   0.678390 0.711620 0.486450 -0.617608
O4    O     O_R   0.321610 0.288380 0.513550 -0.608956
O5    O     O_R   0.355460 0.513510 0.697030 -0.620541
O6    O     O_R   0.644540 0.486490 0.302970 -0.619517
O7    O     O_R   0.644600 0.486560 0.675070 -0.640802
O8    O     O_R   0.355400 0.513440 0.324930 -0.649671
Zn1   Zn    Zn3+2 0.306940 0.517990 0.514670 0.945202
Zn2   Zn    Zn3+2 0.693060 0.482010 0.485330 0.953401
O9    O     O_3   0.729882 0.022649 0.542219 -0.625653
C15   C     C_3   0.775460 0.977016 0.664184 0.139218
H9    H     H_    0.907595 0.029090 0.677415 0.189656
H10   H     H_    0.784980 0.849671 0.669839 0.133087
C16   C     C_3   0.652903 0.034937 0.774255 -0.417701
H11   H     H_    0.638203 0.161346 0.765308 0.243049
H12   H     H_    0.523439 0.973373 0.770129 0.194496
C17   C     C_3   0.722455 0.004122 0.903501 -0.978824
H13   H     H_    0.766972 0.884578 0.905533 0.263536
H14   H     H_    0.618731 0.016308 0.980865 0.257446
H15   H     H_    0.832807 0.087806 0.921396 0.270017
O10   O     O_3   0.273909 0.982302 0.453175 -0.629970
C18   C     C_3   0.278850 0.957784 0.318578 0.125739
H16   H     H_    0.210941 0.843275 0.300515 0.186953
H17   H     H_    0.412204 0.952102 0.271443 0.079671
C19   C     C_3   0.183313 0.083284 0.256451 -0.334797
H18   H     H_    0.052926 0.091945 0.306413 0.252259
H19   H     H_    0.256656 0.196923 0.265456 0.212794
C20   C     C_3   0.162996 0.046681 0.114882 -1.006474
H20   H     H_    0.291858 0.038226 0.062731 0.261377
H21   H     H_    0.094999 0.140576 0.072483 0.266165
H22   H     H_    0.085527 0.935507 0.103304 0.269655

loop_
_geom_bond_atom_site_label_1
_geom_bond_atom_site_label_2
_ccdc_geom_bond_type
C19   H19   S    
N1    N2    D    
C1    O1    A    
C13   O9    S    
N2    Zn1   S    
C18   H17   S    
C2    O4    A    
O9    C15   S    
N1    Zn2   S    
O8    Zn1   S    
C12   H6    S    
C6    C9    S    
C15   H10   S    
C19   H18   S    
O7    Zn2   S    
C5    C10   S    
C2    O2    A    
C3    C10   S    
C13   C14   D    
C3    O7    A    
C9    C11   S    
C11   H5    S    
O3    Zn2   S    
C4    O8    A    
C15   C16   S    
C17   H14   S    
C8    C11   S    
C2    C14   S    
C10   C12   S    
C7    H1    S    
C15   H9    S    
O4    Zn1   S    
C5    C11   S    
C18   C19   S    
C5    C7    S    
C20   H21   S    
H7    N1    S    
C6    C12   S    
C7    C12   S    
C6    H4    S    
H8    N2    S    
C19   C20   S    
C5    H3    S    
C17   H13   S    
O6    Zn2   S    
O5    Zn1   S    
C3    O5    A    
C1    C13   S    
C16   H12   S    
C8    H2    S    
C20   H22   S    
C16   H11   S    
C1    O3    A    
C7    C9    S    
C16   C17   S    
C6    C8    S    
C4    C9    S    
O10   C18   S    
O2    Zn2   S    
C8    C10   S    
C4    O6    A    
C18   H16   S    
C20   H20   S    
O1    Zn1   S    
C14   O10   S    
C17   H15   S    
