data_mof_unit_10723.cif
_audit_creation_date              2012-12-11T15:49:08-0500
_audit_creation_method            fapswitch 2.2
_symmetry_space_group_name_H-M    P1
_symmetry_Int_Tables_number       1
_space_group_crystal_system       triclinic
_cell_length_a                    21.72084
_cell_length_b                    7.257973
_cell_length_c                    14.797733
_cell_angle_alpha                 89.999826
_cell_angle_beta                  106.466203
_cell_angle_gamma                 89.999974
_cell_volume                      2237.17479066

loop_
_atom_site_label
_atom_site_type_symbol
_atom_type_description
_atom_site_fract_x
_atom_site_fract_y
_atom_site_fract_z
_atom_type_partial_charge
O1    O     O_R   0.335860 0.638190 0.002110 -0.532126
O2    O     O_R   0.664140 0.361810 0.997890 -0.532013
O3    O     O_R   0.164140 0.138190 0.997890 -0.532125
O4    O     O_R   0.835860 0.861810 0.002110 -0.532013
O5    O     O_R   0.217530 0.305920 0.861960 -0.516109
O6    O     O_R   0.782470 0.694080 0.138040 -0.521324
O7    O     O_R   0.282470 0.805920 0.138040 -0.516110
O8    O     O_R   0.717530 0.194080 0.861960 -0.521323
C1    C     C_R   0.205870 0.476646 0.825432 0.755054
C2    C     C_R   0.795424 0.522819 0.174440 0.744424
C3    C     C_R   0.294130 0.976645 0.174568 0.755050
C4    C     C_R   0.704576 0.022820 0.825560 0.744426
O9    O     O_R   0.338690 0.308320 0.993240 -0.544872
O10   O     O_R   0.661310 0.691680 0.006760 -0.546512
O11   O     O_R   0.161310 0.808320 0.006760 -0.544874
O12   O     O_R   0.838690 0.191680 0.993240 -0.546510
O13   O     O_R   0.286170 0.140430 0.130100 -0.530778
O14   O     O_R   0.713830 0.859570 0.869900 -0.523877
O15   O     O_R   0.213830 0.640430 0.869900 -0.530779
O16   O     O_R   0.786170 0.359570 0.130100 -0.523875
C5    C     C_R   0.365458 0.476069 0.000156 0.718565
C6    C     C_R   0.636019 0.522736 0.005476 0.720389
C7    C     C_R   0.134542 0.976069 0.999843 0.718567
C8    C     C_R   0.863981 0.022736 0.994524 0.720380
O17   O     O_3   0.232630 0.472410 0.044750 -0.372004
O18   O     O_3   0.767370 0.527590 0.955250 -0.369785
O19   O     O_3   0.267370 0.972410 0.955250 -0.372004
O20   O     O_3   0.732630 0.027590 0.044750 -0.369782
V1    V     V_3+5 0.253220 0.196620 0.991700 1.508750
V2    V     V_3+5 0.746780 0.803380 0.008300 1.512936
V3    V     V_3+5 0.246780 0.696620 0.008300 1.508748
V4    V     V_3+5 0.753220 0.303380 0.991700 1.512938
C9    C     C_R   0.028064 0.824061 0.003896 0.148474
C10   C     C_R   0.961591 0.154272 0.951194 0.132853
C11   C     C_R   0.471935 0.324060 0.996102 0.148475
C12   C     C_R   0.538408 0.654271 0.048802 0.132841
C13   C     C_R   0.965284 0.844434 0.011349 -0.161234
C14   C     C_R   0.028582 0.144362 0.963958 -0.185953
C15   C     C_R   0.534716 0.344434 0.988649 -0.161233
C16   C     C_R   0.471417 0.644362 0.036038 -0.185953
H1    H     H_    0.940887 0.724315 0.027791 0.139110
H2    H     H_    0.052848 0.258306 0.943469 0.147692
H3    H     H_    0.559113 0.224315 0.972209 0.139111
H4    H     H_    0.447151 0.758306 0.056527 0.147694
C17   C     C_R   0.931418 0.010788 0.987834 -0.055111
C18   C     C_R   0.063782 0.982239 0.993413 -0.058429
C19   C     C_R   0.568581 0.510787 0.012164 -0.055103
C20   C     C_R   0.436217 0.482239 0.006584 -0.058434
C21   C     C_R   0.675256 0.008314 0.722676 -0.139311
C22   C     C_R   0.319533 0.987455 0.278067 -0.136279
C23   C     C_R   0.824743 0.508312 0.277324 -0.139313
C24   C     C_R   0.180466 0.487456 0.721933 -0.136279
C25   C     C_R   0.679916 0.902950 0.568254 0.224184
C26   C     C_R   0.307827 0.073180 0.431928 0.215970
C27   C     C_R   0.820083 0.402945 0.431746 0.224181
C28   C     C_R   0.192171 0.573182 0.568072 0.215969
C29   C     C_R   0.707795 0.913497 0.666432 0.113615
C30   C     C_R   0.281994 0.061776 0.332992 0.118691
C31   C     C_R   0.792204 0.413493 0.333567 0.113619
C32   C     C_R   0.218004 0.561779 0.667007 0.118691
C33   C     C_R   0.611629 0.069965 0.682245 0.058993
C34   C     C_R   0.382731 0.930530 0.322023 0.043541
C35   C     C_R   0.888369 0.569966 0.317756 0.058994
C36   C     C_R   0.117268 0.430528 0.677977 0.043540
C37   C     C_R   0.578226 0.015365 0.588941 0.022212
C38   C     C_R   0.413390 0.990412 0.414842 0.032143
C39   C     C_R   0.921773 0.515363 0.411060 0.022211
C40   C     C_R   0.086609 0.490410 0.585159 0.032143
C41   C     C_R   0.615433 0.957108 0.529354 0.024666
C42   C     C_R   0.374296 0.041418 0.472789 0.023944
C43   C     C_R   0.884566 0.457102 0.470646 0.024670
C44   C     C_R   0.125702 0.541419 0.527211 0.023944
C45   C     C_R   0.509718 0.018012 0.551340 0.089969
C46   C     C_R   0.481432 0.994532 0.452842 0.100396
C47   C     C_R   0.990280 0.518010 0.448661 0.089969
C48   C     C_R   0.018566 0.494528 0.547159 0.100398
C49   C     C_R   0.521998 0.985711 0.394263 -0.140501
C50   C     C_R   0.468370 0.027540 0.609076 -0.131051
C51   C     C_R   0.978000 0.485700 0.605737 -0.140505
C52   C     C_R   0.031628 0.527541 0.390925 -0.131052
C53   C     C_R   0.587222 0.956906 0.431647 -0.088698
C54   C     C_R   0.402482 0.050551 0.570608 -0.078570
C55   C     C_R   0.912776 0.456894 0.568354 -0.088704
C56   C     C_R   0.097516 0.550553 0.429392 -0.078569
H5    H     H_    0.614938 0.936907 0.382441 0.167320
H6    H     H_    0.374152 0.070404 0.619131 0.179848
H7    H     H_    0.885061 0.436887 0.617560 0.167321
H8    H     H_    0.125846 0.570408 0.380869 0.179848
H9    H     H_    0.503446 0.995748 0.318637 0.147177
H10   H     H_    0.486198 0.015098 0.684634 0.159312
H11   H     H_    0.996553 0.495735 0.681364 0.147178
H12   H     H_    0.013800 0.515101 0.315366 0.159311
C57   C     C_3   0.048340 0.633561 0.984184 -0.340419
C58   C     C_3   0.050215 0.625297 0.880718 -0.700287
H13   H     H_    0.001456 0.648236 0.832382 0.221074
H14   H     H_    0.081036 0.732505 0.862903 0.238214
H15   H     H_    0.069296 0.492388 0.865074 0.205071
H16   H     H_    0.094086 0.590391 0.034835 0.209334
H17   H     H_    0.013760 0.531134 0.995625 0.153052
C59   C     C_3   0.923853 0.308522 0.890631 -0.394751
C60   C     C_3   0.873940 0.238485 0.802559 -0.620696
H18   H     H_    0.896988 0.147383 0.761267 0.249097
H19   H     H_    0.834810 0.163286 0.820511 0.222893
H20   H     H_    0.851984 0.357312 0.757804 0.236604
H21   H     H_    0.901786 0.401622 0.932092 0.202566
H22   H     H_    0.956257 0.393075 0.862929 0.195462
C61   C     C_3   0.451659 0.133561 0.015813 -0.340423
C62   C     C_3   0.449783 0.125293 0.119278 -0.700253
H23   H     H_    0.498544 0.148198 0.167617 0.221058
H24   H     H_    0.418971 0.232525 0.137097 0.238207
H25   H     H_    0.430690 0.992394 0.134915 0.205073
H26   H     H_    0.405913 0.090393 0.965160 0.209332
H27   H     H_    0.486240 0.031133 0.004373 0.153053
C63   C     C_3   0.576146 0.808515 0.109369 -0.394741
C64   C     C_3   0.626058 0.738467 0.197439 -0.620746
H28   H     H_    0.603017 0.647303 0.238707 0.249111
H29   H     H_    0.665201 0.663340 0.179490 0.222904
H30   H     H_    0.647995 0.857274 0.242215 0.236600
H31   H     H_    0.598213 0.901623 0.067912 0.202568
H32   H     H_    0.543740 0.893060 0.137073 0.195463
I1    I     I_    0.419391 0.694695 0.265510 -0.437323
I2    I     I_    0.575525 0.287101 0.752312 -0.399595
I3    I     I_    0.080611 0.194688 0.734491 -0.437323
I4    I     I_    0.924473 0.787107 0.247690 -0.399589
I5    I     I_    0.184301 0.136735 0.266387 -0.337066
I6    I     I_    0.799804 0.790071 0.728970 -0.386387
I7    I     I_    0.315698 0.636740 0.733611 -0.337067
I8    I     I_    0.700196 0.290062 0.271027 -0.386377
I9    I     I_    0.734033 0.796354 0.478977 -0.307825
I10   I     I_    0.245778 0.130480 0.518686 -0.294703
I11   I     I_    0.765964 0.296353 0.521022 -0.307830
I12   I     I_    0.254220 0.630480 0.481313 -0.294704

loop_
_geom_bond_atom_site_label_1
_geom_bond_atom_site_label_2
_ccdc_geom_bond_type
O17   V3    S    
C55   H7    S    
O1    C5    A    
C57   C58   S    
C27   C31   A    
O19   V1    S    
O13   V1    S    
C61   H26   S    
O3    C7    A    
C48   C51   A    
C52   C56   A    
O4    V2    S    
O15   V3    S    
C63   C64   S    
C21   C29   A    
C50   H10   S    
O7    C3    A    
C49   H9    S    
C59   H21   S    
C60   H18   S    
C8    C17   S    
C36   C40   A    
O9    V1    S    
C14   H2    S    
O16   V4    S    
O4    C8    A    
C11   C20   A    
C64   H28   S    
C38   C46   A    
O1    V3    S    
C37   C45   A    
C62   H23   S    
C12   C19   A    
O2    V4    S    
C45   C46   A    
C25   I9    S    
O3    V1    S    
C61   H27   S    
C24   C32   A    
C1    O15   A    
C2    O16   A    
C28   C44   A    
C46   C49   A    
O2    C6    A    
C10   C59   S    
C61   C62   S    
O14   V2    S    
C47   C52   A    
C57   H17   S    
O5    V1    S    
C63   H31   S    
C23   C35   A    
C40   C44   A    
C5    C20   S    
O11   C7    A    
C6    C19   S    
C12   C63   S    
O12   C8    A    
C7    C18   S    
C9    C18   A    
C1    C24   S    
O10   V2    S    
C2    C23   S    
C53   H5    S    
C35   I4    S    
C43   C55   A    
C26   I10   S    
C35   C39   A    
C21   C33   A    
C34   C38   A    
O8    V4    S    
C12   C16   A    
O7    V3    S    
C24   C36   A    
C29   I6    S    
C25   C29   A    
O18   V4    S    
C15   H3    S    
C58   H15   S    
C64   H29   S    
C31   I8    S    
C54   H6    S    
C45   C50   A    
C9    C13   A    
C28   C32   A    
C33   I2    S    
C22   C30   A    
C52   H12   S    
C11   C15   A    
C47   C48   A    
C4    C21   S    
C50   C54   A    
C26   C42   A    
C49   C53   A    
O8    C4    A    
C64   H30   S    
O9    C5    A    
C10   C17   A    
C28   I12   S    
C40   C48   A    
C58   H14   S    
C25   C41   A    
C44   C56   A    
C41   C53   A    
O6    V2    S    
C60   H20   S    
C27   I11   S    
C22   C34   A    
C39   C47   A    
C13   C17   A    
C15   C19   A    
C26   C30   A    
C16   C20   A    
C3    O13   A    
C10   C14   A    
C51   H11   S    
C32   I7    S    
C56   H8    S    
O5    C1    A    
C9    C57   S    
O6    C2    A    
O11   V3    S    
O12   V4    S    
C36   I3    S    
C59   H22   S    
C62   H25   S    
O10   C6    A    
O20   V2    S    
C3    C22   S    
C51   C55   A    
C38   C42   A    
C37   C41   A    
C59   C60   S    
C62   H24   S    
C39   C43   A    
C13   H1    S    
C58   H13   S    
C42   C54   A    
C63   H32   S    
C14   C18   A    
C11   C61   S    
C33   C37   A    
C16   H4    S    
C23   C31   A    
C30   I5    S    
C60   H19   S    
C4    O14   A    
C57   H16   S    
C34   I1    S    
C27   C43   A    
