data_mof_unit_60955.cif
_audit_creation_date              2012-12-10T20:48:22-0500
_audit_creation_method            fapswitch 2.2
_symmetry_space_group_name_H-M    P1
_symmetry_Int_Tables_number       1
_space_group_crystal_system       triclinic
_cell_length_a                    16.032981
_cell_length_b                    19.253077
_cell_length_c                    19.233918
_cell_angle_alpha                 95.012022
_cell_angle_beta                  95.072597
_cell_angle_gamma                 90.51992
_cell_volume                      5890.49668518

loop_
_atom_site_label
_atom_site_type_symbol
_atom_type_description
_atom_site_fract_x
_atom_site_fract_y
_atom_site_fract_z
_atom_type_partial_charge
C1    C     C_R   0.508261 0.310830 0.492791 0.810757
C2    C     C_R   0.474498 0.805513 0.573921 0.073517
C3    C     C_R   0.440492 0.121536 0.486680 0.111739
C4    C     C_R   0.491143 0.689388 0.507150 0.827514
C5    C     C_R   0.437365 0.194543 0.490617 0.004341
C6    C     C_R   0.517723 0.087806 0.481782 0.215048
C7    C     C_R   0.511681 0.234265 0.489001 -0.110323
C8    C     C_R   0.588803 0.200319 0.482895 -0.103678
C9    C     C_R   0.591332 0.127050 0.478540 -0.099863
C10   C     C_R   0.489260 0.486791 0.232461 -0.124158
C11   C     C_R   0.564280 0.493439 0.199813 -0.091368
C12   C     C_1   0.111108 0.483402 0.483096 0.053679
C13   C     C_R   0.562222 0.489575 0.126261 0.058781
C14   C     C_R   0.484940 0.479831 0.084955 0.245103
C15   C     C_R   0.411139 0.469154 0.117137 -0.102836
C16   C     C_R   0.508477 0.508154 0.690198 0.814505
C17   C     C_R   0.412612 0.473830 0.190639 -0.095372
C18   C     C_R   0.441169 0.527540 0.875467 -0.098712
C19   C     C_R   0.437432 0.521429 0.801852 -0.098918
C20   C     C_R   0.518605 0.521738 0.915205 0.253306
C21   C     C_R   0.511955 0.512674 0.767718 -0.128114
C22   C     C_R   0.589851 0.510326 0.808335 -0.090143
C23   C     C_1   0.888730 0.518164 0.518662 -0.047888
C24   C     C_R   0.592663 0.514793 0.881950 0.044425
C25   C     C_R   0.491406 0.491766 0.309850 0.821894
C26   C     C_R   0.723945 0.509922 0.509945 0.825558
C27   C     C_R   0.275894 0.490056 0.490107 0.815603
C28   C     C_1   0.813451 0.514380 0.514574 -0.113238
C29   C     C_2   0.978942 0.522646 0.523599 0.122368
C30   C     C_2   0.021038 0.480739 0.480132 -0.153749
C31   C     C_1   0.508039 0.764676 0.382490 0.219736
C32   C     C_1   0.356366 0.522270 0.761777 0.225556
C33   C     C_1   0.366094 0.542770 0.910431 0.216985
C34   C     C_1   0.186384 0.486197 0.486094 -0.118398
C35   C     C_1   0.333178 0.454145 0.074032 0.217638
C36   C     C_1   0.334556 0.467735 0.222740 0.225061
C37   C     C_1   0.667744 0.505503 0.775431 0.190436
C38   C     C_1   0.644501 0.501566 0.241072 0.190611
C39   C     C_1   0.665033 0.240450 0.478933 0.215159
C40   C     C_1   0.669792 0.091411 0.471616 0.215656
C41   C     C_R   0.487864 0.766336 0.510277 -0.096784
C42   C     C_R   0.499066 0.801537 0.450146 -0.084426
C43   C     C_R   0.498927 0.874128 0.454372 -0.224119
C44   C     C_R   0.487393 0.913390 0.517894 0.243525
C45   C     C_R   0.473575 0.878792 0.577323 0.037797
H1    H     H_    0.987592 0.443649 0.441438 0.140855
H2    H     H_    0.363571 0.263421 0.541663 0.182363
H3    H     H_    0.324213 0.093328 0.443031 0.202597
H4    H     H_    0.336578 0.095050 0.531608 0.203807
H5    H     H_    0.407339 0.948641 0.633824 0.202280
H6    H     H_    0.511792 0.950741 0.657061 0.201912
H7    H     H_    0.406353 0.784683 0.653594 0.212951
H8    H     H_    0.511340 0.788588 0.674390 0.196057
H9    H     H_    0.506727 0.900030 0.407468 0.172099
H10   H     H_    0.677041 0.452371 0.107989 0.190937
H11   H     H_    0.669124 0.540401 0.109756 0.202040
H12   H     H_    0.699324 0.464591 0.909983 0.199317
H13   H     H_    0.709511 0.552674 0.913636 0.191746
H14   H     H_    0.000615 0.621489 0.565858 0.191775
H15   H     H_    0.005895 0.560837 0.624221 0.197192
H16   H     H_    0.341710 0.253158 0.453037 0.223802
N1    N     N_2   0.486438 0.987481 0.523240 -0.162110
N2    N     N_1   0.730002 0.501692 0.749222 -0.189220
N3    N     N_3   0.638580 0.492939 0.092732 -0.413972
N4    N     N_3   0.670725 0.511667 0.924228 -0.426013
N5    N     N_1   0.708570 0.508020 0.273955 -0.188033
N6    N     N_3   0.022450 0.571783 0.574904 -0.424579
N7    N     N_3   0.358041 0.227225 0.497632 -0.465326
N8    N     N_3   0.364815 0.080945 0.485588 -0.429286
N9    N     N_3   0.459935 0.917730 0.642242 -0.469135
N10   N     N_3   0.464166 0.770810 0.635737 -0.419999
N11   N     N_1   0.725807 0.272480 0.475767 -0.192066
N12   N     N_2   0.521911 0.014050 0.476598 -0.168327
N13   N     N_1   0.732428 0.062921 0.466093 -0.187096
N14   N     N_2   0.479942 0.478360 0.010677 -0.163571
N15   N     N_2   0.524040 0.524292 0.989274 -0.128472
N16   N     N_1   0.515182 0.735228 0.328306 -0.182646
N17   N     N_1   0.291705 0.522906 0.729907 -0.181638
N18   N     N_1   0.306084 0.555326 0.938071 -0.177435
N19   N     N_1   0.270858 0.441902 0.039818 -0.174063
N20   N     N_1   0.272286 0.462906 0.248281 -0.185186
O1    O     O_3   0.500000 0.500000 0.500000 -0.493484
O2    O     O_R   0.688130 0.469010 0.547620 -0.624418
O3    O     O_R   0.315580 0.449250 0.449280 -0.637213
O4    O     O_R   0.680710 0.547310 0.468650 -0.630077
O5    O     O_R   0.315580 0.534430 0.534450 -0.625603
O6    O     O_R   0.456860 0.545290 0.655940 -0.633078
O7    O     O_R   0.446440 0.450430 0.339790 -0.635459
O8    O     O_R   0.557290 0.347960 0.537250 -0.628914
O9    O     O_R   0.539410 0.656320 0.467010 -0.639186
O10   O     O_R   0.456880 0.340240 0.450910 -0.650571
O11   O     O_R   0.446420 0.655480 0.544820 -0.618558
O12   O     O_R   0.557280 0.467820 0.657110 -0.631214
O13   O     O_R   0.539420 0.536460 0.347160 -0.624400
Zn1   Zn    Zn3+2 0.430910 0.557800 0.557800 0.996092
Zn2   Zn    Zn3+2 0.574380 0.447110 0.559460 0.998327
Zn3   Zn    Zn3+2 0.563780 0.559000 0.446630 1.001105
Zn4   Zn    Zn3+2 0.430930 0.436090 0.436110 0.978888

loop_
_geom_bond_atom_site_label_1
_geom_bond_atom_site_label_2
_ccdc_geom_bond_type
C26   O2    A    
C31   C42   S    
C27   O5    A    
C41   C42   A    
H3    N8    S    
C43   C44   A    
C3    C6    A    
C6    C9    A    
C7    C8    A    
C16   O12   A    
C16   C21   S    
C23   C29   S    
C27   O3    A    
C3    N8    S    
C4    C41   S    
C2    C41   A    
C35   N19   T    
C20   N15   S    
C18   C19   A    
C25   O7    A    
C43   H9    S    
H14   N6    S    
C29   N6    S    
C38   N5    T    
H15   N6    S    
C8    C9    A    
O6    Zn1   S    
C16   O6    A    
C39   N11   T    
H11   N3    S    
N1    N12   D    
H6    N9    S    
O9    Zn3   S    
C12   C30   S    
C25   O13   A    
C1    O10   A    
H4    N8    S    
C13   C14   A    
O1    Zn4   S    
C5    N7    S    
C19   C32   S    
C15   C35   S    
C37   N2    T    
C31   N16   T    
C4    O9    A    
C27   C34   S    
O1    Zn2   S    
C20   C24   A    
C10   C11   A    
C5    C7    A    
C33   N18   T    
O13   Zn3   S    
C44   N1    S    
C22   C37   S    
C9    C40   S    
C11   C38   S    
N14   N15   D    
C29   C30   D    
H13   N4    S    
C36   N20   T    
H10   N3    S    
C23   C28   T    
C24   N4    S    
C10   C25   S    
C17   C36   S    
O12   Zn2   S    
C2    C45   A    
O1    Zn3   S    
C22   C24   A    
C42   C43   A    
C12   C34   T    
C2    N10   S    
H8    N10   S    
H2    N7    S    
C44   C45   A    
C6    N12   S    
C15   C17   A    
C1    O8    A    
O1    Zn1   S    
C19   C21   A    
C45   N9    S    
C1    C7    S    
C30   H1    S    
H12   N4    S    
C3    C5    A    
C26   C28   S    
O3    Zn4   S    
C14   N14   S    
O8    Zn2   S    
H5    N9    S    
H7    N10   S    
C11   C13   A    
H16   N7    S    
C13   N3    S    
C26   O4    A    
O2    Zn2   S    
C40   N13   T    
C18   C20   A    
O11   Zn1   S    
O10   Zn4   S    
C18   C33   S    
O4    Zn3   S    
O5    Zn1   S    
C32   N17   T    
C8    C39   S    
C14   C15   A    
C10   C17   A    
C21   C22   A    
O7    Zn4   S    
C4    O11   A    
