data_mof_unit_55877.cif
_audit_creation_date              2012-12-11T16:05:01-0500
_audit_creation_method            fapswitch 2.2
_symmetry_space_group_name_H-M    P1
_symmetry_Int_Tables_number       1
_space_group_crystal_system       triclinic
_cell_length_a                    10.691883
_cell_length_b                    10.65375
_cell_length_c                    16.935291
_cell_angle_alpha                 98.725825
_cell_angle_beta                  98.754557
_cell_angle_gamma                 61.281511
_cell_volume                      1665.18830688

loop_
_atom_site_label
_atom_site_type_symbol
_atom_type_description
_atom_site_fract_x
_atom_site_fract_y
_atom_site_fract_z
_atom_type_partial_charge
C1    C     C_R   0.354486 0.775147 0.398872 0.541027
C2    C     C_3   0.278742 0.749172 0.249699 -0.115619
C3    C     C_3   0.345572 0.813848 0.319703 0.063093
C4    C     C_R   0.404877 0.373310 0.356942 0.556584
C5    C     C_3   0.474040 0.772530 0.272822 -0.124071
C6    C     C_3   0.391856 0.922183 0.240332 -0.114937
C7    C     C_3   0.264692 0.961918 0.289164 -0.144016
C8    C     C_3   0.196798 0.898189 0.218573 -0.110123
C9    C     C_3   0.324531 0.857073 0.170829 0.061776
C10   C     C_3   0.459653 0.261964 0.775713 -0.113890
C11   C     C_3   0.396948 0.402855 0.735468 -0.111025
C12   C     C_3   0.695858 0.385114 0.251416 -0.148476
C13   C     C_3   0.337163 0.334253 0.663398 0.052159
C14   C     C_3   0.399892 0.194198 0.703036 -0.112870
C15   C     C_3   0.257262 0.254081 0.740767 -0.110241
C16   C     C_R   0.776652 0.376840 0.401743 0.553887
C17   C     C_3   0.194735 0.395139 0.699955 -0.121371
C18   C     C_3   0.254360 0.462622 0.773586 -0.122626
C19   C     C_3   0.317895 0.321909 0.812754 0.053925
C20   C     C_1   0.817415 0.341735 0.709586 -0.044758
C21   C     C_1   0.843841 0.314972 0.778092 -0.045675
C22   C     C_1   0.338245 0.811952 0.709780 -0.047455
C23   C     C_3   0.815618 0.350035 0.320720 0.079335
C24   C     C_1   0.313260 0.839182 0.778523 -0.045988
C25   C     C_R   0.891505 0.310812 0.090395 0.543477
C26   C     C_R   0.321536 0.302214 0.119469 0.540936
C27   C     C_R   0.294495 0.891881 0.088837 0.545200
C28   C     C_R   0.356646 0.771242 0.627223 0.544404
C29   C     C_R   0.884855 0.299565 0.860905 0.543988
C30   C     C_R   0.308052 0.294397 0.891885 0.541768
C31   C     C_R   0.280029 0.884775 0.859032 0.542950
C32   C     C_R   0.366991 0.345548 0.585194 0.555881
C33   C     C_R   0.774107 0.379450 0.629594 0.543013
C34   C     C_3   0.911696 0.207856 0.275769 -0.173130
C35   C     C_1   0.372568 0.359893 0.272574 -0.078836
C36   C     C_1   0.347828 0.341877 0.201635 -0.079240
C37   C     C_3   0.793140 0.242235 0.204842 -0.134940
C38   C     C_3   0.956874 0.595760 0.283975 -0.005570
C39   C     C_3   0.955092 0.729473 0.331729 -0.344089
C40   C     C_3   0.975690 0.287969 0.239753 -0.106168
C41   C     C_3   0.876309 0.429522 0.284494 0.288410
C42   C     C_3   0.757617 0.466163 0.215328 -0.138638
C43   C     C_3   0.854756 0.323861 0.170507 0.019733
C44   C     C_3   0.405673 0.709103 0.201508 -0.154049
Cr1   Cr    Cr6+3 0.608340 0.611040 0.520430 1.034588
Cr2   Cr    Cr6+3 0.287650 0.601120 0.489350 1.012779
Cr3   Cr    Cr6+3 0.604040 0.287870 0.490280 1.018030
Cr4   Cr    Cr6+3 0.054020 0.052700 0.970850 1.020032
Cr5   Cr    Cr6+3 0.059230 0.375120 0.993390 1.017840
Cr6   Cr    Cr6+3 0.374950 0.061200 0.992340 1.020670
H1    H     H_    0.581580 0.426070 0.259501 0.105358
H2    H     H_    0.196768 0.571804 0.804562 0.132159
H3    H     H_    0.758092 0.166245 0.169371 0.133246
H4    H     H_    0.967522 0.106305 0.305212 0.112657
H5    H     H_    0.089849 0.250746 0.231868 0.112488
H6    H     H_    0.699628 0.567360 0.185610 0.102467
H7    H     H_    0.232003 0.677669 0.254258 0.119848
H8    H     H_    0.457805 0.608490 0.161984 0.104373
H9    H     H_    0.586716 0.724772 0.299588 0.153823
H10   H     H_    0.882486 0.631272 0.228892 0.124380
H11   H     H_    0.066567 0.522093 0.266310 0.153794
H12   H     H_    0.438922 0.992678 0.233980 0.140573
H13   H     H_    0.028041 0.699986 0.387547 0.200882
H14   H     H_    0.989615 0.783640 0.295301 0.092034
H15   H     H_    0.844893 0.805529 0.347980 0.145362
H16   H     H_    0.212050 0.062476 0.328649 0.116097
H17   H     H_    0.082784 0.946170 0.194091 0.136524
H18   H     H_    0.454953 0.464228 0.731242 0.114902
H19   H     H_    0.567811 0.209559 0.808342 0.128988
H20   H     H_    0.457588 0.084599 0.672518 0.130757
H21   H     H_    0.199263 0.192794 0.745177 0.115088
H22   H     H_    0.087107 0.447522 0.666791 0.135734
O1    O     O_R   0.751220 0.499230 0.435170 -0.474129
O2    O     O_R   0.412990 0.180750 0.091610 -0.514896
O3    O     O_R   0.366620 0.943130 0.065760 -0.505998
O4    O     O_R   0.477220 0.727600 0.436870 -0.504192
O5    O     O_R   0.160510 0.906330 0.879210 -0.510738
O6    O     O_R   0.930190 0.179050 0.889450 -0.497653
O7    O     O_R   0.909140 0.398170 0.896710 -0.507863
O8    O     O_R   0.186190 0.363460 0.918830 -0.500963
O9    O     O_R   0.401670 0.173200 0.913310 -0.516938
O10   O     O_R   0.356120 0.936130 0.900470 -0.495232
O11   O     O_3   0.162740 0.163010 0.985530 -0.255286
O12   O     O_R   0.297880 0.469080 0.560050 -0.492100
O13   O     O_R   0.258650 0.745120 0.411470 -0.546578
O14   O     O_R   0.297070 0.467240 0.395960 -0.497215
O15   O     O_R   0.488830 0.252610 0.387790 -0.504566
O16   O     O_R   0.724400 0.302390 0.420980 -0.528687
O17   O     O_R   0.752100 0.501210 0.612190 -0.509073
O18   O     O_R   0.478040 0.729440 0.600970 -0.496802
O19   O     O_R   0.259530 0.747110 0.588490 -0.508656
O20   O     O_3   0.916372 0.527155 0.332437 -0.542566
O21   O     O_R   0.489720 0.254590 0.564810 -0.512910
O22   O     O_R   0.725220 0.304230 0.585080 -0.496671
O23   O     O_3   0.500010 0.500010 0.500020 -0.280699
O24   O     O_R   0.171830 0.913880 0.057510 -0.524123
O25   O     O_R   0.940690 0.186050 0.054730 -0.502253
O26   O     O_R   0.920470 0.405720 0.075010 -0.528069
O27   O     O_R   0.196690 0.370460 0.084120 -0.504361

loop_
_geom_bond_atom_site_label_1
_geom_bond_atom_site_label_2
_ccdc_geom_bond_type
C11   C18   S    
C34   C37   S    
C14   H20   S    
C41   C42   S    
C13   C32   S    
C35   C36   T    
C33   O22   A    
C25   C43   S    
C6    C9    S    
C2    H7    S    
C18   H2    S    
C7    C8    S    
C4    O15   A    
C15   C19   S    
C39   H14   S    
C12   C23   S    
C9    C27   S    
C31   O10   A    
Cr1   O4    S    
C34   C40   S    
C3    C7    S    
Cr6   O2    S    
C38   C39   S    
C4    O14   A    
C38   O20   S    
Cr1   O1    S    
C18   C19   S    
Cr4   O6    S    
C12   C37   S    
C12   C42   S    
C42   H6    S    
Cr5   O26   S    
C40   C43   S    
C29   O6    A    
C2    C44   S    
C8    C9    S    
Cr1   O17   S    
C26   O27   A    
C38   H11   S    
C30   O8    A    
C40   H5    S    
C32   O21   A    
C4    C35   S    
C22   C28   S    
C13   C14   S    
C39   H15   S    
C27   O24   A    
C27   O3    A    
Cr6   O11   S    
C31   O5    A    
C1    O13   A    
C32   O12   A    
C5    H9    S    
C16   O1    A    
Cr5   O11   S    
C10   C14   S    
C44   H8    S    
Cr2   O19   S    
C21   C29   S    
Cr5   O7    S    
C1    C3    S    
Cr3   O15   S    
Cr4   O5    S    
C37   C43   S    
Cr4   O25   S    
C33   O17   A    
Cr5   O27   S    
C29   O7    A    
C10   C19   S    
C23   C34   S    
C17   C18   S    
Cr3   O21   S    
Cr1   O18   S    
C17   H22   S    
C38   H10   S    
C20   C33   S    
C25   O25   A    
C40   C41   S    
C5    C44   S    
C34   H4    S    
C16   C23   S    
Cr2   O12   S    
C42   C43   S    
Cr1   O23   S    
C12   H1    S    
C15   H21   S    
C11   H18   S    
Cr6   O10   S    
C26   C36   S    
C15   C17   S    
C9    C44   S    
Cr4   O24   S    
C1    O4    A    
C2    C8    S    
C3    C5    S    
Cr5   O8    S    
C6    C7    S    
C39   H13   S    
C23   C41   S    
Cr4   O11   S    
C13   C17   S    
Cr3   O16   S    
Cr2   O13   S    
C30   O9    A    
C2    C3    S    
C24   C31   S    
C37   H3    S    
Cr6   O3    S    
C7    H16   S    
C11   C13   S    
C6    H12   S    
C5    C6    S    
C26   O2    A    
Cr3   O22   S    
C28   O19   A    
C22   C24   T    
Cr2   O23   S    
C10   C11   S    
C10   H19   S    
C25   O26   A    
C41   O20   S    
C20   C21   T    
C8    H17   S    
C16   O16   A    
Cr3   O23   S    
C14   C15   S    
C28   O18   A    
C19   C30   S    
Cr6   O9    S    
Cr2   O14   S    
