data_mof_unit_20069.cif
_audit_creation_date              2013-03-05T16:41:03-0500
_audit_creation_method            fapswitch 2.2
_symmetry_space_group_name_H-M    P1
_symmetry_Int_Tables_number       1
_space_group_crystal_system       triclinic
_cell_length_a                    18.76903
_cell_length_b                    18.457029
_cell_length_c                    19.015739
_cell_angle_alpha                 109.293492
_cell_angle_beta                  109.695448
_cell_angle_gamma                 108.499078
_cell_volume                      5127.69183691

loop_
_atom_site_label
_atom_site_type_symbol
_atom_site_description
_atom_site_fract_x
_atom_site_fract_y
_atom_site_fract_z
_atom_type_partial_charge
O1    O     O_R   0.408360 0.551710 0.460090 -0.639018
O2    O     O_R   0.408400 0.448280 0.356670 -0.588293
C1    C     C_R   0.380450 0.502343 0.380636 0.932171
O3    O     O_R   0.591600 0.643340 0.551710 -0.589106
O4    O     O_R   0.591630 0.539900 0.448290 -0.609531
C2    C     C_R   0.623899 0.620766 0.504286 0.954311
Zn1   Zn    Zn3+2 0.499980 0.569060 0.569060 1.094920
Zn2   Zn    Zn3+2 0.500020 0.430940 0.430940 1.094514
O5    O     O_R   0.591600 0.551720 0.643330 -0.581450
O6    O     O_R   0.591640 0.448290 0.539910 -0.588224
O7    O     O_R   0.408370 0.460100 0.551710 -0.651720
O8    O     O_R   0.408400 0.356660 0.448290 -0.592061
C3    C     C_R   0.618854 0.497809 0.619716 0.888768
C4    C     C_R   0.377393 0.380014 0.497535 0.894669
C5    C     C_R   0.742050 0.875821 0.784137 0.233250
C6    C     C_R   0.716654 0.831412 0.695997 -0.045641
C7    C     C_R   0.763370 0.790577 0.670089 -0.037433
C8    C     C_R   0.836412 0.797965 0.733889 0.365364
C9    C     C_R   0.862229 0.846405 0.820310 -0.121969
H1    H     H_    0.921024 0.856491 0.867997 0.187241
C10   C     C_R   0.815356 0.883731 0.846309 -0.071518
C11   C     C_R   0.821219 0.830013 0.581467 0.252762
C12   C     C_R   0.815606 0.814638 0.501752 -0.197643
C13   C     C_R   0.746886 0.738857 0.424701 0.020560
C14   C     C_R   0.689759 0.674388 0.429868 -0.141556
H2    H     H_    0.639690 0.613802 0.371508 0.188487
C15   C     C_R   0.692322 0.688905 0.507664 -0.041452
C16   C     C_R   0.756744 0.768764 0.584386 0.033042
C17   C     C_R   0.652246 0.711872 0.276973 0.238783
C18   C     C_R   0.641455 0.706284 0.197751 0.254665
C19   C     C_R   0.706507 0.706700 0.177015 -0.165802
H3    H     H_    0.699200 0.701077 0.116175 0.210064
C20   C     C_R   0.782303 0.716005 0.235183 -0.142365
H4    H     H_    0.831602 0.715764 0.218108 0.204295
C21   C     C_R   0.795499 0.727988 0.315803 -0.195030
H5    H     H_    0.856105 0.739506 0.361734 0.142057
C22   C     C_R   0.731322 0.726256 0.338026 -0.011202
C23   C     C_R   0.433467 0.785125 0.539976 -0.121737
C24   C     C_R   0.382825 0.696874 0.475772 -0.116696
H6    H     H_    0.348454 0.648847 0.489415 0.200685
C25   C     C_R   0.371951 0.670015 0.393156 -0.028785
C26   C     C_R   0.407336 0.735279 0.372271 0.265089
C27   C     C_R   0.455629 0.825101 0.435623 -0.108207
C28   C     C_R   0.469856 0.849887 0.520004 0.296196
C29   C     C_R   0.237895 0.571131 0.258091 -0.124292
H7    H     H_    0.232428 0.629389 0.263544 0.185822
C30   C     C_R   0.180073 0.492691 0.183445 -0.061353
C31   C     C_R   0.175383 0.412741 0.177108 -0.066249
C32   C     C_R   0.240693 0.416318 0.244509 -0.064558
C33   C     C_R   0.308090 0.499472 0.316543 -0.106398
C34   C     C_R   0.305368 0.577955 0.323684 0.040019
C35   C     C_R   0.051459 0.261833 0.114604 -0.124129
H8    H     H_    0.064034 0.274535 0.178145 0.199982
C36   C     C_R   0.985441 0.179890 0.045155 -0.094132
H9    H     H_    0.947605 0.131111 0.055923 0.178130
C37   C     C_R   0.968889 0.160701 0.962103 -0.048458
H10   H     H_    0.918305 0.097011 0.908322 0.175398
C38   C     C_R   0.017561 0.223992 0.948553 -0.104047
H11   H     H_    0.004506 0.209042 0.884135 0.149974
C39   C     C_R   0.082772 0.306446 0.018051 -0.143666
H12   H     H_    0.117814 0.355796 0.006821 0.103597
C40   C     C_R   0.101934 0.326000 0.102118 0.083600
C41   C     C_R   0.275517 0.560333 0.617179 0.282384
C42   C     C_R   0.281605 0.482616 0.603159 -0.086139
C43   C     C_R   0.239140 0.411989 0.518351 -0.105992
C44   C     C_R   0.185274 0.417176 0.449525 -0.019585
C45   C     C_R   0.181819 0.495222 0.464316 -0.133979
H13   H     H_    0.142371 0.499491 0.410719 0.228527
C46   C     C_R   0.226772 0.567087 0.546966 -0.146033
C47   C     C_R   0.178105 0.263487 0.505403 -0.093527
C48   C     C_R   0.186751 0.189593 0.503313 -0.047051
C49   C     C_R   0.261004 0.183429 0.507036 0.091065
C50   C     C_R   0.318652 0.243222 0.498019 -0.187643
H14   H     H_    0.375385 0.238419 0.500033 0.152525
C51   C     C_R   0.309148 0.314632 0.496289 -0.049985
C52   C     C_R   0.241153 0.327865 0.503968 -0.094287
C53   C     C_R   0.320187 0.143503 0.621173 -0.153815
C54   C     C_R   0.330555 0.079355 0.642170 0.175275
C55   C     C_R   0.305747 0.996078 0.577441 0.285085
C56   C     C_R   0.277439 0.980703 0.492224 -0.129741
C57   C     C_R   0.268378 0.044679 0.471858 -0.251716
H15   H     H_    0.244202 0.031060 0.405993 0.191946
C58   C     C_R   0.286453 0.124416 0.534347 0.056504
H16   H     H_    0.490423 0.566869 0.901524 0.244303
C59   C     C_R   0.576533 0.620272 0.859731 -0.199892
C60   C     C_R   0.624714 0.604533 0.818795 0.370525
C61   C     C_R   0.620236 0.520764 0.786136 -0.157787
C62   C     C_R   0.567369 0.453617 0.795325 -0.183851
C63   C     C_R   0.523010 0.472606 0.840359 0.396941
C64   C     C_R   0.525442 0.553800 0.868191 -0.290381
C65   C     C_R   0.750662 0.507053 0.823350 -0.216715
H17   H     H_    0.750514 0.514258 0.882364 0.181003
C66   C     C_R   0.816516 0.498325 0.810774 -0.081318
C67   C     C_R   0.821134 0.492110 0.736848 -0.038250
C68   C     C_R   0.753428 0.487618 0.671724 0.309499
C69   C     C_R   0.686402 0.497735 0.685305 -0.162573
C70   C     C_R   0.686353 0.509419 0.763064 0.049873
C71   C     C_R   0.973053 0.582778 0.767404 0.030150
C72   C     C_R   0.047290 0.586202 0.763272 -0.195632
H18   H     H_    0.103453 0.648613 0.790484 0.188105
C73   C     C_R   0.050382 0.509523 0.724763 -0.126242
H19   H     H_    0.108074 0.512976 0.722237 0.188110
C74   C     C_R   0.979818 0.428495 0.690718 -0.091154
H20   H     H_    0.984052 0.369734 0.663841 0.210230
C75   C     C_R   0.904672 0.423427 0.692437 -0.054655
H21   H     H_    0.849659 0.359808 0.663241 0.201473
C76   C     C_R   0.900361 0.499881 0.731311 0.098925
O9    O     O_R   0.051730 0.908360 0.460060 -0.662594
O10   O     O_R   0.948280 0.908380 0.356650 -0.571178
C77   C     C_R   0.000065 0.878470 0.381249 0.903723
O11   O     O_R   0.960110 0.908350 0.551690 -0.567711
O12   O     O_R   0.856660 0.908370 0.448270 -0.631482
C78   C     C_R   0.880441 0.880066 0.500237 0.868273
Zn3   Zn    Zn3+2 0.069070 0.999960 0.569030 1.108079
Zn4   Zn    Zn3+2 0.930930 0.999990 0.430930 1.087258
O13   O     O_R   0.051720 0.091580 0.643310 -0.562838
O14   O     O_R   0.948270 0.091600 0.539890 -0.594357
O15   O     O_R   0.143340 0.091590 0.551680 -0.638073
O16   O     O_R   0.039890 0.091610 0.448270 -0.575383
C79   C     C_R   0.998766 0.119921 0.618780 0.962420
C80   C     C_R   0.120051 0.120354 0.500192 0.970129
O17   O     O_R   0.051730 0.460050 0.908360 -0.649836
O18   O     O_R   0.948290 0.356630 0.908390 -0.579327
C81   C     C_R   0.999872 0.379933 0.879603 0.926830
O19   O     O_R   0.143340 0.551690 0.091580 -0.580316
O20   O     O_R   0.039900 0.448270 0.091610 -0.615113
C82   C     C_R   0.118687 0.496434 0.117338 0.853824
Zn5   Zn    Zn3+2 0.069070 0.569030 0.999960 1.011943
Zn6   Zn    Zn3+2 0.930930 0.430930 0.000000 1.089441
O21   O     O_R   0.051710 0.643320 0.091560 -0.596204
O22   O     O_R   0.948270 0.539900 0.091590 -0.616435
O23   O     O_R   0.960100 0.551680 0.908340 -0.651629
O24   O     O_R   0.856660 0.448270 0.908370 -0.567578
C83   C     C_R   0.000129 0.620659 0.119602 0.911815
C84   C     C_R   0.880845 0.498365 0.878013 0.930397
C85   C     C_R   0.073401 0.751046 0.539119 -0.018292
H22   H     H_    0.129355 0.791818 0.602637 0.211112
C86   C     C_R   0.074220 0.770297 0.474102 -0.041772
H23   H     H_    0.131193 0.824398 0.488034 0.154952
C87   C     C_R   0.002188 0.719815 0.391460 0.084975
C88   C     C_R   0.931828 0.645525 0.373389 -0.174962
H24   H     H_    0.876880 0.603538 0.309188 0.168875
C89   C     C_R   0.930910 0.626016 0.438244 -0.195317
H25   H     H_    0.875170 0.569437 0.423131 0.170123
C90   C     C_R   0.001460 0.678903 0.521745 0.014273
C91   C     C_R   0.999619 0.674942 0.253796 -0.200364
H26   H     H_    0.995349 0.614927 0.253882 0.177076
C92   C     C_R   0.003590 0.688692 0.187308 -0.033391
C93   C     C_R   0.013920 0.767810 0.187766 -0.014134
C94   C     C_R   0.013531 0.830668 0.252845 0.244787
C95   C     C_R   0.006963 0.815331 0.318713 -0.246781
C96   C     C_R   0.003768 0.738469 0.321495 -0.061215
C97   C     C_R   0.105789 0.834321 0.132120 0.019506
C98   C     C_R   0.113225 0.863565 0.074528 -0.228244
H27   H     H_    0.176181 0.901459 0.083561 0.153464
C99   C     C_R   0.039989 0.843459 0.004201 -0.069717
H28   H     H_    0.046941 0.866304 0.960138 0.173450
C100  C     C_R   0.958229 0.793148 0.989907 -0.089495
H29   H     H_    0.902312 0.778032 0.934916 0.208785
C101  C     C_R   0.947737 0.762818 0.045937 0.014630
C102  C     C_R   0.022404 0.785328 0.119405 0.104544
H30   H     H_    0.395304 0.578991 0.072355 0.229693
C103  C     C_R   0.281314 0.545094 0.961936 -0.096807
H31   H     H_    0.306578 0.609522 0.967734 0.175292
C104  C     C_R   0.198589 0.478923 0.895381 -0.022570
H32   H     H_    0.160982 0.492595 0.849535 0.141125
C105  C     C_R   0.164488 0.395667 0.888505 0.125728
C106  C     C_R   0.217587 0.378028 0.945289 -0.140178
H33   H     H_    0.194626 0.312959 0.938288 0.168136
C107  C     C_R   0.300064 0.444279 0.011957 -0.083850
H34   H     H_    0.339711 0.430624 0.056560 0.177179
C108  C     C_R   0.331587 0.527930 0.020668 0.025810
C109  C     C_R   0.076849 0.258516 0.751006 0.278984
C110  C     C_R   0.997538 0.188265 0.681613 -0.137350
C111  C     C_R   0.918008 0.184725 0.671038 -0.071252
C112  C     C_R   0.917705 0.246603 0.737416 -0.102043
C113  C     C_R   0.998210 0.315402 0.810005 -0.176600
C114  C     C_R   0.078022 0.323398 0.815129 -0.156185
C115  C     C_R   0.801771 0.126061 0.518619 0.390790
C116  C     C_R   0.729113 0.054972 0.441929 -0.162083
H35   H     H_    0.704608 0.061891 0.385554 0.183211
C117  C     C_R   0.690178 0.973710 0.436350 -0.147873
H36   H     H_    0.636911 0.918354 0.375824 0.184725
C118  C     C_R   0.719964 0.964040 0.508651 -0.041434
H37   H     H_    0.688554 0.901629 0.504837 0.216477
C119  C     C_R   0.791105 0.034695 0.585735 -0.201288
H38   H     H_    0.812527 0.027188 0.641571 0.213119
C120  C     C_R   0.835059 0.114993 0.590895 -0.045023
C121  C     C_2   0.843420 0.931249 0.938917 0.479938
H39   H     H_    0.803638 0.953928 0.959630 0.150030
O25   O     O_2   0.911617 0.945890 0.993634 -0.572455
N1    N     N_R   0.522624 0.940431 0.585594 0.211116
O26   O     O_R   0.488881 0.982073 0.620649 -0.297322
O27   O     O_R   0.602201 0.983735 0.604236 -0.384493
C122  C     C_2   0.448866 0.808845 0.628322 0.543618
H40   H     H_    0.482522 0.876760 0.677780 0.162831
O28   O     O_2   0.425734 0.752363 0.647778 -0.544805
N2    N     N_R   0.386160 0.711375 0.284654 0.204551
O29   O     O_R   0.386093 0.642055 0.237134 -0.317719
O30   O     O_R   0.351222 0.748761 0.247776 -0.371984
C123  C     C_2   0.488240 0.892478 0.411434 0.589684
H41   H     H_    0.499392 0.875432 0.357393 0.087995
O31   O     O_2   0.499786 0.966597 0.449001 -0.481813
C124  C     C_2   0.238655 0.332435 0.236541 0.406044
H42   H     H_    0.220900 0.281005 0.175211 0.093133
O32   O     O_2   0.252815 0.318534 0.296953 -0.590714
N3    N     N_R   0.695756 0.916996 0.811093 0.163539
O33   O     O_R   0.619724 0.869619 0.798147 -0.305192
O34   O     O_R   0.730227 0.001968 0.849803 -0.395789
C125  C     C_2   0.222571 0.649143 0.558984 0.497071
H43   H     H_    0.256748 0.705804 0.622196 0.168804
O35   O     O_2   0.181561 0.655065 0.497806 -0.572771
N4    N     N_R   0.319315 0.632476 0.702516 0.229544
O36   O     O_R   0.402629 0.668629 0.749785 -0.322686
O37   O     O_R   0.275206 0.657868 0.735237 -0.379248
C126  C     C_2   0.328533 0.472560 0.676830 0.543958
H44   H     H_    0.360195 0.432812 0.670218 0.107699
O38   O     O_2   0.329807 0.506011 0.744695 -0.502114
C127  C     C_2   0.126245 0.339240 0.363171 0.400022
H45   H     H_    0.135426 0.282093 0.345437 0.127251
O39   O     O_2   0.063855 0.336643 0.311808 -0.577655
C128  C     C_2   0.647314 0.837861 0.635032 0.480663
H46   H     H_    0.619326 0.875969 0.659112 0.104467
O40   O     O_2   0.620582 0.802143 0.558076 -0.602963
C129  C     C_2   0.108721 0.278833 0.517595 0.487976
H47   H     H_    0.080270 0.310810 0.487663 0.089225
O41   O     O_2   0.085596 0.259614 0.564596 -0.514568
C130  C     C_2   0.340476 0.227696 0.690309 0.608944
H48   H     H_    0.352002 0.235384 0.752678 0.179382
O42   O     O_2   0.346216 0.290485 0.679658 -0.593861
N5    N     N_R   0.367239 0.098952 0.729901 0.227592
O43   O     O_R   0.321949 0.102440 0.768605 -0.328984
O44   O     O_R   0.440398 0.100418 0.766716 -0.235181
N6    N     N_R   0.302986 0.926692 0.598089 0.208356
O45   O     O_R   0.286187 0.924212 0.658543 -0.344823
O46   O     O_R   0.309364 0.861395 0.552588 -0.370422
C131  C     C_2   0.250231 0.896272 0.421068 0.564978
H49   H     H_    0.182961 0.855361 0.371994 0.065135
O47   O     O_2   0.303267 0.873583 0.415113 -0.473417
C132  C     C_2   0.583152 0.707563 0.901846 0.632680
H50   H     H_    0.532168 0.712234 0.914691 0.129059
O48   O     O_2   0.646775 0.775142 0.926666 -0.514166
N7    N     N_R   0.675146 0.672531 0.807917 0.225346
O49   O     O_R   0.751545 0.686983 0.819170 -0.443831
O50   O     O_R   0.638792 0.710367 0.773238 -0.341949
N8    N     N_R   0.892280 0.767416 0.713034 0.240706
O51   O     O_R   0.862578 0.700927 0.639204 -0.376545
O52   O     O_R   0.974793 0.808926 0.766972 -0.351951
C133  C     C_2   0.558912 0.364484 0.755419 0.494083
H51   H     H_    0.577375 0.346669 0.706604 0.063765
O53   O     O_2   0.532261 0.310031 0.775968 -0.493080
N9    N     N_R   0.480411 0.413759 0.864646 0.232840
O54   O     O_R   0.525071 0.390898 0.913194 -0.299872
O55   O     O_R   0.407380 0.405058 0.860812 -0.311965
N10   N     N_R   0.754705 0.475413 0.593499 0.209682
O56   O     O_R   0.757523 0.407218 0.547853 -0.348458
O57   O     O_R   0.752448 0.531705 0.567201 -0.348550
C134  C     C_2   0.975868 0.667182 0.811735 0.499288
H52   H     H_    0.036352 0.727779 0.846173 0.084273
O58   O     O_2   0.911625 0.670893 0.809943 -0.565182
C135  C     C_2   0.999593 0.657223 0.589522 0.508711
H53   H     H_    0.944061 0.600222 0.574462 0.114451
O59   O     O_2   0.059769 0.702713 0.662955 -0.539178
N11   N     N_R   0.020662 0.910478 0.252430 0.210132
O60   O     O_R   0.960725 0.908127 0.190657 -0.339517
O61   O     O_R   0.084155 0.985895 0.316444 -0.450702
C136  C     C_2   0.186925 0.855679 0.203541 0.405251
H54   H     H_    0.246473 0.913651 0.227404 0.089258
O62   O     O_2   0.189500 0.806477 0.232957 -0.536148
N12   N     N_R   0.891925 0.908451 0.659614 0.182068
O63   O     O_R   0.876525 0.961238 0.709639 -0.478979
O64   O     O_R   0.968805 0.916069 0.690368 -0.286872
C137  C     C_2   0.857691 0.711041 0.026045 0.401834
H55   H     H_    0.804434 0.706787 0.975804 0.122616
O65   O     O_2   0.841070 0.671551 0.063588 -0.609170
N13   N     N_R   0.156908 0.266676 0.754204 0.216695
O66   O     O_R   0.200573 0.325882 0.740667 -0.297831
O67   O     O_R   0.194124 0.228574 0.787576 -0.344207
C138  C     C_2   0.832396 0.236559 0.728766 0.443247
H56   H     H_    0.776949 0.171739 0.694404 0.134231
O68   O     O_2   0.821757 0.299606 0.756635 -0.578660
N14   N     N_R   0.842977 0.206969 0.520457 0.168444
O69   O     O_R   0.796542 0.240045 0.490349 -0.351851
O70   O     O_R   0.920553 0.234624 0.530899 -0.370185
N15   N     N_R   0.580041 0.693982 0.291127 0.232905
O71   O     O_R   0.516787 0.614061 0.247838 -0.368522
O72   O     O_R   0.583703 0.752150 0.355709 -0.415296
N16   N     N_R   0.566154 0.702938 0.139569 0.209326
O73   O     O_R   0.525986 0.739905 0.168487 -0.345565
O74   O     O_R   0.544232 0.673492 0.059084 -0.441100

loop_
_geom_bond_atom_site_label_1
_geom_bond_atom_site_label_2
_geom_bond_distance
_ccdc_geom_bond_type
C100  C101  1.397478 A    
C61   C62   1.425014 A    
N10   O57   1.299354 A    
C115  N14   1.429601 S    
C66   C67   1.406669 A    
C63   N9    1.435811 S    
C73   H19   1.082667 S    
C123  O31   1.220844 D    
C50   H14   1.085268 S    
C6    C128  1.491452 S    
C103  H31   1.082308 S    
C47   C129  1.491318 S    
C5    N3    1.434263 S    
C27   C28   1.415583 A    
O22   C83   1.287688 A    
C130  O42   1.219118 D    
C57   H15   1.083636 S    
C124  O32   1.220014 D    
C93   C94   1.392930 A    
O18   C81   1.292474 A    
C24   C25   1.400181 A    
Zn2   O6    2.040509 S    
C109  C110  1.399609 A    
C37   H10   1.082599 S    
Zn1   O7    2.023511 S    
C75   C76   1.402749 A    
C133  H51   1.085028 S    
C104  H32   1.079624 S    
C43   C52   1.500207 S    
H16   C64   1.082757 S    
C15   C16   1.421975 A    
C99   H28   1.081262 S    
C9    C10   1.394879 A    
C126  O38   1.220845 D    
N8    O52   1.301739 A    
O1    C1    1.281141 A    
C88   C89   1.398101 A    
O4    C2    1.292195 A    
C110  C111  1.414200 A    
O7    C4    1.276282 A    
C65   C66   1.382385 A    
C107  H34   1.082347 S    
C29   C34   1.380453 A    
C38   C39   1.399746 A    
C5    C6    1.419123 A    
C71   C72   1.404566 A    
C28   N1    1.438405 S    
C89   C90   1.402065 A    
C118  H37   1.079235 S    
C39   C40   1.401413 A    
C8    C9    1.397220 A    
C25   C26   1.426917 A    
C54   N5    1.434215 S    
O9    Zn3   2.034521 S    
C121  O25   1.221066 D    
O5    C3    1.279042 A    
C117  H36   1.080371 S    
O12   C78   1.280803 A    
C74   H20   1.076821 S    
N7    O49   1.298412 A    
C129  O41   1.219149 D    
C111  C120  1.495289 S    
C36   H9    1.082073 S    
C106  H33   1.083062 S    
C10   C121  1.486205 S    
C99   C100  1.392413 A    
C125  H43   1.083476 S    
C117  C118  1.393564 A    
C68   C69   1.421383 A    
C35   C36   1.398131 A    
N11   O60   1.300720 A    
Zn4   O14   2.034476 S    
C7    C8    1.421567 A    
C27   C123  1.489119 S    
O19   Zn5   2.023740 S    
C95   C96   1.420090 A    
C19   C20   1.391253 A    
N2    O29   1.299122 A    
C137  O65   1.219805 D    
C17   C18   1.414039 A    
C87   C96   1.487379 S    
C98   C99   1.387404 A    
C85   C90   1.404650 A    
C53   C54   1.416105 A    
C49   C50   1.382164 A    
C62   C63   1.420134 A    
C11   N12   1.447497 S    
N16   O74   1.300390 A    
C29   C30   1.376684 A    
C44   C45   1.400789 A    
C32   C124  1.491623 S    
C73   C74   1.391114 A    
C11   C16   1.401468 A    
C131  H49   1.081816 S    
O18   Zn6   2.027055 S    
C18   N16   1.439053 S    
C50   C51   1.394265 A    
O21   C83   1.278645 A    
N6    O46   1.299138 A    
O3    Zn1   2.032432 S    
Zn5   O23   2.033438 S    
C11   C12   1.406606 A    
C130  H48   1.081618 S    
C57   C58   1.396015 A    
C1    C33   1.459002 S    
C116  C117  1.393532 A    
C129  H47   1.083777 S    
C91   C92   1.389969 A    
N4    O37   1.301132 A    
N16   O73   1.301628 A    
C36   C37   1.394988 A    
C67   C76   1.490994 S    
C133  O53   1.218707 D    
C3    C69   1.448910 S    
N3    O33   1.300293 A    
C30   C31   1.411627 A    
C41   C46   1.412169 A    
C26   N2    1.444002 S    
C20   H4    1.079719 S    
C87   C88   1.405655 A    
C97   C136  1.479903 S    
C74   C75   1.395862 A    
C77   C95   1.439703 S    
N13   O66   1.300705 A    
C112  C138  1.496370 S    
C127  H45   1.084146 S    
C135  O59   1.221021 D    
C60   C61   1.425161 A    
C85   H22   1.082106 S    
C115  C120  1.417307 A    
O20   Zn6   2.033432 S    
N7    O50   1.300575 A    
C14   H2    1.084107 S    
C59   C60   1.414170 A    
C53   C58   1.421422 A    
C41   N4    1.435424 S    
C71   C76   1.422583 A    
O13   C79   1.287509 A    
C97   C102  1.424073 A    
C39   H12   1.072793 S    
C45   C46   1.399927 A    
C21   H5    1.075238 S    
N1    O27   1.301409 A    
C56   C131  1.468308 S    
C134  O58   1.219016 D    
C51   C52   1.417564 A    
C23   C28   1.412885 A    
N15   O71   1.300215 A    
C127  O39   1.220674 D    
C109  N13   1.439811 S    
C8    N8    1.443062 S    
C31   C40   1.504261 S    
C2    C15   1.449543 S    
Zn3   O15   2.023590 S    
N11   O61   1.299755 A    
N4    O36   1.300976 A    
C18   C19   1.402438 A    
Zn2   O8    2.032435 S    
C126  H44   1.083152 S    
C69   C70   1.422396 A    
C132  O48   1.220828 D    
C33   C34   1.428665 A    
N14   O69   1.300888 A    
C29   H7    1.086743 S    
C67   C68   1.399962 A    
O11   C78   1.283256 A    
C105  C106  1.406426 A    
C35   H8    1.075224 S    
C13   C14   1.383424 A    
C45   H13   1.083781 S    
C128  O40   1.218813 D    
C103  C108  1.396848 A    
C23   C122  1.484536 S    
C98   H27   1.083640 S    
C81   C113  1.441548 S    
C47   C48   1.413167 A    
O16   C80   1.290741 A    
C86   C87   1.402341 A    
C119  H38   1.073791 S    
C91   C96   1.383901 A    
C85   C86   1.398098 A    
C112  C113  1.421005 A    
C72   C73   1.392308 A    
N13   O67   1.301170 A    
C32   C33   1.429265 A    
Zn4   O16   2.033004 S    
N5    O44   1.300876 A    
C47   C52   1.401376 A    
C100  H29   1.074466 S    
Zn6   O24   2.023868 S    
C55   C56   1.417331 A    
O14   C79   1.277124 A    
O3    C2    1.278609 A    
C93   C102  1.484683 S    
N6    O45   1.301144 A    
O17   C81   1.275373 A    
N10   O56   1.300664 A    
C63   C64   1.394328 A    
C68   N10   1.438764 S    
C65   H17   1.086620 S    
C136  O62   1.218698 D    
C116  H35   1.082791 S    
C21   C22   1.399330 A    
N9    O55   1.301981 A    
C91   H26   1.085536 S    
C79   C110  1.435401 S    
C13   C22   1.494990 S    
Zn1   O5    2.016199 S    
N8    O51   1.299082 A    
C31   C32   1.408332 A    
C17   N15   1.427834 S    
C132  H50   1.085702 S    
C103  C104  1.398158 A    
C54   C55   1.415526 A    
C7    C16   1.493832 S    
N14   O70   1.298668 A    
C42   C126  1.488848 S    
C19   H3    1.082930 S    
O2    Zn2   2.016198 S    
C55   N6    1.449419 S    
O8    C4    1.288874 A    
C56   C57   1.399438 A    
C66   C84   1.432073 S    
O6    C3    1.289947 A    
Zn5   O21   2.026842 S    
O4    Zn2   2.023508 S    
Zn3   O13   2.010436 S    
C59   C64   1.392296 A    
O9    C77   1.274849 A    
O17   Zn5   2.018188 S    
C30   C82   1.429729 S    
C41   C42   1.418986 A    
C25   C34   1.500157 S    
C115  C116  1.402715 A    
C14   C15   1.394448 A    
C83   C92   1.435998 S    
C75   H21   1.080086 S    
C125  O35   1.221324 D    
C118  C119  1.394548 A    
C123  H41   1.082544 S    
C136  H54   1.085533 S    
N1    O26   1.300398 A    
C59   C132  1.485209 S    
C9    H1    1.076261 S    
C131  O47   1.219942 D    
O2    C1    1.292813 A    
C65   C70   1.380893 A    
C138  H56   1.084577 S    
N3    O34   1.300897 A    
N15   O72   1.300201 A    
C111  C112  1.397833 A    
C35   C40   1.407815 A    
C88   H24   1.083322 S    
C4    C51   1.441261 S    
C138  O68   1.219061 D    
C90   C135  1.478093 S    
C12   C78   1.433193 S    
C60   N7    1.436511 S    
C71   C134  1.479942 S    
C23   C24   1.402985 A    
C5    C10   1.405052 A    
C107  C108  1.395182 A    
C109  C114  1.386205 A    
O20   C82   1.267722 A    
C42   C43   1.421408 A    
C106  C107  1.396552 A    
O23   C84   1.277312 A    
C20   C21   1.394900 A    
C44   C127  1.481422 S    
C37   C38   1.394951 A    
C134  H52   1.085216 S    
O11   Zn3   2.032916 S    
N12   O64   1.300769 A    
C92   C93   1.407427 A    
C43   C44   1.412994 A    
C72   H18   1.083403 S    
C121  H39   1.084196 S    
C101  C102  1.419737 A    
C38   H11   1.080803 S    
C49   C58   1.490295 S    
C86   H23   1.080448 S    
O10   Zn4   2.010312 S    
C12   C13   1.412033 A    
C122  H40   1.082990 S    
C24   H6    1.082195 S    
C48   C80   1.445154 S    
Zn6   O22   2.017974 S    
C48   C49   1.414100 A    
C105  C114  1.493301 S    
H30   C108  1.079263 S    
C124  H42   1.085343 S    
C53   C130  1.491701 S    
C104  C105  1.405256 A    
C113  C114  1.423771 A    
C26   C27   1.418427 A    
C17   C22   1.416315 A    
N5    O43   1.301336 A    
O19   C82   1.295188 A    
O24   C84   1.287325 A    
C135  H53   1.085858 S    
C94   C95   1.407261 A    
N9    O54   1.301228 A    
O1    Zn1   2.040505 S    
N2    O30   1.301861 A    
C46   C125  1.487063 S    
C101  C137  1.489289 S    
C61   C70   1.499140 S    
C97   C98   1.398576 A    
O10   C77   1.293425 A    
C119  C120  1.400057 A    
C128  H46   1.078935 S    
O15   C80   1.278201 A    
O12   Zn4   2.023338 S    
N12   O63   1.299737 A    
C89   H25   1.083225 S    
C6    C7    1.429941 A    
C94   N11   1.439152 S    
C62   C133  1.495207 S    
C122  O28   1.219862 D    
C137  H55   1.083974 S    
