data_mof_unit_24933.cif
_audit_creation_date              2012-12-10T16:42:57-0500
_audit_creation_method            fapswitch 2.2
_symmetry_space_group_name_H-M    P1
_symmetry_Int_Tables_number       1
_space_group_crystal_system       triclinic
_cell_length_a                    7.462784
_cell_length_b                    8.68414
_cell_length_c                    12.969482
_cell_angle_alpha                 88.065075
_cell_angle_beta                  79.227884
_cell_angle_gamma                 102.741947
_cell_volume                      802.908256757

loop_
_atom_site_label
_atom_site_type_symbol
_atom_type_description
_atom_site_fract_x
_atom_site_fract_y
_atom_site_fract_z
_atom_type_partial_charge
C1    C     C_R   0.452848 0.199736 0.503205 0.888136
C2    C     C_R   0.547152 0.800264 0.496795 0.888136
C3    C     C_R   0.466456 0.495754 0.701373 0.803376
C4    C     C_R   0.533544 0.504246 0.298627 0.803375
C5    C     C_R   0.553047 0.508317 0.184981 -0.045428
C6    C     C_R   0.446953 0.491683 0.815019 -0.045428
C7    C     C_R   0.249566 0.452558 0.988842 -0.222232
C8    C     C_R   0.750434 0.547442 0.011158 -0.222232
C9    C     C_R   0.267976 0.457392 0.880294 -0.194619
C10   C     C_R   0.732024 0.542608 0.119706 -0.194619
C11   C     C_R   0.607514 0.521448 0.858775 -0.268665
C12   C     C_R   0.392486 0.478552 0.141225 -0.268665
C13   C     C_R   0.590184 0.517357 0.967242 0.178558
C14   C     C_R   0.409816 0.482643 0.032758 0.178558
C15   C     C_2   0.426266 0.031916 0.504733 -0.370206
C16   C     C_2   0.573734 0.968084 0.495267 -0.370206
Cu1   Cu    Cu3+1 0.686350 0.517570 0.488220 0.948154
Cu2   Cu    Cu3+1 0.313650 0.482430 0.511780 0.948154
H1    H     H_    0.857863 0.566543 0.152365 0.157302
H2    H     H_    0.142137 0.433457 0.847635 0.157302
H3    H     H_    0.110710 0.425109 0.038285 0.139260
H4    H     H_    0.889290 0.574890 0.961715 0.139260
H5    H     H_    0.934021 0.376523 0.583116 0.223417
H6    H     H_    0.065979 0.623477 0.416884 0.223417
H7    H     H_    0.284041 0.960511 0.513656 0.179726
H8    H     H_    0.715959 0.039489 0.486344 0.179726
N1    N     N_2   0.033570 0.455950 0.529530 -0.219869
N2    N     N_2   0.966430 0.544050 0.470470 -0.219869
O1    O     O_R   0.621060 0.286250 0.492350 -0.582585
O2    O     O_R   0.378940 0.713750 0.507650 -0.582585
O3    O     O_R   0.306310 0.256580 0.512240 -0.585884
O4    O     O_R   0.693690 0.743420 0.487760 -0.585884
O5    O     O_R   0.631800 0.512400 0.642670 -0.593720
O6    O     O_R   0.368200 0.487600 0.357330 -0.593720
O7    O     O_R   0.317060 0.482730 0.662570 -0.590347
O8    O     O_R   0.682940 0.517270 0.337430 -0.590347
H9    H     H_    0.254020 0.451809 0.191311 0.155625
H10   H     H_    0.745980 0.548191 0.808689 0.155625

loop_
_geom_bond_atom_site_label_1
_geom_bond_atom_site_label_2
_ccdc_geom_bond_type
C11   H10   S    
C8    H4    S    
C4    O8    A    
C8    C13   A    
C1    C15   S    
Cu1   O8    S    
H5    N1    S    
C2    C16   S    
Cu2   O7    S    
C9    H2    S    
C3    O7    A    
C10   H1    S    
C2    O2    A    
C3    C6    S    
C6    C9    A    
C1    O1    A    
Cu1   Cu2   S    
C5    C10   A    
C13   C14   A    
C11   C13   A    
C6    C11   A    
Cu1   O5    S    
Cu2   O2    S    
C2    O4    A    
C12   C14   A    
Cu2   O6    S    
C16   H8    S    
C4    O6    A    
C15   H7    S    
C3    O5    A    
C15   C16   D    
C1    O3    A    
Cu1   O1    S    
C5    C12   A    
C8    C10   A    
C12   H9    S    
N1    N2    D    
C7    C9    A    
Cu1   O4    S    
Cu2   O3    S    
C7    H3    S    
Cu1   N2    S    
C7    C14   A    
Cu2   N1    S    
H6    N2    S    
C4    C5    S    
