data_mof_unit_59830.cif
_audit_creation_date              2012-12-10T17:36:42-0500
_audit_creation_method            fapswitch 2.2
_symmetry_space_group_name_H-M    P1
_symmetry_Int_Tables_number       1
_space_group_crystal_system       triclinic
_cell_length_a                    11.986263
_cell_length_b                    12.880153
_cell_length_c                    15.724521
_cell_angle_alpha                 90.189216
_cell_angle_beta                  86.687394
_cell_angle_gamma                 93.238692
_cell_volume                      2419.70153077

loop_
_atom_site_label
_atom_site_type_symbol
_atom_type_description
_atom_site_fract_x
_atom_site_fract_y
_atom_site_fract_z
_atom_type_partial_charge
C1    C     C_R   0.521938 0.700446 0.498374 0.879116
C2    C     C_R   0.478062 0.299554 0.501625 0.879115
C3    C     C_R   0.647965 0.969974 0.514309 -0.229287
C4    C     C_R   0.352035 0.030026 0.485684 -0.229284
C5    C     C_R   0.639308 0.862556 0.509964 -0.206720
C6    C     C_R   0.360691 0.137444 0.490032 -0.206717
C7    C     C_R   0.440000 0.867591 0.488541 -0.290825
C8    C     C_R   0.560000 0.132409 0.511453 -0.290826
C9    C     C_R   0.447641 0.974246 0.493386 0.186432
C10   C     C_R   0.552359 0.025754 0.506607 0.186436
C11   C     C_R   0.953768 0.398580 0.424108 -0.336143
C12   C     C_R   0.046232 0.601420 0.575892 -0.336143
C13   C     C_R   0.837647 0.408776 0.431075 0.026278
C14   C     C_R   0.162353 0.591223 0.568925 0.026280
C15   C     C_R   0.858728 0.544409 0.532275 -0.049385
C16   C     C_R   0.141272 0.455591 0.467725 -0.049381
C17   C     C_R   0.976012 0.537014 0.527438 0.094257
C18   C     C_R   0.023988 0.462986 0.472562 0.094256
C19   C     C_R   0.500589 0.499875 0.662064 0.910226
C20   C     C_R   0.499411 0.500126 0.337936 0.910220
C21   C     C_3   0.476920 0.596381 0.024076 0.063476
C22   C     C_3   0.523093 0.403647 0.975924 0.063475
C23   C     C_3   0.579073 0.568462 0.966037 -0.211997
C24   C     C_3   0.420940 0.431566 0.033962 -0.211988
C25   C     C_1   0.501599 0.497689 0.750841 -0.198500
C26   C     C_1   0.498403 0.502319 0.249159 -0.198496
C27   C     C_3   0.399341 0.522496 0.973550 -0.210322
C28   C     C_3   0.600671 0.477532 0.026450 -0.210331
C29   C     C_3   0.501714 0.493854 0.916865 0.150745
C30   C     C_3   0.498299 0.506173 0.083134 0.150740
C31   C     C_1   0.501982 0.495373 0.826062 -0.092133
C32   C     C_1   0.498023 0.504643 0.173937 -0.092134
C33   C     C_R   0.464982 0.188234 0.502012 -0.050194
C34   C     C_R   0.535018 0.811766 0.497985 -0.050198
H1    H     H_    0.644142 0.624310 0.936908 0.141948
H2    H     H_    0.355869 0.375718 0.063090 0.141943
H3    H     H_    0.683293 0.459511 0.049430 0.144313
H4    H     H_    0.316719 0.540517 0.950570 0.144302
H5    H     H_    0.640559 0.171767 0.521741 0.161877
H6    H     H_    0.359440 0.828233 0.478254 0.161881
H7    H     H_    0.286822 0.180546 0.482600 0.158882
H8    H     H_    0.713177 0.819453 0.517396 0.158883
H9    H     H_    0.728591 0.009202 0.524225 0.138694
H10   H     H_    0.271409 0.990798 0.475768 0.138696
H11   H     H_    0.179734 0.399275 0.425818 0.122000
H12   H     H_    0.820266 0.600725 0.574182 0.122001
H13   H     H_    0.216460 0.641041 0.606197 0.132283
H14   H     H_    0.783540 0.358959 0.393803 0.132284
H15   H     H_    0.988188 0.340903 0.381348 0.142768
H16   H     H_    0.011812 0.659097 0.618652 0.142767
N1    N     N_R   0.207800 0.519340 0.515560 -0.100762
N2    N     N_R   0.792200 0.480660 0.484440 -0.100762
O1    O     O_R   0.421700 0.658830 0.504150 -0.630911
O2    O     O_R   0.578300 0.341170 0.495850 -0.630914
O3    O     O_R   0.609310 0.646410 0.494170 -0.627703
O4    O     O_R   0.390690 0.353590 0.505830 -0.627702
O5    O     O_R   0.406210 0.506220 0.628210 -0.614993
O6    O     O_R   0.593790 0.493780 0.371790 -0.614997
O7    O     O_R   0.593830 0.493800 0.618230 -0.616395
O8    O     O_R   0.406170 0.506200 0.381770 -0.616388
Zn1   Zn    Zn3+2 0.374730 0.508290 0.506660 0.942752
Zn2   Zn    Zn3+2 0.625270 0.491710 0.493340 0.942746
C35   C     C_R   0.450483 0.707596 0.042639 0.113651
C36   C     C_R   0.429429 0.772687 0.974507 -0.172870
C37   C     C_R   0.404139 0.876064 0.989288 -0.138447
C38   C     C_R   0.400176 0.915584 0.072142 -0.112158
C39   C     C_R   0.421707 0.851802 0.140269 -0.146295
C40   C     C_R   0.446732 0.748231 0.125781 -0.144260
H17   H     H_    0.432354 0.743196 0.909867 0.131085
H18   H     H_    0.387808 0.925594 0.936463 0.137232
H19   H     H_    0.380762 0.995685 0.083515 0.131828
H20   H     H_    0.419028 0.882634 0.204437 0.133844
H21   H     H_    0.463279 0.701224 0.179687 0.136608
C41   C     C_R   0.549537 0.292433 0.957371 0.113647
C42   C     C_R   0.570487 0.227330 0.025515 -0.172882
C43   C     C_R   0.595782 0.123954 0.010744 -0.138480
C44   C     C_R   0.599856 0.084446 0.927889 -0.112125
C45   C     C_R   0.578443 0.148243 0.859749 -0.146281
C46   C     C_R   0.553410 0.251814 0.874227 -0.144275
H22   H     H_    0.567472 0.256809 0.090158 0.131092
H23   H     H_    0.612031 0.074415 0.063579 0.137242
H24   H     H_    0.619268 0.004344 0.916525 0.131841
H25   H     H_    0.581220 0.117424 0.795578 0.133842
H26   H     H_    0.536959 0.298835 0.820315 0.136623

loop_
_geom_bond_atom_site_label_1
_geom_bond_atom_site_label_2
_ccdc_geom_bond_type
O6    Zn2   S    
C5    H8    S    
C11   C18   A    
C25   C31   T    
C22   C29   S    
C27   C29   S    
N1    Zn1   S    
C24   C27   S    
C44   C45   A    
C19   O5    A    
C26   C32   T    
C3    H9    S    
C24   H2    S    
C23   C29   S    
C46   H26   S    
C27   H4    S    
C37   H18   S    
O3    Zn2   S    
C7    C9    A    
C39   H20   S    
C1    O1    A    
O1    Zn1   S    
C45   H25   S    
C38   H19   S    
C28   H3    S    
C6    H7    S    
C12   C17   A    
C7    H6    S    
C16   N1    A    
C8    H5    S    
C20   O8    A    
C9    C10   A    
C38   C39   A    
C21   C27   S    
C22   C28   S    
C1    C34   S    
C41   C42   A    
C39   C40   A    
C43   C44   A    
C4    C6    A    
C2    O2    A    
C45   C46   A    
O2    Zn2   S    
C19   O7    A    
C40   H21   S    
C36   H17   S    
O8    Zn1   S    
C43   H23   S    
C42   C43   A    
C11   H15   S    
C13   N2    A    
C14   N1    A    
C5    C34   A    
C17   C18   A    
C15   N2    A    
C2    C33   S    
C16   C18   A    
C12   C14   A    
C23   H1    S    
C41   C46   A    
C21   C23   S    
C7    C34   A    
C22   C24   S    
C23   C28   S    
C22   C41   S    
C20   O6    A    
C42   H22   S    
C15   C17   A    
C35   C40   A    
O7    Zn2   S    
C3    C5    A    
C16   H11   S    
C13   H14   S    
C12   H16   S    
O5    Zn1   S    
C14   H13   S    
C4    H10   S    
C21   C30   S    
C6    C33   A    
C36   C37   A    
C28   C30   S    
C1    O3    A    
C29   C31   S    
C3    C10   A    
N2    Zn2   S    
C30   C32   S    
C11   C13   A    
C20   C26   S    
C44   H24   S    
C8    C33   A    
C19   C25   S    
C24   C30   S    
C21   C35   S    
C35   C36   A    
C8    C10   A    
C37   C38   A    
O4    Zn1   S    
C2    O4    A    
C15   H12   S    
C4    C9    A    
