data_mof_unit_58459.cif
_audit_creation_date              2012-12-10T20:27:58-0500
_audit_creation_method            fapswitch 2.2
_symmetry_space_group_name_H-M    P1
_symmetry_Int_Tables_number       1
_space_group_crystal_system       triclinic
_cell_length_a                    12.906294
_cell_length_b                    10.684089
_cell_length_c                    9.859863
_cell_angle_alpha                 89.647322
_cell_angle_beta                  97.170087
_cell_angle_gamma                 90.147992
_cell_volume                      1348.93631383

loop_
_atom_site_label
_atom_site_type_symbol
_atom_type_description
_atom_site_fract_x
_atom_site_fract_y
_atom_site_fract_z
_atom_type_partial_charge
C1    C     C_R   0.503494 0.259831 0.500819 0.880328
C2    C     C_R   0.537093 0.936042 0.382822 -0.221458
C3    C     C_R   0.521855 0.871220 0.502827 -0.105874
C4    C     C_R   0.298167 0.501104 0.473246 0.879740
C5    C     C_R   0.527304 0.934931 0.626191 0.142955
C6    C     C_3   0.459030 0.925808 0.737570 -0.468650
C7    C     C_3   0.458600 0.067534 0.738120 -0.501819
C8    C     C_R   0.410331 0.475622 0.056938 0.215204
C9    C     C_R   0.585825 0.536318 0.085624 -0.136687
C10   C     C_R   0.585801 0.536287 0.941731 -0.116183
C11   C     C_R   0.410149 0.476246 0.914352 0.214046
C12   C     C_R   0.029665 0.511796 0.564602 0.088480
C13   C     C_3   0.346348 0.359638 0.899078 -0.509867
C14   C     C_3   0.347296 0.358436 0.053153 -0.502957
C15   C     C_R   0.503810 0.740029 0.500224 0.880065
C16   C     C_R   0.702009 0.500239 0.526907 0.925848
C17   C     C_R   0.814439 0.502162 0.543248 -0.191285
C18   C     C_R   0.186089 0.503145 0.457325 -0.051147
C19   C     C_R   0.020209 0.487469 0.317099 -0.180122
C20   C     C_R   0.128141 0.490541 0.328246 -0.205146
C21   C     C_R   0.136712 0.515892 0.574553 -0.245873
C22   C     C_R   0.970962 0.497026 0.435074 0.186339
C23   C     C_R   0.863862 0.491985 0.425480 -0.359226
C24   C     C_R   0.872997 0.516320 0.672416 0.625270
C25   C     C_R   0.980747 0.521222 0.682585 -0.303477
C26   C     C_R   0.527065 0.062701 0.626719 0.147755
C27   C     C_R   0.521277 0.128448 0.503667 -0.106478
C28   C     C_R   0.536806 0.065502 0.383237 -0.222024
F1    F     F_    0.826945 0.526537 0.788253 -0.687098
H1    H     H_    0.819306 0.480259 0.325553 0.187083
H2    H     H_    0.391457 0.278459 0.104575 0.215638
H3    H     H_    0.975535 0.476772 0.217185 0.151331
H4    H     H_    0.025774 0.532303 0.782247 0.163074
H5    H     H_    0.165937 0.481994 0.236792 0.154542
H6    H     H_    0.181307 0.528081 0.674337 0.154917
H7    H     H_    0.540909 0.115013 0.287828 0.172994
H8    H     H_    0.541297 0.887938 0.287265 0.174487
H9    H     H_    0.381204 0.884271 0.702687 0.205490
H10   H     H_    0.500607 0.884149 0.832693 0.208315
H11   H     H_    0.380434 0.108082 0.703328 0.203375
H12   H     H_    0.500095 0.107329 0.833816 0.207331
H13   H     H_    0.655687 0.564056 0.150594 0.159034
H14   H     H_    0.655428 0.564049 0.898845 0.215604
H15   H     H_    0.267471 0.376090 0.842789 0.199221
H16   H     H_    0.389605 0.280604 0.861122 0.214407
H17   H     H_    0.268873 0.373938 0.085121 0.196218
N1    N     N_R   0.499290 0.499140 0.142710 -0.110120
N2    N     N_R   0.499290 0.499180 0.857070 -0.115100
O1    O     O_R   0.500010 0.316790 0.614690 -0.614843
O2    O     O_R   0.500000 0.316760 0.385350 -0.624409
O3    O     O_R   0.346360 0.499990 0.595720 -0.628660
O4    O     O_R   0.346350 0.499960 0.366370 -0.621505
O5    O     O_R   0.500000 0.683240 0.614650 -0.619259
O6    O     O_R   0.499990 0.683210 0.385310 -0.623333
O7    O     O_R   0.653650 0.500040 0.633630 -0.566590
O8    O     O_R   0.653640 0.500010 0.404280 -0.641529
Zn1   Zn    Zn3+2 0.500010 0.500020 0.653130 0.967992
Zn2   Zn    Zn3+2 0.499990 0.499980 0.346870 0.943635

loop_
_geom_bond_atom_site_label_1
_geom_bond_atom_site_label_2
_ccdc_geom_bond_type
O1    Zn1   S    
C2    C28   A    
C7    H11   S    
C6    H9    S    
C6    C7    S    
O3    Zn1   S    
C1    O2    A    
C18   C21   A    
C9    C10   A    
C14   H2    S    
C19   C20   A    
C12   C25   A    
C4    C18   S    
C16   O8    A    
C2    C3    A    
C11   N2    A    
C16   O7    A    
C20   H5    S    
N2    Zn1   S    
C14   H17   S    
C13   C14   S    
N1    Zn2   S    
C13   H16   S    
C11   C13   S    
C2    H8    S    
C9    H13   S    
C17   C23   A    
C7    C26   S    
O4    Zn2   S    
C4    O4    A    
C8    C11   A    
C21   H6    S    
C19   H3    S    
C15   O5    A    
O8    Zn2   S    
C9    N1    A    
C10   N2    A    
C18   C20   A    
O7    Zn1   S    
C26   C27   A    
C5    C6    S    
C8    N1    A    
C17   C24   A    
C4    O3    A    
C5    C26   A    
O2    Zn2   S    
C23   H1    S    
C12   C22   A    
C24   F1    S    
C19   C22   A    
C3    C15   S    
C24   C25   A    
C28   H7    S    
C15   O6    A    
O6    Zn2   S    
C27   C28   A    
C1    C27   S    
O5    Zn1   S    
C6    H10   S    
C8    C14   S    
C10   H14   S    
C22   C23   A    
C1    O1    A    
C12   C21   A    
C13   H15   S    
C7    H12   S    
C25   H4    S    
C16   C17   S    
C3    C5    A    
