data_mof_unit_13546.cif
_audit_creation_date              2012-12-10T18:31:13-0500
_audit_creation_method            fapswitch 2.2
_symmetry_space_group_name_H-M    P1
_symmetry_Int_Tables_number       1
_space_group_crystal_system       triclinic
_cell_length_a                    13.679029
_cell_length_b                    14.98833
_cell_length_c                    15.303775
_cell_angle_alpha                 96.780061
_cell_angle_beta                  92.813915
_cell_angle_gamma                 98.473597
_cell_volume                      3074.64480305

loop_
_atom_site_label
_atom_site_type_symbol
_atom_type_description
_atom_site_fract_x
_atom_site_fract_y
_atom_site_fract_z
_atom_type_partial_charge
C1    C     C_R   0.510156 0.556721 0.662534 0.894408
C2    C     C_R   0.354965 0.408238 0.923203 0.438003
C3    C     C_R   0.454343 0.683962 0.016223 -0.289417
C4    C     C_R   0.342485 0.343322 0.981590 -0.272861
C5    C     C_R   0.360519 0.171718 0.641050 -0.269338
C6    C     C_R   0.639303 0.828602 0.359179 -0.263665
C7    C     C_R   0.384525 0.258249 0.617720 0.008089
C8    C     C_R   0.617948 0.742543 0.384235 0.018547
C9    C     C_R   0.484631 0.205481 0.506672 -0.033392
C10   C     C_R   0.509797 0.793161 0.489219 -0.047827
C11   C     C_R   0.465791 0.116153 0.528674 -0.034110
C12   C     C_R   0.485043 0.443609 0.337112 0.885082
C13   C     C_R   0.527876 0.882415 0.466866 -0.044190
C14   C     C_R   0.400897 0.099772 0.596744 0.058229
C15   C     C_R   0.594897 0.899565 0.400411 0.056970
C16   C     C_R   0.318586 0.513933 0.497172 0.904757
C17   C     C_R   0.681427 0.485928 0.502512 0.905503
C18   C     C_R   0.508735 0.043629 0.485555 0.018307
C19   C     C_R   0.483504 0.954507 0.509137 0.015323
C20   C     C_R   0.416176 0.940595 0.575282 -0.325052
C21   C     C_R   0.577556 0.058090 0.420892 -0.333512
C22   C     C_R   0.377502 0.012224 0.620185 0.464041
C23   C     C_R   0.439845 0.560829 0.896140 0.028248
C24   C     C_R   0.617591 0.986995 0.376280 0.491169
C25   C     C_1   0.781160 0.475382 0.497871 -0.178962
C26   C     C_1   0.218752 0.523936 0.500731 -0.177831
C27   C     C_2   0.968330 0.460778 0.486934 0.390092
C28   C     C_2   0.031510 0.538038 0.511013 0.406284
C29   C     C_1   0.134226 0.532194 0.505171 -0.074918
C30   C     C_1   0.865559 0.466655 0.492706 -0.068415
C31   C     C_R   0.497866 0.591842 0.753888 -0.153864
C32   C     C_R   0.458411 0.412030 0.243778 -0.148082
C33   C     C_R   0.498001 0.717582 0.869754 0.519024
C34   C     C_R   0.418753 0.456982 0.101144 0.018214
C35   C     C_R   0.373858 0.297382 0.127278 0.514449
C36   C     C_R   0.510569 0.685412 0.781842 -0.308785
C37   C     C_R   0.414469 0.322509 0.214904 -0.325471
C38   C     C_R   0.464159 0.530653 0.811389 -0.201963
C39   C     C_R   0.465823 0.476242 0.185316 -0.202281
C40   C     C_3   0.070200 0.694025 0.567736 0.113795
C41   C     C_3   0.115094 0.692782 0.661484 -0.386454
C42   C     C_3   0.200691 0.770577 0.686107 -0.927513
C43   C     C_3   0.931244 0.302188 0.440990 0.099585
C44   C     C_3   0.906458 0.262869 0.526866 -0.382904
C45   C     C_R   0.462797 0.654873 0.927255 -0.015890
C46   C     C_3   0.821948 0.182970 0.510439 -0.904600
C47   C     C_3   0.615158 0.847420 0.894118 0.053618
C48   C     C_3   0.682539 0.817097 0.964629 -0.361822
C49   C     C_3   0.787295 0.869902 0.969503 -0.951525
C50   C     C_3   0.283182 0.158230 0.154126 0.073335
C51   C     C_3   0.344918 0.091320 0.190228 -0.363709
C52   C     C_3   0.299618 0.051796 0.269137 -0.946783
C53   C     C_3   0.336241 0.653434 0.187479 0.054911
C54   C     C_3   0.338472 0.693062 0.284416 -0.290685
C55   C     C_3   0.234550 0.689003 0.317090 -0.967765
C56   C     C_R   0.378069 0.365300 0.069907 -0.005659
C57   C     C_3   0.224013 0.413045 0.827549 0.062337
C58   C     C_3   0.185377 0.392582 0.730788 -0.313445
C59   C     C_3   0.082696 0.418947 0.717202 -0.975809
C60   C     C_3   0.363422 0.987288 0.763333 0.055227
C61   C     C_3   0.294291 0.995292 0.838402 -0.318408
C62   C     C_3   0.345427 0.984261 0.926408 -0.932110
C63   C     C_3   0.648484 0.036317 0.241163 0.070339
C64   C     C_3   0.580023 0.960182 0.182023 -0.372306
C65   C     C_3   0.556295 0.989235 0.092158 -0.965564
C66   C     C_R   0.403626 0.498079 0.953516 -0.083352
C67   C     C_R   0.418710 0.525804 0.045062 -0.089536
C68   C     C_R   0.434739 0.621083 0.075744 0.442264
H1    H     H_    0.391582 0.874853 0.594685 0.146217
H2    H     H_    0.127931 0.700635 0.519088 0.136174
H3    H     H_    0.056912 0.698941 0.709084 0.226770
H4    H     H_    0.143169 0.627772 0.666995 0.224508
H5    H     H_    0.261493 0.762747 0.641691 0.260947
H6    H     H_    0.229784 0.769776 0.755000 0.263402
H7    H     H_    0.175138 0.836807 0.680816 0.291042
H8    H     H_    0.962216 0.250087 0.397535 0.166313
H9    H     H_    0.863898 0.314606 0.403310 0.133854
H10   H     H_    0.973236 0.239733 0.555430 0.231353
H11   H     H_    0.884409 0.315731 0.575845 0.225574
H12   H     H_    0.604761 0.124646 0.404880 0.138558
H13   H     H_    0.753530 0.206450 0.486116 0.260875
H14   H     H_    0.807566 0.154137 0.572984 0.263507
H15   H     H_    0.841164 0.128852 0.461137 0.280693
H16   H     H_    0.311459 0.161746 0.693686 0.189710
H17   H     H_    0.690292 0.839110 0.308097 0.184054
H18   H     H_    0.468709 0.755629 0.041456 0.199858
H19   H     H_    0.307014 0.275016 0.956410 0.203327
H20   H     H_    0.620264 0.922541 0.905809 0.173500
H21   H     H_    0.642265 0.832082 0.827521 0.132557
H22   H     H_    0.651561 0.827940 0.029987 0.236452
H23   H     H_    0.510808 0.541259 0.206267 0.219129
H24   H     H_    0.686149 0.743402 0.948878 0.214922
H25   H     H_    0.820190 0.859219 0.904871 0.265114
H26   H     H_    0.834226 0.845723 0.020260 0.266292
H27   H     H_    0.786308 0.943683 0.987968 0.259571
H28   H     H_    0.215674 0.117958 0.117662 0.155380
H29   H     H_    0.255268 0.202478 0.208103 0.133123
H30   H     H_    0.349381 0.034801 0.137417 0.229130
H31   H     H_    0.421608 0.125475 0.210633 0.221562
H32   H     H_    0.297934 0.106766 0.324267 0.269854
H33   H     H_    0.345184 0.002472 0.292110 0.265344
H34   H     H_    0.460601 0.458881 0.790336 0.218004
H35   H     H_    0.223130 0.016014 0.250354 0.264282
H36   H     H_    0.296149 0.582326 0.179230 0.149815
H37   H     H_    0.296233 0.695311 0.146700 0.139793
H38   H     H_    0.381931 0.654086 0.325013 0.261968
H39   H     H_    0.375656 0.765000 0.293012 0.218759
H40   H     H_    0.189754 0.728338 0.278055 0.263186
H41   H     H_    0.239573 0.718834 0.387422 0.264871
H42   H     H_    0.197239 0.617339 0.311612 0.266386
H43   H     H_    0.230704 0.487828 0.847525 0.144738
H44   H     H_    0.169886 0.376740 0.868412 0.144424
H45   H     H_    0.412177 0.273157 0.261072 0.169319
H46   H     H_    0.237353 0.431148 0.690007 0.226829
H47   H     H_    0.181350 0.318734 0.708441 0.222019
H48   H     H_    0.028573 0.378437 0.754507 0.262949
H49   H     H_    0.058100 0.405105 0.646150 0.281384
H50   H     H_    0.084401 0.492419 0.739482 0.259409
H51   H     H_    0.428728 0.042195 0.778825 0.138294
H52   H     H_    0.389030 0.919833 0.759054 0.168109
H53   H     H_    0.269639 0.063061 0.843470 0.226408
H54   H     H_    0.227756 0.942258 0.824094 0.226072
H55   H     H_    0.368155 0.915923 0.923617 0.290304
H56   H     H_    0.531197 0.733423 0.735849 0.162140
H57   H     H_    0.293236 0.991267 0.979186 0.261155
H58   H     H_    0.411582 0.037365 0.942878 0.278931
H59   H     H_    0.711720 0.061508 0.203141 0.175821
H60   H     H_    0.609285 0.095337 0.258154 0.120062
H61   H     H_    0.616412 0.898548 0.172625 0.231427
H62   H     H_    0.509737 0.942719 0.214057 0.213940
H63   H     H_    0.522987 0.052615 0.099648 0.267915
H64   H     H_    0.503214 0.934687 0.052377 0.291733
H65   H     H_    0.624928 0.001518 0.056739 0.265647
H66   H     H_    0.460930 0.772802 0.538559 0.128913
H67   H     H_    0.651219 0.687124 0.352549 0.140494
H68   H     H_    0.529570 0.224875 0.454357 0.123948
H69   H     H_    0.354979 0.314582 0.651933 0.157687
H70   H     H_    0.034726 0.756092 0.567701 0.168229
N1    N     N_R   0.445040 0.272490 0.551770 -0.103276
N2    N     N_R   0.554960 0.727510 0.448230 -0.109124
O1    O     O_R   0.527700 0.614770 0.606110 -0.614993
O2    O     O_3   0.004763 0.380415 0.457449 -0.670364
O3    O     O_3   0.514469 0.810082 0.899178 -0.685293
O4    O     O_3   0.336818 0.207357 0.093424 -0.663955
O5    O     O_3   0.434735 0.655427 0.163632 -0.664939
O6    O     O_3   0.316532 0.382848 0.837079 -0.671440
O7    O     O_3   0.310799 0.995339 0.683592 -0.659112
O8    O     O_3   0.688894 0.004205 0.316333 -0.661362
O9    O     O_R   0.472300 0.385230 0.393890 -0.618582
O10   O     O_R   0.492440 0.468680 0.639380 -0.621634
O11   O     O_R   0.507560 0.531320 0.360620 -0.627436
O12   O     O_R   0.379820 0.583550 0.480950 -0.626302
O13   O     O_R   0.620180 0.416450 0.519050 -0.614971
O14   O     O_R   0.344560 0.437460 0.514220 -0.608000
O15   O     O_R   0.655440 0.562540 0.485780 -0.600308
O16   O     O_3   0.995429 0.617945 0.542630 -0.664547
Zn1   Zn    Zn3+2 0.523550 0.597550 0.477790 0.932117
Zn2   Zn    Zn3+2 0.476450 0.402450 0.522210 0.939117

loop_
_geom_bond_atom_site_label_1
_geom_bond_atom_site_label_2
_ccdc_geom_bond_type
O12   Zn1   S    
C52   H35   S    
C34   C56   A    
C23   C45   A    
O15   Zn1   S    
C18   C21   A    
C33   C45   A    
C41   C42   S    
C3    C68   A    
C17   O13   A    
C33   C36   A    
C11   C18   A    
C4    H19   S    
C53   C54   S    
C33   O3    S    
C42   H7    S    
C6    H17   S    
C40   H2    S    
C54   H39   S    
C60   C61   S    
C63   H59   S    
O11   Zn1   S    
C23   C66   A    
C28   C29   S    
C35   C37   A    
O14   Zn2   S    
C11   C14   A    
C46   H15   S    
C57   H44   S    
C37   H45   S    
C53   H36   S    
C47   O3    S    
C1    C31   S    
C27   O2    S    
C60   H51   S    
C61   H53   S    
C18   C19   A    
C32   C39   A    
C62   H58   S    
O13   Zn2   S    
C6    C15   A    
C46   H14   S    
C19   C20   A    
N1    Zn2   S    
C44   C46   S    
C59   H48   S    
C42   H5    S    
C40   H70   S    
C60   O7    S    
C27   C30   S    
C49   H26   S    
O9    Zn2   S    
C63   H60   S    
C35   O4    S    
C41   H3    S    
C51   H30   S    
C66   C67   A    
C59   H49   S    
C48   H22   S    
C57   O6    S    
C55   H41   S    
C3    H18   S    
C51   H31   S    
C47   H21   S    
C12   O11   A    
C10   N2    A    
C39   H23   S    
C62   H55   S    
C65   H63   S    
C50   O4    S    
C12   C32   S    
C16   C26   S    
C52   H33   S    
C42   H6    S    
C54   H38   S    
C67   C68   A    
C24   O8    S    
C5    C7    A    
C5    H16   S    
C13   C19   A    
C6    C8    A    
C58   C59   S    
C3    C45   A    
C34   C39   A    
C61   H54   S    
C2    C4    A    
C43   C44   S    
N2    Zn1   S    
C46   H13   S    
C47   C48   S    
C28   O16   S    
C53   O5    S    
C50   C51   S    
C1    O10   A    
C16   O12   A    
C32   C37   A    
C49   H27   S    
C9    C11   A    
C5    C14   A    
C41   H4    S    
O1    Zn1   S    
C15   C24   A    
C20   C22   A    
C59   H50   S    
C13   C15   A    
C55   H42   S    
C16   O14   A    
C58   H47   S    
C20   H1    S    
C2    O6    S    
C17   O15   A    
C63   O8    S    
C65   H64   S    
C7    H69   S    
C25   C30   T    
C54   C55   S    
C48   C49   S    
C50   H29   S    
O10   Zn2   S    
C36   H56   S    
C35   C56   A    
C12   O9    A    
C44   H11   S    
C40   O16   S    
C10   H66   S    
C64   H62   S    
C2    C66   A    
C10   C13   A    
C34   C67   A    
C62   H57   S    
C64   H61   S    
C43   H9    S    
C23   C38   A    
C31   C38   A    
C55   H40   S    
C8    N2    A    
C17   C25   S    
C47   H20   S    
C14   C22   A    
C44   H10   S    
C51   C52   S    
C38   H34   S    
C64   C65   S    
C7    N1    A    
C9    N1    A    
C50   H28   S    
C57   C58   S    
C57   H43   S    
C21   H12   S    
C52   H32   S    
C60   H52   S    
C61   C62   S    
C65   H65   S    
C1    O1    A    
C63   C64   S    
C9    H68   S    
C53   H37   S    
C22   O7    S    
C26   C29   T    
C48   H24   S    
C21   C24   A    
C27   C28   D    
C58   H46   S    
C31   C36   A    
C43   H8    S    
C43   O2    S    
C40   C41   S    
C49   H25   S    
C4    C56   A    
C68   O5    S    
C8    H67   S    
