data_mof_unit_13280.cif
_audit_creation_date              2012-12-11T15:17:32-0500
_audit_creation_method            fapswitch 2.2
_symmetry_space_group_name_H-M    P1
_symmetry_Int_Tables_number       1
_space_group_crystal_system       triclinic
_cell_length_a                    15.720268
_cell_length_b                    15.743884
_cell_length_c                    34.472119
_cell_angle_alpha                 89.702011
_cell_angle_beta                  90.182392
_cell_angle_gamma                 119.740455
_cell_volume                      7407.88719578

loop_
_atom_site_label
_atom_site_type_symbol
_atom_type_description
_atom_site_fract_x
_atom_site_fract_y
_atom_site_fract_z
_atom_type_partial_charge
C1    C     C_R   0.578351 0.441369 0.554846 0.553045
C2    C     C_R   0.499595 0.987394 0.211940 0.348756
C3    C     C_R   0.488244 0.500014 0.211977 0.348860
C4    C     C_R   0.012295 0.511891 0.211929 0.348765
C5    C     C_R   0.020103 0.440137 0.851279 -0.116268
C6    C     C_R   0.559426 0.584162 0.850433 -0.119916
C7    C     C_R   0.342436 0.838530 0.835595 -0.113877
C8    C     C_R   0.434788 0.010123 0.353172 -0.116497
C9    C     C_R   0.573556 0.566359 0.353283 -0.116586
C10   C     C_R   0.991964 0.426028 0.353510 -0.116577
C11   C     C_R   0.047458 0.449863 0.890094 -0.126343
C12   C     C_R   0.558807 0.137237 0.555173 0.553446
C13   C     C_R   0.549912 0.601044 0.889303 -0.132742
C14   C     C_R   0.332601 0.827798 0.875737 -0.126960
C15   C     C_R   0.446795 0.042289 0.391353 -0.128712
C16   C     C_R   0.594193 0.554042 0.391476 -0.128878
C17   C     C_R   0.959509 0.405683 0.391704 -0.128745
C18   C     C_R   0.077651 0.616480 0.889552 -0.136513
C19   C     C_R   0.384134 0.463785 0.889447 -0.128523
C20   C     C_R   0.486585 0.828169 0.879683 -0.128505
C21   C     C_R   0.614246 0.074112 0.390600 -0.130210
C22   C     C_R   0.459083 0.387232 0.390827 -0.130401
C23   C     C_R   0.863229 0.421437 0.554844 0.553327
C24   C     C_R   0.925706 0.540049 0.390371 -0.130366
C25   C     C_R   0.050612 0.606905 0.850561 -0.120263
C26   C     C_R   0.393745 0.446732 0.850485 -0.115904
C27   C     C_R   0.497009 0.839963 0.839427 -0.115027
C28   C     C_R   0.602235 0.041904 0.352323 -0.117209
C29   C     C_R   0.438434 0.399543 0.352544 -0.117381
C30   C     C_R   0.958167 0.560407 0.352076 -0.117225
C31   C     C_R   0.026136 0.520101 0.830664 0.036093
C32   C     C_R   0.479950 0.509634 0.830229 0.035170
C33   C     C_R   0.425501 0.846404 0.817020 0.036131
C34   C     C_R   0.441482 0.578426 0.054941 0.555398
C35   C     C_R   0.513859 0.014168 0.332722 0.034721
C36   C     C_R   0.498750 0.487624 0.332871 0.034892
C37   C     C_R   0.986933 0.500412 0.332756 0.034775
C38   C     C_R   0.081327 0.539717 0.908948 0.025022
C39   C     C_R   0.460635 0.543927 0.908604 0.023786
C40   C     C_R   0.405223 0.824153 0.898297 0.020042
C41   C     C_R   0.538047 0.079017 0.409710 0.022487
C42   C     C_R   0.540311 0.462839 0.409837 0.022398
C43   C     C_R   0.921564 0.459418 0.409759 0.022493
C44   C     C_R   0.577880 0.442375 0.445619 0.552433
C45   C     C_R   0.137125 0.558615 0.054961 0.556393
C46   C     C_R   0.557828 0.135739 0.445598 0.553510
C47   C     C_R   0.864363 0.422113 0.445609 0.552752
C48   C     C_R   0.442094 0.578411 0.945425 0.542733
C49   C     C_R   0.135790 0.558084 0.945511 0.544497
C50   C     C_R   0.392018 0.809948 0.940681 0.567464
C51   C     C_R   0.920490 0.456585 0.590790 0.022561
C52   C     C_R   0.542607 0.462966 0.590712 0.022737
C53   C     C_R   0.533751 0.072326 0.589348 0.021518
C54   C     C_R   0.455158 0.916517 0.091680 0.022344
C55   C     C_R   0.462118 0.544222 0.091594 0.022456
C56   C     C_R   0.421490 0.862793 0.054973 0.567757
C57   C     C_R   0.082966 0.538171 0.091641 0.022481
C58   C     C_R   0.953294 0.399106 0.609754 -0.129568
C59   C     C_R   0.598556 0.553639 0.608973 -0.128999
C60   C     C_R   0.438340 0.026750 0.604496 -0.129393
C61   C     C_R   0.396578 0.947328 0.110798 -0.128055
C62   C     C_R   0.551229 0.602381 0.110813 -0.128723
C63   C     C_R   0.053248 0.449360 0.111110 -0.128458
C64   C     C_R   0.987109 0.420003 0.647785 -0.116517
C65   C     C_R   0.577549 0.566910 0.646896 -0.116111
C66   C     C_R   0.416726 0.974504 0.639268 -0.116983
C67   C     C_R   0.004196 0.508042 0.709675 0.350202
C68   C     C_R   0.414709 0.976075 0.149436 -0.116417
C69   C     C_R   0.561967 0.584057 0.149514 -0.116590
C70   C     C_R   0.024400 0.438686 0.149767 -0.116355
C71   C     C_R   0.988630 0.498703 0.667439 0.035460
C72   C     C_R   0.500274 0.489696 0.667168 0.035010
C73   C     C_R   0.490203 0.967098 0.659799 0.033520
C74   C     C_R   0.491858 0.974708 0.169562 0.035081
C75   C     C_R   0.483838 0.507169 0.169549 0.035318
C76   C     C_R   0.024564 0.516557 0.169535 0.035198
C77   C     C_R   0.964781 0.561670 0.647185 -0.116959
C78   C     C_R   0.491063 0.496931 0.709336 0.349246
C79   C     C_R   0.438709 0.402180 0.647620 -0.117577
C80   C     C_R   0.584518 0.008465 0.643605 -0.116920
C81   C     C_R   0.555903 0.952678 0.149380 -0.116568
C82   C     C_R   0.398323 0.443211 0.149222 -0.116745
C83   C     C_R   0.045258 0.601895 0.148981 -0.116854
C84   C     C_R   0.930885 0.540713 0.609106 -0.130618
C85   C     C_R   0.459765 0.388895 0.609635 -0.130701
C86   C     C_R   0.606059 0.060524 0.608666 -0.131151
C87   C     C_R   0.537640 0.923722 0.110691 -0.129698
C88   C     C_R   0.387516 0.461647 0.110476 -0.129707
C89   C     C_R   0.470416 0.924481 0.699334 0.346022
C90   C     C_R   0.074325 0.612653 0.110283 -0.129975
C91   C     C_R   0.015235 0.515028 0.788199 0.348329
C92   C     C_R   0.484721 0.503197 0.787805 0.348205
C93   C     C_R   0.439513 0.867134 0.774921 0.350016
C94   C     C_R   0.506972 0.999499 0.290439 0.348565
C95   C     C_R   0.491387 0.494139 0.290538 0.348731
C96   C     C_R   0.001315 0.507962 0.290450 0.348632
Cr1   Cr    Cr6+3 0.522350 0.263930 0.500020 1.018504
Cr2   Cr    Cr6+3 0.736070 0.258420 0.500020 1.019331
Cr3   Cr    Cr6+3 0.741580 0.477650 0.500020 1.018144
Cr4   Cr    Cr6+3 0.263930 0.522350 0.000020 1.012199
Cr5   Cr    Cr6+3 0.258420 0.736070 0.000020 1.012368
Cr6   Cr    Cr6+3 0.477650 0.741580 0.000020 1.016290
H1    H     H_    0.906981 0.586871 0.594957 0.128973
H2    H     H_    0.386411 0.044039 0.405638 0.131101
H3    H     H_    0.656297 0.614024 0.405730 0.131182
H4    H     H_    0.958425 0.343977 0.406231 0.131031
H5    H     H_    0.006911 0.371234 0.662408 0.140011
H6    H     H_    0.625194 0.635948 0.660953 0.140790
H7    H     H_    0.343114 0.943014 0.650718 0.139824
H8    H     H_    0.365230 0.994641 0.164017 0.139992
H9    H     H_    0.629626 0.633371 0.164228 0.139895
H10   H     H_    0.006833 0.371192 0.164649 0.139999
H11   H     H_    0.966421 0.623617 0.661417 0.139740
H12   H     H_    0.414823 0.318501 0.596049 0.129879
H13   H     H_    0.377843 0.341782 0.662337 0.139502
H14   H     H_    0.642710 0.003778 0.658579 0.138878
H15   H     H_    0.616705 0.952164 0.164008 0.139683
H16   H     H_    0.337382 0.382533 0.163786 0.139644
H17   H     H_    0.044764 0.662670 0.163329 0.139487
H18   H     H_    0.999258 0.371472 0.836964 0.140116
H19   H     H_    0.627555 0.632631 0.835792 0.139275
H20   H     H_    0.285682 0.842739 0.819261 0.141157
H21   H     H_    0.365074 0.987141 0.339089 0.139922
H22   H     H_    0.619956 0.635880 0.339130 0.139980
H23   H     H_    0.680214 0.094640 0.597575 0.128323
H24   H     H_    0.015796 0.379838 0.339646 0.139881
H25   H     H_    0.102097 0.686104 0.903654 0.119125
H26   H     H_    0.314556 0.418369 0.903711 0.131296
H27   H     H_    0.542462 0.822824 0.896209 0.135787
H28   H     H_    0.685219 0.101393 0.404226 0.130104
H29   H     H_    0.415762 0.316374 0.404500 0.130181
H30   H     H_    0.897510 0.583145 0.403775 0.130175
H31   H     H_    0.054489 0.669314 0.835546 0.135257
H32   H     H_    0.331675 0.387929 0.835756 0.140292
H33   H     H_    0.561357 0.844747 0.825929 0.140433
H34   H     H_    0.584412 0.900959 0.096518 0.129646
H35   H     H_    0.664091 0.044572 0.337453 0.139786
H36   H     H_    0.379350 0.338004 0.337701 0.139835
H37   H     H_    0.954766 0.619120 0.336965 0.139899
H38   H     H_    0.947244 0.334516 0.596104 0.131138
H39   H     H_    0.662102 0.612447 0.594841 0.131541
H40   H     H_    0.380879 0.033900 0.590076 0.131187
H41   H     H_    0.333071 0.943441 0.096697 0.132589
H42   H     H_    0.610389 0.665845 0.096776 0.131827
H43   H     H_    0.058212 0.390338 0.097290 0.131888
H44   H     H_    0.318287 0.415083 0.096185 0.129495
H45   H     H_    0.096122 0.681685 0.095817 0.129206
H46   H     H_    0.048186 0.388977 0.904557 0.132817
H47   H     H_    0.610421 0.662789 0.903486 0.131291
H48   H     H_    0.268106 0.822805 0.889152 0.124731
N1    N     N_R   0.011551 0.438750 0.768645 -0.225378
N2    N     N_R   0.425826 0.987467 0.232199 -0.224249
N3    N     N_R   0.561205 0.573961 0.232264 -0.224315
N4    N     N_R   0.013747 0.438997 0.232518 -0.224146
N5    N     N_R   0.008320 0.584731 0.729180 -0.221570
N6    N     N_R   0.416060 0.423890 0.729427 -0.224977
N7    N     N_R   0.542626 0.923736 0.720845 -0.224240
N8    N     N_R   0.576952 0.992763 0.231707 -0.224050
N9    N     N_R   0.416288 0.423294 0.231730 -0.224141
N10   N     N_R   0.006006 0.583356 0.231370 -0.224258
N11   N     N_R   0.014422 0.588500 0.767714 -0.223606
N12   N     N_R   0.559303 0.576316 0.767673 -0.224839
N13   N     N_R   0.412603 0.427276 0.767925 -0.223898
N14   N     N_R   0.527445 0.895502 0.757880 -0.220636
N15   N     N_R   0.580888 0.999374 0.270216 -0.224209
N16   N     N_R   0.418208 0.420076 0.270284 -0.224250
N17   N     N_R   0.999932 0.581062 0.269895 -0.224190
N18   N     N_R   0.366766 0.865760 0.753144 -0.220452
N19   N     N_R   0.429604 0.993740 0.270635 -0.224443
N20   N     N_R   0.562950 0.570895 0.270744 -0.224503
N21   N     N_R   0.008007 0.436882 0.270971 -0.224522
N22   N     N_R   0.005790 0.435149 0.730199 -0.225109
N23   N     N_R   0.562588 0.573083 0.729248 -0.222754
N24   N     N_R   0.381879 0.893792 0.716163 -0.224428
O1    O     O_R   0.498680 0.159540 0.541860 -0.520789
O2    O     O_R   0.358060 0.532760 0.040030 -0.502466
O3    O     O_R   0.174700 0.641940 0.040030 -0.504592
O4    O     O_R   0.467240 0.825300 0.040030 -0.498841
O5    O     O_R   0.498590 0.161190 0.456930 -0.521775
O6    O     O_R   0.838810 0.337400 0.456930 -0.522053
O7    O     O_R   0.662600 0.501410 0.456930 -0.521700
O8    O     O_R   0.161190 0.498590 0.956930 -0.520379
O9    O     O_R   0.337400 0.838810 0.956930 -0.512420
O10   O     O_R   0.501410 0.662600 0.956930 -0.534855
O11   O     O_R   0.532680 0.359580 0.461300 -0.503699
O12   O     O_R   0.840460 0.339140 0.541860 -0.521637
O13   O     O_R   0.640420 0.173100 0.461300 -0.503391
O14   O     O_R   0.826900 0.467320 0.461300 -0.503297
O15   O     O_R   0.359580 0.532680 0.961300 -0.504814
O16   O     O_R   0.173100 0.640420 0.961300 -0.524129
O17   O     O_R   0.467320 0.826900 0.961300 -0.497246
O18   O     O_3   0.666667 0.333333 0.499990 -0.240231
O19   O     O_3   0.333333 0.666667 0.999990 -0.267491
O20   O     O_R   0.660860 0.501320 0.541860 -0.521066
O21   O     O_R   0.159540 0.498680 0.041860 -0.518017
O22   O     O_R   0.339140 0.840460 0.041860 -0.514274
O23   O     O_R   0.501320 0.660860 0.041860 -0.519022
O24   O     O_R   0.532760 0.358060 0.540030 -0.506260
O25   O     O_R   0.641940 0.174700 0.540030 -0.505013
O26   O     O_R   0.825300 0.467240 0.540030 -0.505517

loop_
_geom_bond_atom_site_label_1
_geom_bond_atom_site_label_2
_ccdc_geom_bond_type
C25   C31   A    
C6    C32   A    
Cr6   O19   S    
C26   C32   A    
Cr1   O1    S    
C22   C29   A    
C79   H13   S    
C22   H29   S    
C4    N4    A    
C50   O9    A    
C34   O23   A    
C79   C85   A    
C20   H27   S    
C38   C49   S    
C56   O4    A    
Cr4   O19   S    
N5    N11   A    
Cr1   O11   S    
C29   H36   S    
C29   C36   A    
C45   C57   S    
C90   H45   S    
Cr2   O25   S    
C10   C37   A    
C52   C85   A    
C9    C16   A    
C5    C11   A    
C72   C79   A    
C94   N19   A    
C54   C87   A    
C20   C40   A    
C82   C88   A    
C11   H46   S    
C64   C71   A    
Cr4   O15   S    
C10   C17   A    
C68   C74   A    
C55   C62   A    
C81   H15   S    
C19   H26   S    
C3    N3    A    
C9    H22   S    
C76   C83   A    
C67   N5    A    
N10   N17   A    
C83   H17   S    
C55   C88   A    
C19   C26   A    
C80   C86   A    
C60   H40   S    
C56   O22   A    
C61   H41   S    
C7    C14   A    
C1    O24   A    
C93   N18   A    
C96   N21   A    
N3    N20   A    
Cr4   O2    S    
C9    C36   A    
C72   C78   S    
C41   C46   S    
C36   C95   S    
C53   C86   A    
C92   N12   A    
C15   H2    S    
C25   H31   S    
C65   H6    S    
C12   C53   S    
C2    C74   S    
Cr5   O22   S    
C45   O3    A    
C44   O11   A    
C60   C66   A    
C34   C55   S    
C86   H23   S    
C3    N9    A    
Cr1   O5    S    
C7    C33   A    
Cr6   O4    S    
C13   H47   S    
C18   C25   A    
C42   C44   S    
C89   N24   A    
C77   H11   S    
C87   H34   S    
C94   N15   A    
Cr3   O14   S    
C1    C52   S    
C53   C60   A    
Cr5   O19   S    
C57   C63   A    
Cr1   O18   S    
C58   C64   A    
C54   C56   S    
C4    C76   S    
C57   C90   A    
C5    H18   S    
C80   H14   S    
Cr5   O3    S    
N6    N13   A    
Cr2   O18   S    
Cr5   O16   S    
Cr6   O23   S    
N12   N23   A    
C49   O16   A    
C77   C84   A    
C66   C73   A    
C23   O26   A    
C27   C33   A    
N1    N22   A    
C37   C96   S    
C8    C35   A    
Cr3   O26   S    
C11   C38   A    
N18   N24   A    
C17   C43   A    
C47   O6    A    
C26   H32   S    
C52   C59   A    
C18   H25   S    
C78   N23   A    
C24   H30   S    
C23   C51   S    
Cr3   O20   S    
C63   C70   A    
C2    N8    A    
C14   H48   S    
C2    N2    A    
Cr6   O17   S    
C96   N17   A    
C8    H21   S    
C51   C58   A    
C68   H8    S    
C50   O17   A    
N7    N14   A    
C15   C41   A    
C48   O15   A    
C81   C87   A    
C19   C39   A    
C16   H3    S    
C12   O1    A    
C21   C41   A    
C62   C69   A    
C92   N13   A    
C54   C61   A    
C21   C28   A    
C8    C15   A    
C31   C91   S    
Cr2   O13   S    
C70   C76   A    
C46   O13   A    
C45   O21   A    
C82   H16   S    
C74   C81   A    
Cr2   O6    S    
C95   N16   A    
C16   C42   A    
C71   C77   A    
Cr4   O8    S    
C3    C75   S    
C64   H5    S    
C48   O10   A    
Cr4   O21   S    
C58   H38   S    
C28   C35   A    
C83   C90   A    
C85   H12   S    
C30   H37   S    
Cr1   O24   S    
C28   H35   S    
C62   H42   S    
C33   C93   S    
C4    N10   A    
C23   O12   A    
C75   C82   A    
C89   N7    A    
C20   C27   A    
C67   N22   A    
C73   C89   S    
C65   C72   A    
C93   N14   A    
N9    N16   A    
C27   H33   S    
C35   C94   S    
C1    O20   A    
C18   C38   A    
Cr6   O10   S    
Cr2   O12   S    
C17   H4    S    
C46   O5    A    
C6    C13   A    
C91   N1    A    
N2    N19   A    
C69   H9    S    
C61   C68   A    
C78   N6    A    
Cr3   O18   S    
C24   C43   A    
C40   C50   S    
C44   O7    A    
C73   C80   A    
N4    N21   A    
C69   C75   A    
C67   C71   S    
C66   H7    S    
C12   O25   A    
C70   H10   S    
C95   N20   A    
C24   C30   A    
C21   H28   S    
C13   C39   A    
C34   O2    A    
C32   C92   S    
C14   C40   A    
C49   O8    A    
Cr5   O9    S    
C30   C37   A    
C59   H39   S    
C22   C42   A    
C84   H1    S    
C88   H44   S    
C91   N11   A    
Cr3   O7    S    
C7    H20   S    
C6    H19   S    
C47   O14   A    
C10   H24   S    
C43   C47   S    
C51   C84   A    
C63   H43   S    
C59   C65   A    
N8    N15   A    
C39   C48   S    
C5    C31   A    
