data_mof_unit_56199.cif
_audit_creation_date              2013-03-05T16:47:55-0500
_audit_creation_method            fapswitch 2.2
_symmetry_space_group_name_H-M    P1
_symmetry_Int_Tables_number       1
_space_group_crystal_system       triclinic
_cell_length_a                    8.10305
_cell_length_b                    8.93683
_cell_length_c                    16.814686
_cell_angle_alpha                 90.008229
_cell_angle_beta                  85.283471
_cell_angle_gamma                 89.998177
_cell_volume                      1213.52192787

loop_
_atom_site_label
_atom_site_type_symbol
_atom_site_description
_atom_site_fract_x
_atom_site_fract_y
_atom_site_fract_z
_atom_type_partial_charge
O1    O     O_R   0.363150 0.714660 0.500000 -0.613126
O2    O     O_R   0.636850 0.285340 0.500000 -0.611316
O3    O     O_R   0.636850 0.714660 0.500000 -0.616251
O4    O     O_R   0.363150 0.285340 0.500000 -0.612702
C1    C     C_R   0.499999 0.782041 0.500009 0.940587
C2    C     C_R   0.499997 0.217960 0.500027 0.944615
O5    O     O_R   0.346950 0.500000 0.615800 -0.620874
O6    O     O_R   0.653050 0.500000 0.384200 -0.624546
O7    O     O_R   0.620700 0.500000 0.615800 -0.621400
O8    O     O_R   0.379300 0.500000 0.384200 -0.620274
C3    C     C_R   0.477507 0.507726 0.653389 0.870168
C4    C     C_R   0.522764 0.501278 0.346316 0.873694
Zn1   Zn    Zn3+2 0.317220 0.500000 0.500010 0.986060
Zn2   Zn    Zn3+2 0.682780 0.500000 0.499990 0.983346
H1    H     H_    0.295994 0.549725 0.106874 0.146017
H2    H     H_    0.695234 0.739094 0.864218 0.152834
N1    N     N_1   0.926360 0.500000 0.499990 -0.037753
N2    N     N_1   0.073640 0.500000 0.500010 -0.037067
C5    C     C_R   0.464606 0.556380 0.736154 -0.080200
C6    C     C_R   0.537934 0.520415 0.260179 -0.084222
C7    C     C_R   0.599847 0.629672 0.765409 -0.208636
C8    C     C_R   0.395799 0.520500 0.218466 -0.210021
C9    C     C_R   0.587514 0.686656 0.841943 -0.216211
C10   C     C_R   0.407698 0.553932 0.137981 -0.205005
C11   C     C_R   0.441678 0.666833 0.891497 0.182997
C12   C     C_R   0.561808 0.589293 0.098030 0.185840
C13   C     C_R   0.300930 0.601641 0.861218 0.249235
C14   C     C_R   0.706870 0.584003 0.138960 0.237432
C15   C     C_R   0.313729 0.547271 0.782956 -0.200454
C16   C     C_R   0.693228 0.549996 0.220202 -0.195526
C17   C     C_2   0.448704 0.686227 0.977376 -0.239477
C18   C     C_2   0.571539 0.618925 0.012333 -0.226874
C19   C     C_1   0.499997 0.934818 0.500033 -0.191392
C20   C     C_1   0.499998 0.065171 0.500037 -0.195050
H3    H     H_    0.715487 0.643820 0.729043 0.171246
H4    H     H_    0.274987 0.496255 0.248129 0.167214
H5    H     H_    0.803530 0.549358 0.252550 0.162427
H6    H     H_    0.207590 0.495117 0.759053 0.157167
H7    H     H_    0.675685 0.571023 0.976173 0.171407
H8    H     H_    0.342122 0.731915 0.012593 0.168939
C21   C     C_3   0.141371 0.581425 0.912605 -0.985393
H9    H     H_    0.043787 0.529118 0.879091 0.245097
H10   H     H_    0.162995 0.508113 0.964020 0.250660
H11   H     H_    0.094955 0.691919 0.934799 0.245305
C22   C     C_3   0.875212 0.615970 0.097570 -0.981087
H12   H     H_    0.973424 0.616303 0.139939 0.241611
H13   H     H_    0.906585 0.528185 0.052221 0.246964
H14   H     H_    0.875140 0.727238 0.068179 0.253997

loop_
_geom_bond_atom_site_label_1
_geom_bond_atom_site_label_2
_geom_bond_distance
_ccdc_geom_bond_type
C15   H6    1.084103 S    
C11   C17   1.460131 S    
O7    Zn2   1.970778 S    
C12   C18   1.460868 S    
C7    H3    1.083393 S    
C13   C15   1.398544 A    
C8    H4    1.083431 S    
C21   H9    1.111111 S    
C13   C21   1.505722 S    
C12   C14   1.410886 A    
C17   C18   1.339484 D    
O6    C4    1.277116 A    
C4    C6    1.453601 S    
C14   C16   1.394987 A    
C19   C20   1.164942 T    
C6    C16   1.402195 A    
C22   H12   1.110910 S    
O5    C3    1.278036 A    
C21   H10   1.110144 S    
Zn2   N1    1.973741 S    
C3    C5    1.453485 S    
O2    C2    1.261857 A    
O3    Zn2   1.954134 S    
O8    C4    1.278875 A    
Zn1   N2    1.973741 S    
O1    C1    1.261874 A    
O7    C3    1.276687 A    
H1    C10   1.082650 S    
C5    C7    1.400188 A    
C10   C12   1.404516 A    
N1    N2    1.193445 T    
H2    C9    1.084215 S    
C22   H13   1.108825 S    
C7    C9    1.379889 A    
O2    Zn2   1.954158 S    
C21   H11   1.110227 S    
C8    C10   1.381567 A    
C14   C22   1.506866 S    
C18   H7    1.086572 S    
C11   C13   1.412380 A    
C5    C15   1.400858 A    
O5    Zn1   1.981381 S    
C9    C11   1.400087 A    
O1    Zn1   1.954157 S    
C17   H8    1.085841 S    
O4    C2    1.261840 A    
C22   H14   1.110516 S    
O4    Zn1   1.954135 S    
O6    Zn2   1.981381 S    
C2    C20   1.365452 S    
C16   H5    1.083836 S    
C6    C8    1.396879 A    
O3    C1    1.261832 A    
O8    Zn1   1.970778 S    
C1    C19   1.365347 S    
