data_mof_unit_53099.cif
_audit_creation_date              2012-12-11T15:09:39-0500
_audit_creation_method            fapswitch 2.2
_symmetry_space_group_name_H-M    P1
_symmetry_Int_Tables_number       1
_space_group_crystal_system       triclinic
_cell_length_a                    21.018683
_cell_length_b                    7.128957
_cell_length_c                    14.042637
_cell_angle_alpha                 89.689662
_cell_angle_beta                  98.562347
_cell_angle_gamma                 90.407314
_cell_volume                      2080.64189881

loop_
_atom_site_label
_atom_site_type_symbol
_atom_type_description
_atom_site_fract_x
_atom_site_fract_y
_atom_site_fract_z
_atom_type_partial_charge
O1    O     O_R   0.447130 0.507140 0.597350 -0.538423
O2    O     O_R   0.552870 0.007140 0.402650 -0.538030
O3    O     O_R   0.578910 0.181280 0.586990 -0.538933
O4    O     O_R   0.421090 0.681280 0.413010 -0.539131
C1    C     C_R   0.604480 0.344684 0.607444 0.725863
C2    C     C_R   0.395518 0.844261 0.392572 0.725531
O5    O     O_R   0.449230 0.177860 0.608640 -0.541691
O6    O     O_R   0.550770 0.677860 0.391360 -0.541798
O7    O     O_R   0.422260 0.000770 0.424450 -0.534962
O8    O     O_R   0.577740 0.500770 0.575550 -0.535199
C3    C     C_R   0.433209 0.345427 0.634528 0.689192
C4    C     C_R   0.566787 0.847201 0.365494 0.688830
O9    O     O_3   0.491310 0.336980 0.439550 -0.375265
O10   O     O_3   0.508690 0.836980 0.560450 -0.375114
V1    V     V_3+5 0.501610 0.064760 0.511210 1.427301
V2    V     V_3+5 0.498390 0.564760 0.488790 1.426203
C5    C     C_R   0.614386 0.919175 0.122143 -0.154497
C6    C     C_R   0.386252 0.321165 0.880176 -0.155376
H1    H     H_    0.691133 0.928281 0.996050 0.138096
H2    H     H_    0.309708 0.324175 0.005879 0.137610
H3    H     H_    0.590888 0.946892 0.049406 0.110848
H4    H     H_    0.409955 0.306354 0.953832 0.110740
C7    C     C_R   0.605659 0.860322 0.288401 -0.026818
C8    C     C_R   0.394541 0.349871 0.711950 -0.026104
C9    C     C_R   0.917164 0.839452 0.300554 0.136209
C10   C     C_R   0.083310 0.364491 0.698815 0.149257
C11   C     C_R   0.878962 0.839814 0.373676 -0.111365
C12   C     C_R   0.121172 0.354024 0.626127 -0.148948
C13   C     C_R   0.812758 0.851680 0.352699 -0.200707
C14   C     C_R   0.187403 0.346880 0.647386 -0.183672
C15   C     C_R   0.780549 0.858951 0.257008 0.065643
C16   C     C_R   0.219585 0.353158 0.743236 0.064771
C17   C     C_R   0.817756 0.862808 0.179187 -0.015714
C18   C     C_R   0.182260 0.358087 0.821095 -0.028818
C19   C     C_R   0.712042 0.866114 0.237667 0.081340
C20   C     C_R   0.288166 0.351080 0.762780 0.080903
C21   C     C_R   0.681510 0.898817 0.142586 0.090359
C22   C     C_R   0.318951 0.335033 0.858871 0.090661
C23   C     C_R   0.717226 0.905485 0.067393 -0.180411
C24   C     C_R   0.283267 0.335787 0.934043 -0.176781
C25   C     C_R   0.783850 0.874650 0.081639 0.075650
C26   C     C_R   0.216175 0.356639 0.918918 0.075180
C27   C     C_R   0.672299 0.841252 0.309814 -0.205698
C28   C     C_R   0.327791 0.364332 0.689797 -0.206368
C29   C     C_R   0.576751 0.902224 0.195043 -0.167403
C30   C     C_R   0.423756 0.325960 0.806832 -0.167006
C31   C     C_R   0.886916 0.855393 0.203523 -0.122492
C32   C     C_R   0.113010 0.363816 0.796316 -0.095256
H5    H     H_    0.788133 0.859194 0.414487 0.117737
H6    H     H_    0.211968 0.332219 0.585916 0.118593
H7    H     H_    0.899713 0.833221 0.448794 0.131833
H8    H     H_    0.099070 0.349620 0.551312 0.123360
C33   C     C_1   0.166508 0.858117 0.168453 -0.187577
C34   C     C_1   0.833491 0.356532 0.831580 -0.187699
C35   C     C_1   0.218911 0.855777 0.219553 -0.005660
C36   C     C_1   0.781084 0.354493 0.780497 -0.007163
C37   C     C_1   0.280691 0.853541 0.279475 -0.005423
C38   C     C_1   0.719310 0.353573 0.720559 -0.005670
C39   C     C_1   0.333088 0.850659 0.330628 -0.198089
C40   C     C_1   0.666915 0.351536 0.669384 -0.198233
O11   O     O_R   0.922300 0.202240 0.924350 -0.537419
O12   O     O_R   0.077700 0.702240 0.075650 -0.536472
O13   O     O_R   0.050780 0.535130 0.891350 -0.548095
O14   O     O_R   0.949220 0.035130 0.108650 -0.541320
C41   C     C_R   0.069906 0.369264 0.868933 0.684443
C42   C     C_R   0.929747 0.867584 0.130508 0.663811
O15   O     O_R   0.921100 0.531560 0.912990 -0.541674
O16   O     O_R   0.078900 0.031560 0.087010 -0.541949
O17   O     O_R   0.947120 0.708470 0.097370 -0.544168
O18   O     O_R   0.052880 0.208470 0.902630 -0.542295
C43   C     C_R   0.895932 0.363329 0.893350 0.724142
C44   C     C_R   0.104074 0.863862 0.106638 0.715637
O19   O     O_3   0.008710 0.375800 0.060400 -0.372730
O20   O     O_3   0.991290 0.875800 0.939600 -0.374920
V3    V     V_3+5 0.998380 0.648080 0.988790 1.382682
V4    V     V_3+5 0.001620 0.148080 0.011210 1.389502
H9    H     H_    0.525097 0.919477 0.178554 0.101458
H10   H     H_    0.475513 0.312247 0.824004 0.101130
H11   H     H_    0.691099 0.804797 0.383128 0.096037
H12   H     H_    0.308850 0.386353 0.615030 0.095261
C45   C     C_3   0.990544 0.824723 0.323489 -0.343459
C46   C     C_3   0.018847 0.802254 0.429725 -0.790349
H13   H     H_    0.008271 0.927689 0.470923 0.225662
H14   H     H_    0.999471 0.673846 0.460459 0.222070
H15   H     H_    0.071928 0.788489 0.436406 0.225425
H16   H     H_    0.006222 0.701777 0.284741 0.182641
H17   H     H_    0.012468 0.952442 0.295836 0.176020
C47   C     C_3   0.010796 0.374088 0.669249 -0.377273
C48   C     C_3   0.979760 0.179737 0.668409 -0.746760
H18   H     H_    0.001722 0.084845 0.620237 0.221451
H19   H     H_    0.985776 0.118063 0.741778 0.243682
H20   H     H_    0.927470 0.190701 0.641658 0.212441
H21   H     H_    0.988415 0.468572 0.717202 0.177009
H22   H     H_    0.999249 0.435523 0.595816 0.173365
C49   C     C_3   0.816324 0.846913 0.992225 -0.326490
C50   C     C_3   0.773325 0.835025 0.894083 -0.775714
H23   H     H_    0.736901 0.721321 0.894116 0.230062
H24   H     H_    0.749543 0.971458 0.874679 0.226671
H25   H     H_    0.803483 0.802260 0.837810 0.228694
H26   H     H_    0.850084 0.964222 0.986454 0.201949
H27   H     H_    0.841825 0.711403 0.000756 0.200931
C51   C     C_3   0.182945 0.379977 0.007875 -0.333018
C52   C     C_3   0.225138 0.395140 0.106549 -0.772527
H28   H     H_    0.251095 0.261816 0.125694 0.225549
H29   H     H_    0.259654 0.514109 0.107551 0.230307
H30   H     H_    0.194041 0.421485 0.162416 0.228954
H31   H     H_    0.155455 0.511916 0.998986 0.199702
H32   H     H_    0.151090 0.258060 0.013296 0.205723

loop_
_geom_bond_atom_site_label_1
_geom_bond_atom_site_label_2
_ccdc_geom_bond_type
C22   C24   A    
O13   C41   A    
C7    C29   A    
C11   C13   A    
C49   C50   S    
O1    C3    A    
O2    C4    A    
C2    O7    A    
C45   C46   S    
O15   V3    S    
C23   C25   A    
C13   H5    S    
O5    C3    A    
C4    C7    S    
O20   V4    S    
C16   C20   A    
C19   C21   A    
C5    C29   A    
H2    C24   S    
C37   C39   T    
C42   O17   A    
C38   C40   T    
C41   O18   A    
C50   H25   S    
C26   C51   S    
C3    C8    S    
C7    C27   A    
C34   C43   S    
C18   C26   A    
C50   H24   S    
C15   C17   A    
C51   H32   S    
C32   C41   S    
C48   H19   S    
C19   C27   A    
C9    C31   A    
C31   C42   S    
C45   H16   S    
C10   C32   A    
O11   C43   A    
C24   C26   A    
C14   H6    S    
O6    V2    S    
C9    C45   S    
O19   V3    S    
C6    C30   A    
C11   H7    S    
C47   H22   S    
C33   C35   T    
O11   V4    S    
C34   C36   T    
O20   V3    S    
C28   H12   S    
O4    C2    A    
C30   H10   S    
C49   H26   S    
O5    V1    S    
C5    H3    S    
O16   C44   A    
C16   C18   A    
O4    V2    S    
O6    C4    A    
C50   H23   S    
O14   V4    S    
O12   C44   A    
C51   H31   S    
C52   H29   S    
O1    V2    S    
C5    C21   A    
C48   H20   S    
O2    V1    S    
C45   H17   S    
H1    C23   S    
C10   C47   S    
C46   H14   S    
C35   C37   S    
O18   V4    S    
C17   C31   A    
O19   V4    S    
C15   C19   A    
O12   V3    S    
C20   C28   A    
C9    C11   A    
O3    V1    S    
C47   H21   S    
C1    C40   S    
C6    H4    S    
C2    C39   S    
O3    C1    A    
O16   V4    S    
C46   H15   S    
C10   C12   A    
C8    C30   A    
C20   C22   A    
C6    C22   A    
C17   C25   A    
C1    O8    A    
C21   C23   A    
O8    V2    S    
C14   C16   A    
C12   H8    S    
C25   C49   S    
O13   V3    S    
C8    C28   A    
C12   C14   A    
C36   C38   S    
O17   V3    S    
C52   H30   S    
O15   C43   A    
O7    V1    S    
C51   C52   S    
C18   C32   A    
C47   C48   S    
C13   C15   A    
C46   H13   S    
O9    V2    S    
C52   H28   S    
O10   V1    S    
C29   H9    S    
C48   H18   S    
C33   C44   S    
C27   H11   S    
C49   H27   S    
O14   C42   A    
