data_mof_unit_33735.cif
_audit_creation_date              2012-12-11T15:57:43-0500
_audit_creation_method            fapswitch 2.2
_symmetry_space_group_name_H-M    P1
_symmetry_Int_Tables_number       1
_space_group_crystal_system       triclinic
_cell_length_a                    10.726084
_cell_length_b                    10.803058
_cell_length_c                    17.016174
_cell_angle_alpha                 99.898128
_cell_angle_beta                  99.821228
_cell_angle_gamma                 61.229662
_cell_volume                      1693.78243154

loop_
_atom_site_label
_atom_site_type_symbol
_atom_type_description
_atom_site_fract_x
_atom_site_fract_y
_atom_site_fract_z
_atom_type_partial_charge
C1    C     C_R   0.355482 0.773137 0.400894 0.563971
C2    C     C_2   0.805220 0.348015 0.150774 -0.046880
C3    C     C_2   0.784732 0.253263 0.180654 0.063323
C4    C     C_2   0.754734 0.279310 0.264320 -0.170209
C5    C     C_2   0.332158 0.845720 0.330916 0.247843
C6    C     C_2   0.349178 0.819126 0.155993 -0.019811
C7    C     C_2   0.437596 0.847112 0.213955 0.075885
C8    C     C_2   0.448493 0.812950 0.294926 -0.127578
C9    C     C_2   0.320881 0.317241 0.646457 -0.038715
C10   C     C_2   0.258228 0.261946 0.794601 0.041405
C11   C     C_2   0.357895 0.164001 0.748143 -0.094635
C12   C     C_R   0.369508 0.346438 0.357174 0.550517
C13   C     C_2   0.369815 0.184610 0.666361 0.262210
C14   C     C_1   0.809481 0.345477 0.710001 -0.041790
C15   C     C_1   0.835854 0.316232 0.777565 -0.053714
C16   C     C_1   0.358802 0.764139 0.713523 -0.044185
C17   C     C_1   0.325801 0.811443 0.780374 -0.044247
C18   C     C_R   0.888772 0.311063 0.084092 0.575220
C19   C     C_R   0.319279 0.299900 0.119657 0.560981
C20   C     C_R   0.295032 0.890849 0.083580 0.570402
C21   C     C_R   0.882206 0.298163 0.859504 0.533582
C22   C     C_R   0.271849 0.247237 0.879608 0.581757
C23   C     C_R   0.767157 0.381517 0.401248 0.552554
C24   C     C_R   0.280385 0.881127 0.857142 0.538249
C25   C     C_R   0.381575 0.714249 0.631362 0.563358
C26   C     C_R   0.366616 0.344904 0.579733 0.558631
C27   C     C_R   0.769996 0.382815 0.630482 0.557178
C28   C     C_1   0.343282 0.336465 0.273812 -0.048502
C29   C     C_1   0.331931 0.326858 0.202939 -0.041910
C30   C     C_2   0.811273 0.346926 0.321279 -0.150195
Cr1   Cr    Cr6+3 0.608020 0.610770 0.522990 0.998416
Cr2   Cr    Cr6+3 0.289390 0.599570 0.488050 1.014782
Cr3   Cr    Cr6+3 0.602610 0.289690 0.489020 0.996893
Cr4   Cr    Cr6+3 0.053780 0.052210 0.965970 1.049450
Cr5   Cr    Cr6+3 0.060060 0.372530 0.992430 1.027508
Cr6   Cr    Cr6+3 0.372600 0.061970 0.991430 1.037315
H1    H     H_    0.271177 0.411035 0.687500 0.095544
H2    H     H_    0.688077 0.238197 0.279342 0.158342
H3    H     H_    0.778607 0.451623 0.183964 0.076713
H4    H     H_    0.879582 0.387027 0.307452 0.095775
H5    H     H_    0.555896 0.757592 0.324557 0.108341
H6    H     H_    0.296453 0.761136 0.168313 0.120928
H7    H     H_    0.440298 0.068243 0.773299 0.107928
O1    O     O_R   0.749250 0.499990 0.439200 -0.515603
O2    O     O_R   0.299400 0.468710 0.556310 -0.524557
O3    O     O_R   0.489240 0.256450 0.560730 -0.482400
O4    O     O_R   0.723350 0.306730 0.584410 -0.504023
O5    O     O_3   0.500010 0.500010 0.500020 -0.272335
O6    O     O_R   0.170650 0.915100 0.051290 -0.510542
O7    O     O_R   0.941960 0.184500 0.049060 -0.448520
O8    O     O_R   0.922640 0.402670 0.071640 -0.525083
O9    O     O_R   0.196880 0.368740 0.083740 -0.488959
O10   O     O_R   0.411120 0.181190 0.091480 -0.501622
O11   O     O_R   0.364220 0.944920 0.062310 -0.456047
O12   O     O_R   0.477870 0.725740 0.440280 -0.530193
O13   O     O_R   0.158740 0.906940 0.874970 -0.504036
O14   O     O_R   0.930920 0.176940 0.885610 -0.493417
O15   O     O_R   0.910730 0.394510 0.895320 -0.526833
O16   O     O_R   0.185840 0.361180 0.920280 -0.496342
O17   O     O_R   0.399210 0.173040 0.915160 -0.517920
O18   O     O_R   0.353170 0.937370 0.898860 -0.523984
O19   O     O_3   0.162150 0.162240 0.983280 -0.289560
O20   O     O_R   0.260770 0.742210 0.412610 -0.507871
O21   O     O_R   0.297990 0.466320 0.394220 -0.494278
O22   O     O_R   0.487720 0.253870 0.385870 -0.527003
O23   O     O_R   0.721940 0.304340 0.422320 -0.508564
O24   O     O_R   0.750770 0.502570 0.614050 -0.512969
O25   O     O_R   0.479280 0.728140 0.602370 -0.488533
O26   O     O_R   0.262290 0.744790 0.587460 -0.501188
N1    N     N_3   0.793631 0.126710 0.132720 -0.581607
H8    H     H_    0.700895 0.119899 0.136448 0.240679
H9    H     H_    0.880830 0.039351 0.157030 0.247622
O27   O     O_3   0.441359 0.068214 0.611904 -0.533468
C31   C     C_3   0.583071 0.982662 0.644231 0.014294
H10   H     H_    0.584842 0.905042 0.680178 0.145545
H11   H     H_    0.631630 0.046586 0.682432 0.122295
C32   C     C_3   0.676041 0.900196 0.576106 -0.325715
H12   H     H_    0.680657 0.974504 0.540381 0.154913
H13   H     H_    0.786205 0.828896 0.600917 0.088170
H14   H     H_    0.631753 0.835067 0.536254 0.189612
N2    N     N_3   0.131707 0.377106 0.761194 -0.651319
H15   H     H_    0.126067 0.472812 0.790499 0.244492
H16   H     H_    0.043528 0.371117 0.773537 0.252619
N3    N     N_3   0.518987 0.912894 0.199346 -0.580552
H17   H     H_    0.627099 0.844750 0.214214 0.214134
H18   H     H_    0.491092 0.006176 0.238340 0.240656
O28   O     O_3   0.195641 0.918949 0.292197 -0.580497
C33   C     C_3   0.096767 0.014725 0.346623 0.018067
H19   H     H_    0.052122 0.121430 0.326979 0.151850
H20   H     H_    0.143267 0.023679 0.409894 0.127653
C34   C     C_3   0.976055 0.976624 0.344214 -0.348643
H21   H     H_    0.017401 0.865387 0.356220 0.179940
H22   H     H_    0.903497 0.046538 0.390165 0.123866
H23   H     H_    0.914205 0.989027 0.284544 0.135143

loop_
_geom_bond_atom_site_label_1
_geom_bond_atom_site_label_2
_ccdc_geom_bond_type
O28   C33   S    
Cr4   O13   S    
C24   O18   A    
C9    C26   S    
C2    C18   S    
O27   C31   S    
N2    H15   S    
Cr3   O22   S    
C7    C8    S    
C32   H12   S    
C10   C22   S    
Cr1   O24   S    
C31   H11   S    
C12   C28   S    
Cr5   O15   S    
C1    C5    S    
C23   O23   A    
C28   C29   T    
N3    H18   S    
C19   O9    A    
C22   O17   A    
C12   O21   A    
Cr4   O19   S    
Cr5   O16   S    
Cr2   O2    S    
C9    C13   D    
Cr6   O10   S    
C26   O2    A    
C2    H3    S    
C16   C17   T    
C31   C32   S    
Cr3   O23   S    
Cr4   O14   S    
C11   H7    S    
N1    H8    S    
C14   C27   S    
C19   O10   A    
C7    N3    S    
Cr3   O3    S    
Cr2   O5    S    
C25   O25   A    
Cr6   O19   S    
C1    O20   A    
N2    H16   S    
C18   O8    A    
C32   H13   S    
Cr1   O25   S    
Cr4   O7    S    
C17   C24   S    
Cr1   O1    S    
C23   C30   S    
C3    N1    S    
Cr6   O11   S    
N3    H17   S    
Cr2   O21   S    
C20   O11   A    
C31   H10   S    
C22   O16   A    
C23   O1    A    
C21   O14   A    
C20   O6    A    
C34   H22   S    
C33   C34   S    
C9    H1    S    
C30   H4    S    
C8    H5    S    
Cr2   O26   S    
C13   O27   S    
Cr1   O5    S    
Cr5   O8    S    
Cr3   O4    S    
C25   O26   A    
C3    C4    S    
C19   C29   S    
C34   H21   S    
C18   O7    A    
C32   H14   S    
C27   O4    A    
C16   C25   S    
Cr4   O6    S    
Cr2   O20   S    
C33   H20   S    
Cr6   O17   S    
C5    C8    D    
C6    C7    D    
C24   O13   A    
C6    C20   S    
C12   O22   A    
C10   N2    S    
C2    C3    D    
C1    O12   A    
C21   O15   A    
C34   H23   S    
C11   C13   S    
Cr5   O19   S    
C27   O24   A    
C10   C11   D    
C26   O3    A    
C5    O28   S    
C15   C21   S    
C33   H19   S    
C6    H6    S    
Cr5   O9    S    
Cr3   O5    S    
C14   C15   T    
N1    H9    S    
Cr1   O12   S    
C4    H2    S    
C4    C30   D    
Cr6   O18   S    
