data_mof_unit_53911.cif
_audit_creation_date              2012-12-10T16:49:28-0500
_audit_creation_method            fapswitch 2.2
_symmetry_space_group_name_H-M    P1
_symmetry_Int_Tables_number       1
_space_group_crystal_system       triclinic
_cell_length_a                    7.753618
_cell_length_b                    8.578143
_cell_length_c                    12.850846
_cell_angle_alpha                 90.200474
_cell_angle_beta                  87.656791
_cell_angle_gamma                 93.55848
_cell_volume                      852.369240829

loop_
_atom_site_label
_atom_site_type_symbol
_atom_type_description
_atom_site_fract_x
_atom_site_fract_y
_atom_site_fract_z
_atom_type_partial_charge
C1    C     C_R   0.454686 0.205245 0.497272 0.968876
C2    C     C_R   0.696206 0.425355 0.140857 -0.189098
C3    C     C_R   0.571910 0.443834 0.868648 -0.184523
C4    C     C_R   0.428090 0.556165 0.131352 -0.184525
C5    C     C_R   0.569460 0.461933 0.975321 0.026277
C6    C     C_R   0.430540 0.538065 0.024679 0.026276
C7    C     C_2   0.430812 0.041794 0.495723 -0.359525
C8    C     C_2   0.569188 0.958206 0.504276 -0.359526
C9    C     C_R   0.545314 0.794755 0.502728 0.968877
C10   C     C_R   0.465003 0.501206 0.699766 0.910372
C11   C     C_R   0.534997 0.498793 0.300233 0.910372
C12   C     C_R   0.556966 0.496404 0.189037 -0.147019
C13   C     C_R   0.443034 0.503594 0.810963 -0.147020
C14   C     C_R   0.296522 0.592700 0.966250 0.442546
C15   C     C_R   0.703477 0.407296 0.033750 0.442546
C16   C     C_R   0.303793 0.574642 0.859143 -0.189099
Cl1   Cl    Cl    0.119769 0.687572 0.022605 -0.581996
Cl2   Cl    Cl    0.880228 0.312422 0.977395 -0.581997
H1    H     H_    0.323762 0.613976 0.170790 0.216233
H2    H     H_    0.676238 0.386023 0.829210 0.216232
H3    H     H_    0.795886 0.379340 0.186551 0.196031
H4    H     H_    0.204111 0.620653 0.813449 0.196032
H5    H     H_    0.998693 0.615453 0.421826 0.202313
H6    H     H_    0.001307 0.384547 0.578174 0.202313
H7    H     H_    0.300080 0.990762 0.487568 0.184839
H8    H     H_    0.699920 0.009238 0.512432 0.184839
N1    N     N_2   0.054030 0.541640 0.471970 -0.170799
N2    N     N_2   0.945970 0.458360 0.528030 -0.170800
O1    O     O_R   0.609680 0.261530 0.506880 -0.614662
O2    O     O_R   0.390320 0.738470 0.493120 -0.614662
O3    O     O_R   0.323330 0.288220 0.488910 -0.626062
O4    O     O_R   0.676670 0.711780 0.511090 -0.626062
O5    O     O_R   0.619510 0.488830 0.661140 -0.615080
O6    O     O_R   0.380490 0.511170 0.338860 -0.615080
O7    O     O_R   0.333160 0.515520 0.643180 -0.627563
O8    O     O_R   0.666840 0.484480 0.356820 -0.627562
Zn1   Zn    Zn3+2 0.691200 0.482180 0.511990 0.968842
Zn2   Zn    Zn3+2 0.308800 0.517820 0.488010 0.968842

loop_
_geom_bond_atom_site_label_1
_geom_bond_atom_site_label_2
_ccdc_geom_bond_type
C15   Cl2   S    
C11   C12   S    
C10   O7    A    
H5    N1    S    
C4    C12   A    
C8    H8    S    
C7    H7    S    
O3    Zn2   S    
C1    O3    A    
C2    C12   A    
C2    H3    S    
C1    O1    A    
C3    H2    S    
C1    C7    S    
O4    Zn1   S    
C2    C15   A    
C14   Cl1   S    
N2    Zn1   S    
C9    O2    A    
C11   O8    A    
C10   O5    A    
C5    C6    A    
C14   C16   A    
C5    C15   A    
C6    C14   A    
N1    Zn2   S    
C7    C8    D    
O7    Zn2   S    
O2    Zn2   S    
C4    C6    A    
C13   C16   A    
O1    Zn1   S    
N1    N2    D    
O8    Zn1   S    
C16   H4    S    
C9    O4    A    
O6    Zn2   S    
C4    H1    S    
C11   O6    A    
O5    Zn1   S    
H6    N2    S    
C8    C9    S    
C3    C5    A    
C10   C13   S    
C3    C13   A    
