data_mof_unit_28283.cif
_audit_creation_date              2013-03-05T16:04:28-0500
_audit_creation_method            fapswitch 2.2
_symmetry_space_group_name_H-M    P1
_symmetry_Int_Tables_number       1
_space_group_crystal_system       triclinic
_cell_length_a                    10.795795
_cell_length_b                    9.505278
_cell_length_c                    15.081535
_cell_angle_alpha                 89.602364
_cell_angle_beta                  91.261025
_cell_angle_gamma                 90.059157
_cell_volume                      1547.20969304

loop_
_atom_site_label
_atom_site_type_symbol
_atom_site_description
_atom_site_fract_x
_atom_site_fract_y
_atom_site_fract_z
_atom_type_partial_charge
O1    O     O_R   0.319640 0.618740 0.499990 -0.540270
O2    O     O_R   0.680360 0.381260 0.500010 -0.540239
O3    O     O_R   0.680360 0.618740 0.500010 -0.558267
O4    O     O_R   0.319640 0.381260 0.499990 -0.558266
C1    C     C_R   0.262196 0.499783 0.500793 0.968774
C2    C     C_R   0.737803 0.500220 0.499192 0.968876
O5    O     O_R   0.499970 0.618800 0.370260 -0.604930
O6    O     O_R   0.500030 0.381200 0.629740 -0.604923
O7    O     O_R   0.500030 0.618800 0.629740 -0.540061
O8    O     O_R   0.499970 0.381200 0.370260 -0.540028
C3    C     C_R   0.494376 0.500522 0.328893 0.871171
C4    C     C_R   0.505621 0.499474 0.671108 0.871270
Cu1   Cu    Cu3+1 0.500000 0.640660 0.500000 1.032021
Cu2   Cu    Cu3+1 0.500000 0.359340 0.500000 1.032045
C5    C     C_R   0.603532 0.427264 0.817136 -0.156548
C6    C     C_R   0.396462 0.572655 0.182851 -0.156592
C7    C     C_R   0.510178 0.499520 0.767771 -0.217318
C8    C     C_R   0.489819 0.500440 0.232234 -0.217245
C9    C     C_R   0.416497 0.571740 0.810412 0.528666
C10   C     C_R   0.583471 0.428141 0.189607 0.528624
C11   C     C_R   0.409658 0.567179 0.902387 -0.026280
C12   C     C_R   0.590290 0.432617 0.097628 -0.026371
C13   C     C_R   0.504140 0.501224 0.953355 -0.006462
C14   C     C_R   0.495810 0.498542 0.046650 -0.006421
C15   C     C_R   0.607039 0.439093 0.911214 0.024077
C16   C     C_R   0.392918 0.560679 0.088788 0.023977
C17   C     C_R   0.305839 0.621906 0.943338 -0.209446
C18   C     C_R   0.694081 0.377826 0.056683 -0.209409
C19   C     C_R   0.292117 0.610865 0.034746 -0.016671
C20   C     C_R   0.707799 0.388803 0.965272 -0.016700
H1    H     H_    0.230469 0.665385 0.903298 0.194223
H2    H     H_    0.769448 0.334351 0.096733 0.194337
C21   C     C_R   0.062779 0.391966 0.457063 0.434559
C22   C     C_R   0.937220 0.608069 0.542873 0.434547
C23   C     C_R   0.934591 0.393141 0.455642 0.506298
C24   C     C_R   0.065405 0.606882 0.544303 0.506146
C25   C     C_R   0.871546 0.500971 0.498717 -0.488927
C26   C     C_R   0.128451 0.499049 0.501235 -0.489077
C27   C     C_R   0.415782 0.074821 0.449334 0.026024
C28   C     C_R   0.584223 0.925180 0.550662 0.025990
C29   C     C_R   0.584270 0.074094 0.550437 0.023521
C30   C     C_R   0.415742 0.925907 0.449554 0.023588
H3    H     H_    0.348449 0.131216 0.408588 0.167762
H4    H     H_    0.651559 0.868784 0.591405 0.167740
H5    H     H_    0.651680 0.130374 0.590288 0.150406
H6    H     H_    0.348352 0.869631 0.409685 0.150379
N1    N     N_R   0.500000 0.852070 0.500000 -0.176256
N2    N     N_R   0.500000 0.147930 0.500000 -0.176266
C31   C     C_R   0.686800 0.327275 0.771949 0.156050
C32   C     C_R   0.679031 0.182584 0.791210 -0.132960
C33   C     C_R   0.765413 0.089011 0.757069 -0.189372
C34   C     C_R   0.859887 0.139061 0.703370 -0.082084
C35   C     C_R   0.866738 0.282289 0.682526 -0.099293
C36   C     C_R   0.779414 0.376093 0.715453 -0.156495
H7    H     H_    0.608069 0.143067 0.834559 0.137181
H8    H     H_    0.759874 0.977991 0.772977 0.154805
H9    H     H_    0.927691 0.066892 0.677868 0.186166
H10   H     H_    0.941297 0.320779 0.642274 0.127658
H11   H     H_    0.787529 0.487329 0.700720 0.142743
C37   C     C_R   0.313326 0.672888 0.227953 0.156050
C38   C     C_R   0.220809 0.624420 0.284633 -0.156183
C39   C     C_R   0.133664 0.718470 0.317523 -0.099365
C40   C     C_R   0.140564 0.861587 0.296416 -0.082699
C41   C     C_R   0.234915 0.911284 0.242501 -0.189229
C42   C     C_R   0.321134 0.817473 0.208423 -0.132799
H12   H     H_    0.212652 0.513271 0.299576 0.142459
H13   H     H_    0.059230 0.680268 0.357980 0.127909
H14   H     H_    0.072906 0.933949 0.321898 0.186371
H15   H     H_    0.240489 0.022214 0.226377 0.154710
H16   H     H_    0.392004 0.856719 0.164914 0.137175
F1    F     F_    0.326044 0.637546 0.761333 -0.644465
F2    F     F_    0.673925 0.362358 0.238698 -0.644467
C43   C     C_R   0.164584 0.629349 0.067465 0.132265
C44   C     C_R   0.099926 0.755922 0.052511 -0.144453
C45   C     C_R   0.978002 0.770027 0.080651 -0.129376
C46   C     C_R   0.919629 0.657918 0.123352 -0.095993
C47   C     C_R   0.982771 0.531184 0.137336 -0.122161
C48   C     C_R   0.103971 0.515945 0.108232 -0.124665
H17   H     H_    0.144271 0.843692 0.019757 0.122910
H18   H     H_    0.928906 0.868023 0.069540 0.129530
H19   H     H_    0.825494 0.669139 0.145535 0.143111
H20   H     H_    0.938172 0.444807 0.171090 0.176780
H21   H     H_    0.151234 0.416495 0.118474 0.132974
C49   C     C_R   0.835323 0.370085 0.932592 0.132237
C50   C     C_R   0.896234 0.483473 0.892017 -0.124554
C51   C     C_R   0.017435 0.467984 0.862954 -0.122146
C52   C     C_R   0.080299 0.341028 0.876829 -0.096006
C53   C     C_R   0.021631 0.228935 0.919362 -0.129249
C54   C     C_R   0.899696 0.243284 0.947440 -0.144407
H22   H     H_    0.849195 0.583095 0.881872 0.132918
H23   H     H_    0.062239 0.554331 0.829301 0.176508
H24   H     H_    0.174439 0.329618 0.854686 0.142965
H25   H     H_    0.070500 0.130759 0.930383 0.129502
H26   H     H_    0.855112 0.155527 0.980059 0.122929
F3    F     F_    0.122413 0.288775 0.413036 -0.638503
F4    F     F_    0.877590 0.711267 0.586898 -0.638453
F5    F     F_    0.872267 0.290502 0.410947 -0.568303
F6    F     F_    0.127727 0.709512 0.589008 -0.568276

loop_
_geom_bond_atom_site_label_1
_geom_bond_atom_site_label_2
_geom_bond_distance
_ccdc_geom_bond_type
C28   N1    1.367095 A    
C52   C53   1.398166 A    
C3    C8    1.457522 S    
C17   C19   1.392962 A    
C22   C25   1.403429 A    
C43   C44   1.405928 A    
C9    F1    1.362244 S    
O3    C2    1.286799 A    
C35   C36   1.399586 A    
O5    C3    1.290261 A    
C39   H13   1.080639 S    
O1    C1    1.289170 A    
C9    C11   1.391090 A    
C14   C16   1.422747 A    
C51   H23   1.081380 S    
C50   C51   1.397282 A    
C5    C15   1.423735 A    
C19   C43   1.483782 S    
C38   H12   1.082645 S    
C31   C36   1.404295 A    
C33   H8    1.082471 S    
C30   H6    1.077669 S    
C54   H26   1.083230 S    
O7    Cu1   1.966239 S    
C21   C23   1.383631 A    
C53   H25   1.082505 S    
C48   H21   1.083198 S    
C4    C7    1.457574 S    
C43   C48   1.405414 A    
Cu1   Cu2   2.674025 S    
C45   H18   1.082402 S    
C8    C10   1.394259 A    
O3    Cu1   1.958455 S    
C5    C31   1.487798 S    
C11   C17   1.394412 A    
C12   C18   1.394350 A    
C52   H24   1.082528 S    
C20   C49   1.483751 S    
O2    C2    1.289187 A    
C21   F3    1.358903 S    
C27   C30   1.415446 A    
C36   H11   1.082771 S    
C6    C16   1.423642 A    
C50   H22   1.083306 S    
C44   C45   1.398709 A    
C17   H1    1.083115 S    
C33   C34   1.397300 A    
C18   H2    1.083149 S    
C46   C47   1.397198 A    
O8    Cu2   1.966239 S    
Cu1   N1    2.009511 S    
C51   C52   1.397345 A    
Cu2   N2    2.009512 S    
C47   C48   1.397227 A    
C37   C38   1.404180 A    
C45   C46   1.397995 A    
C39   C40   1.397252 A    
C28   H4    1.081640 S    
O6    C4    1.290238 A    
C32   C33   1.398246 A    
C2    C25   1.444054 S    
C41   H15   1.082356 S    
C49   C50   1.405557 A    
C6    C37   1.487803 S    
C28   C29   1.415452 A    
C10   C12   1.391107 A    
C37   C42   1.406363 A    
C44   H17   1.083093 S    
C11   C13   1.408696 A    
C12   C14   1.408634 A    
O1    Cu1   1.958028 S    
C49   C54   1.406038 A    
C34   H9    1.082321 S    
C34   C35   1.397371 A    
C15   C20   1.425869 A    
C5    C7    1.415276 A    
C40   H14   1.082297 S    
O6    Cu2   1.969106 S    
C23   C25   1.402128 A    
C21   C26   1.403422 A    
C22   F4    1.358913 S    
O4    C1    1.286819 A    
C46   H19   1.082486 S    
C27   H3    1.081641 S    
C35   H10   1.080785 S    
C32   H7    1.083259 S    
C41   C42   1.398144 A    
C24   C26   1.402109 A    
C23   F5    1.358941 S    
C47   H20   1.081306 S    
C18   C20   1.392967 A    
C7    C9    1.394223 A    
C29   N2    1.364659 A    
C22   C24   1.383603 A    
C30   N1    1.364660 A    
C13   C15   1.422816 A    
O4    Cu2   1.958456 S    
C38   C39   1.399551 A    
O2    Cu2   1.958027 S    
O7    C4    1.291519 A    
O8    C3    1.291484 A    
C13   C14   1.411929 A    
C40   C41   1.397140 A    
O5    Cu1   1.969106 S    
C53   C54   1.398752 A    
C16   C19   1.425735 A    
C6    C8    1.415250 A    
C31   C32   1.406493 A    
C29   H5    1.077690 S    
C10   F2    1.362258 S    
C24   F6    1.358936 S    
C1    C26   1.444059 S    
C42   H16   1.083151 S    
C27   N2    1.367091 A    
