data_mof_unit_66621.cif
_audit_creation_date              2012-12-11T15:36:04-0500
_audit_creation_method            fapswitch 2.2
_symmetry_space_group_name_H-M    P1
_symmetry_Int_Tables_number       1
_space_group_crystal_system       triclinic
_cell_length_a                    7.372906
_cell_length_b                    12.909062
_cell_length_c                    34.790011
_cell_angle_alpha                 89.836653
_cell_angle_beta                  91.776975
_cell_angle_gamma                 90.480374
_cell_volume                      3309.4995386

loop_
_atom_site_label
_atom_site_type_symbol
_atom_type_description
_atom_site_fract_x
_atom_site_fract_y
_atom_site_fract_z
_atom_type_partial_charge
O1    O     O_R   0.379730 0.148600 0.662710 -0.553937
O2    O     O_R   0.620270 0.851400 0.337290 -0.548872
O3    O     O_R   0.120270 0.648600 0.337290 -0.550699
O4    O     O_R   0.879730 0.351400 0.662710 -0.544862
O5    O     O_R   0.722480 0.134490 0.741330 -0.523769
O6    O     O_R   0.277520 0.865510 0.258670 -0.531957
O7    O     O_R   0.777520 0.634490 0.258670 -0.518787
O8    O     O_R   0.222480 0.365510 0.741330 -0.530001
O9    O     O_R   0.892880 0.345890 0.741600 -0.493863
O10   O     O_R   0.107120 0.654110 0.258400 -0.513862
O11   O     O_R   0.607120 0.845890 0.258400 -0.501441
O12   O     O_R   0.392880 0.154110 0.741600 -0.502391
C1    C     C_R   0.553795 0.110143 0.752546 0.874183
C2    C     C_R   0.446729 0.887194 0.245472 0.847293
C3    C     C_R   0.945720 0.613268 0.245683 0.856631
C4    C     C_R   0.055202 0.381043 0.756546 0.852709
O13   O     O_R   0.709490 0.135560 0.662990 -0.524682
O14   O     O_R   0.290510 0.864440 0.337010 -0.535060
O15   O     O_R   0.790510 0.635560 0.337010 -0.528920
O16   O     O_R   0.209490 0.364440 0.662990 -0.544111
C5    C     C_R   0.538797 0.109109 0.651839 0.738151
C6    C     C_R   0.462989 0.891383 0.347711 0.744702
C7    C     C_R   0.959542 0.609978 0.348253 0.722346
C8    C     C_R   0.038946 0.392918 0.652956 0.760548
O17   O     O_3   0.552800 0.316610 0.702160 -0.383625
O18   O     O_3   0.447200 0.683390 0.297840 -0.381084
O19   O     O_3   0.947200 0.816610 0.297840 -0.404522
O20   O     O_3   0.052800 0.183390 0.702160 -0.378427
V1    V     V_3+5 0.827630 0.234380 0.702160 1.716104
V2    V     V_3+5 0.172370 0.765620 0.297840 1.632883
V3    V     V_3+5 0.672370 0.734380 0.297840 1.680000
V4    V     V_3+5 0.327630 0.265620 0.702160 1.669787
C9    C     C_R   0.092863 0.655172 0.927003 0.628270
C10   C     C_R   0.937143 0.309780 0.088214 0.521891
C11   C     C_R   0.423796 0.169906 0.078882 0.627525
C12   C     C_R   0.527625 0.819167 0.909573 0.568075
O21   O     O_2   0.160758 0.562539 0.935331 -0.563655
O22   O     O_2   0.906759 0.407997 0.077971 -0.524010
O23   O     O_2   0.350334 0.077746 0.071774 -0.564113
O24   O     O_2   0.538361 0.919938 0.917414 -0.520603
N1    N     N_R   0.043457 0.677097 0.889197 -0.501138
N2    N     N_R   0.957623 0.284529 0.126899 -0.530686
N3    N     N_R   0.470944 0.193313 0.116491 -0.505536
N4    N     N_R   0.517382 0.788113 0.871586 -0.521869
C13   C     C_R   0.982188 0.774955 0.881276 0.528320
C14   C     C_R   0.978739 0.181410 0.136053 0.578021
C15   C     C_R   0.515251 0.294794 0.124530 0.533275
C16   C     C_R   0.514753 0.683597 0.864271 0.571074
C17   C     C_R   0.124778 0.622483 0.821938 -0.088801
C18   C     C_R   0.870051 0.356270 0.191609 -0.010490
C19   C     C_R   0.371939 0.132231 0.181972 -0.101290
C20   C     C_R   0.624484 0.855285 0.807373 -0.040992
C21   C     C_R   0.129629 0.551333 0.791103 -0.150093
C22   C     C_R   0.860179 0.437430 0.218410 -0.151884
C23   C     C_R   0.357511 0.057392 0.211654 -0.125618
C24   C     C_R   0.643876 0.935911 0.780488 -0.165653
C25   C     C_R   0.966040 0.425749 0.828351 0.304363
C26   C     C_R   0.058975 0.543314 0.180576 0.417256
C27   C     C_R   0.566415 0.948366 0.179274 0.313592
C28   C     C_R   0.439321 0.041216 0.815203 0.375876
C29   C     C_R   0.969529 0.496881 0.860464 -0.179802
C30   C     C_R   0.066929 0.460312 0.153047 -0.140963
C31   C     C_R   0.552817 0.014169 0.146067 -0.185680
C32   C     C_R   0.413749 0.958375 0.841274 -0.073269
C33   C     C_R   0.047741 0.598241 0.857627 0.267142
C34   C     C_R   0.965291 0.366576 0.157273 0.155711
C35   C     C_R   0.465257 0.113241 0.147752 0.264818
C36   C     C_R   0.516462 0.866024 0.839976 0.176786
C37   C     C_R   0.007233 0.826801 0.948989 -0.037193
C38   C     C_R   0.969964 0.131623 0.067864 0.027084
C39   C     C_R   0.508768 0.342503 0.056036 -0.046612
C40   C     C_R   0.529748 0.641822 0.933400 0.020573
C41   C     C_R   0.066387 0.726368 0.957774 -0.110798
C42   C     C_R   0.946003 0.235127 0.058370 -0.133349
C43   C     C_R   0.451770 0.240158 0.047565 -0.125411
C44   C     C_R   0.536374 0.747545 0.940977 -0.165012
C45   C     C_R   0.082129 0.699538 0.997336 -0.043069
C46   C     C_R   0.943000 0.261804 0.019001 -0.039653
C47   C     C_R   0.430616 0.212796 0.007919 -0.029054
C48   C     C_R   0.545080 0.778289 0.979926 -0.010500
C49   C     C_R   0.961375 0.850025 0.910645 -0.068680
C50   C     C_R   0.997609 0.105724 0.106885 -0.002984
C51   C     C_R   0.540415 0.369223 0.094695 -0.080107
C52   C     C_R   0.508463 0.610487 0.894716 0.012804
C53   C     C_R   0.047812 0.452392 0.792395 -0.186748
C54   C     C_R   0.955149 0.531583 0.214247 -0.166486
C55   C     C_R   0.457504 0.964904 0.211803 -0.178951
C56   C     C_R   0.546479 0.028525 0.783188 -0.228645
C57   C     C_R   0.025980 0.952292 0.047755 0.064518
C58   C     C_R   0.930434 0.004050 0.969411 0.014576
C59   C     C_R   0.494274 0.462258 0.956196 0.099492
C60   C     C_R   0.569858 0.523944 0.034707 0.006271
C61   C     C_R   0.933107 0.080875 0.999254 -0.003628
C62   C     C_R   0.028122 0.876810 0.017618 -0.003914
C63   C     C_R   0.566502 0.598775 0.003328 -0.034551
C64   C     C_R   0.496764 0.389189 0.987189 -0.007152
C65   C     C_R   0.971729 0.053945 0.038323 0.151222
C66   C     C_R   0.990400 0.903251 0.978657 0.072341
C67   C     C_R   0.535703 0.566969 0.964383 0.166044
C68   C     C_R   0.525123 0.419139 0.025992 0.079772
C69   C     C_R   0.091113 0.934269 0.086560 0.028947
C70   C     C_R   0.866113 0.022248 0.930803 0.013577
C71   C     C_R   0.436826 0.437551 0.917305 -0.023637
C72   C     C_R   0.611300 0.547276 0.074539 0.038452
C73   C     C_R   0.057061 0.006156 0.115723 -0.102601
C74   C     C_R   0.889466 0.947481 0.902179 -0.008255
C75   C     C_R   0.468378 0.507037 0.887190 -0.144028
C76   C     C_R   0.589425 0.471515 0.103373 0.003239
O25   O     O_2   0.982391 0.150632 0.173078 -0.518761
O26   O     O_2   0.942763 0.801169 0.844784 -0.575291
O27   O     O_2   0.515482 0.648985 0.827779 -0.533242
O28   O     O_2   0.523791 0.326964 0.161209 -0.558364
C77   C     C_R   0.053529 0.772814 0.025754 -0.118579
C78   C     C_R   0.931084 0.186531 0.990500 -0.221926
C79   C     C_R   0.477094 0.284594 0.979830 -0.095964
C80   C     C_R   0.563931 0.705784 0.009628 -0.205407
H1    H     H_    0.775829 0.425800 0.242788 0.225958
H2    H     H_    0.196745 0.575582 0.765456 0.231574
H3    H     H_    0.734688 0.924728 0.757261 0.241819
H4    H     H_    0.273360 0.074722 0.235640 0.239789
H5    H     H_    0.795856 0.285892 0.197607 0.226437
H6    H     H_    0.186156 0.697894 0.817809 0.182346
H7    H     H_    0.696445 0.784691 0.802092 0.238571
H8    H     H_    0.301383 0.204497 0.185267 0.199066
H9    H     H_    0.101798 0.989206 0.145030 0.161373
H10   H     H_    0.839748 0.963367 0.873153 0.170240
H11   H     H_    0.434268 0.484110 0.857858 0.149771
H12   H     H_    0.620350 0.491524 0.133122 0.191603
H13   H     H_    0.054279 0.747081 0.055181 0.204723
H14   H     H_    0.945656 0.211906 0.961151 0.190596
H15   H     H_    0.484350 0.259611 0.950631 0.191132
H16   H     H_    0.550860 0.735462 0.037847 0.186353
C81   C     C_R   0.968823 0.533670 0.379244 -0.110869
C82   C     C_R   0.024168 0.475475 0.624280 -0.178489
C83   C     C_R   0.528524 0.028799 0.621825 -0.151622
C84   C     C_R   0.487092 0.972126 0.377013 -0.140568
C85   C     C_R   0.039988 0.365110 0.404204 -0.158396
C86   C     C_R   0.023538 0.653882 0.603712 -0.099160
C87   C     C_R   0.602373 0.859301 0.597958 -0.072597
C88   C     C_R   0.462812 0.146214 0.400653 -0.155737
C89   C     C_R   0.005203 0.429524 0.372739 0.416763
C90   C     C_R   0.039413 0.580921 0.633351 0.438856
C91   C     C_R   0.588942 0.927323 0.628669 0.398061
C92   C     C_R   0.441280 0.075559 0.370427 0.434381
C93   C     C_R   0.941498 0.568049 0.416303 -0.210822
C94   C     C_R   0.993359 0.446296 0.586454 -0.275843
C95   C     C_R   0.488664 0.059999 0.584144 -0.165531
C96   C     C_R   0.571367 0.945058 0.411851 -0.292148
C97   C     C_R   0.991840 0.508334 0.448752 0.116522
C98   C     C_R   0.022540 0.516246 0.556157 0.080455
C99   C     C_R   0.533712 0.997777 0.552472 0.122686
C100  C     C_R   0.554882 0.007284 0.444588 0.082269
C101  C     C_R   0.021907 0.400629 0.442222 0.038943
C102  C     C_R   0.029875 0.623637 0.564712 0.013802
C103  C     C_R   0.561147 0.891000 0.559970 0.030878
C104  C     C_R   0.527130 0.114455 0.437700 0.039685
C105  C     C_R   0.008391 0.551066 0.486952 0.061529
C106  C     C_R   0.034662 0.479857 0.517844 0.010677
C107  C     C_R   0.551097 0.038102 0.514240 0.103905
C108  C     C_R   0.556349 0.965897 0.483049 0.024387
C109  C     C_R   0.074190 0.373271 0.510278 -0.066363
C110  C     C_R   0.015602 0.661277 0.495616 -0.049121
C111  C     C_R   0.545901 0.855565 0.491383 -0.066477
C112  C     C_R   0.571440 0.147784 0.506378 -0.016837
C113  C     C_R   0.038708 0.330761 0.473436 0.511907
C114  C     C_R   0.036656 0.697156 0.534429 0.481051
C115  C     C_R   0.550740 0.818329 0.529858 0.479797
C116  C     C_R   0.557033 0.186479 0.467942 0.398293
H17   H     H_    0.955070 0.366542 0.581018 0.181899
H18   H     H_    0.873413 0.640858 0.418429 0.154734
H19   H     H_    0.646666 0.873931 0.412776 0.166194
H20   H     H_    0.430810 0.135611 0.580343 0.150617
H21   H     H_    0.081787 0.287249 0.398673 0.178007
H22   H     H_    0.005560 0.733274 0.611785 0.221957
H23   H     H_    0.654112 0.782708 0.603738 0.189791
H24   H     H_    0.419964 0.224655 0.395300 0.212210
S1    S     S_3+6 0.858730 0.304363 0.836716 0.028451
O29   O     O_2   0.971967 0.244577 0.865502 -0.309849
O30   O     O_2   0.677441 0.323615 0.853640 -0.337517
O31   O     O_3   0.825892 0.230527 0.798578 -0.454406
H25   H     H_    0.804066 0.161124 0.809816 0.387946
S2    S     S_3+6 0.162178 0.663441 0.168796 0.060495
O32   O     O_2   0.362038 0.647845 0.164314 -0.296214
O33   O     O_2   0.075608 0.695787 0.131161 -0.303343
O34   O     O_3   0.136165 0.760255 0.199440 -0.495740
H26   H     H_    0.184765 0.822097 0.186342 0.342511
S3    S     S_3+6 0.750727 0.861472 0.183739 0.041704
O35   O     O_2   0.685869 0.756281 0.196054 -0.299003
O36   O     O_2   0.855895 0.848309 0.148148 -0.330213
O37   O     O_3   0.890516 0.915973 0.216994 -0.478027
H27   H     H_    0.928498 0.858388 0.233715 0.384504
S4    S     S_3+6 0.328182 0.159497 0.823108 0.056609
O38   O     O_2   0.142569 0.147316 0.805127 -0.345870
O39   O     O_2   0.317030 0.174741 0.865597 -0.266324
O40   O     O_3   0.430176 0.263328 0.803864 -0.468905
H28   H     H_    0.359395 0.323365 0.812409 0.340517
S5    S     S_3+6 0.079552 0.623208 0.680991 0.009517
O41   O     O_2   0.930563 0.583498 0.705750 -0.331850
O42   O     O_2   0.258249 0.580280 0.695195 -0.364472
O43   O     O_3   0.088354 0.753304 0.683103 -0.444296
H29   H     H_    0.116670 0.769332 0.710476 0.395632
S6    S     S_3+6 0.958817 0.374826 0.327020 0.042475
O44   O     O_2   0.782924 0.419058 0.311893 -0.324896
O45   O     O_2   0.107004 0.402808 0.300093 -0.340993
O46   O     O_3   0.933066 0.245453 0.329349 -0.426501
H30   H     H_    0.049070 0.219507 0.340260 0.383377
S7    S     S_3+6 0.394056 0.120838 0.323297 -0.006053
O47   O     O_2   0.542419 0.085499 0.297841 -0.333968
O48   O     O_2   0.216112 0.076137 0.308792 -0.344902
O49   O     O_3   0.386465 0.250967 0.322385 -0.468474
H31   H     H_    0.398862 0.269993 0.294981 0.409734
S8    S     S_3+6 0.637523 0.881033 0.675344 0.016171
O50   O     O_2   0.813686 0.928693 0.689474 -0.320382
O51   O     O_2   0.487506 0.912113 0.701070 -0.373137
O52   O     O_3   0.656485 0.751278 0.675916 -0.439443
H32   H     H_    0.532601 0.724768 0.669680 0.386727
C117  C     C_2   0.196142 0.316885 0.538080 0.452384
H33   H     H_    0.288224 0.361164 0.556751 0.018991
O53   O     O_2   0.191749 0.223196 0.541890 -0.477343
C118  C     C_2   0.031805 0.739682 0.464752 0.516833
H34   H     H_    0.124557 0.727189 0.441826 -0.009611
O54   O     O_2   0.934874 0.815871 0.463404 -0.487842
C119  C     C_2   0.504715 0.778245 0.460898 0.537829
H35   H     H_    0.395439 0.792084 0.440193 -0.004629
O55   O     O_2   0.598636 0.701700 0.457244 -0.476338
C120  C     C_2   0.630764 0.221789 0.537222 0.460144
H36   H     H_    0.565003 0.295593 0.540080 0.090677
O56   O     O_2   0.754239 0.200523 0.560037 -0.504533
C121  C     C_2   0.890576 0.462237 0.897213 0.590547
H37   H     H_    0.888000 0.382444 0.906222 0.166113
O57   O     O_2   0.826439 0.523165 0.919078 -0.529794
C122  C     C_2   0.188971 0.464534 0.120226 0.674804
H38   H     H_    0.226691 0.392749 0.107860 -0.043130
O58   O     O_2   0.231718 0.543528 0.103610 -0.464344
C123  C     C_2   0.616943 0.969290 0.109952 0.573651
H39   H     H_    0.615615 0.886321 0.105958 0.144354
O59   O     O_2   0.670277 0.021886 0.083850 -0.512699
C124  C     C_2   0.247822 0.961619 0.862480 0.577195
H40   H     H_    0.122247 0.954505 0.846004 0.051536
O60   O     O_2   0.247646 0.991095 0.895615 -0.447757
C125  C     C_2   0.115944 0.595444 0.011919 0.532844
H41   H     H_    0.215947 0.546596 0.999887 0.059083
O61   O     O_2   0.032942 0.564343 0.039388 -0.509456
C126  C     C_2   0.001350 0.363257 0.006446 0.605191
H42   H     H_    0.127179 0.393070 0.018749 0.037012
O62   O     O_2   0.914460 0.410976 0.982063 -0.510940
C127  C     C_2   0.352114 0.114619 0.992733 0.424916
H43   H     H_    0.310327 0.052467 0.010551 0.114909
O63   O     O_2   0.322853 0.103048 0.958295 -0.478258
C128  C     C_2   0.501522 0.883364 0.991339 0.484030
H44   H     H_    0.386623 0.919440 0.977170 0.100910
O64   O     O_2   0.588639 0.927614 0.016763 -0.512023
C129  C     C_2   0.242029 0.863500 0.096521 0.478984
H45   H     H_    0.280111 0.849024 0.126269 0.081377
O65   O     O_2   0.338620 0.829019 0.072049 -0.551385
C130  C     C_2   0.735487 0.104993 0.921253 0.635371
H46   H     H_    0.671302 0.143264 0.944148 0.011581
O66   O     O_2   0.687442 0.124411 0.888193 -0.455808
C131  C     C_2   0.291232 0.362210 0.907217 0.515610
H47   H     H_    0.258202 0.348655 0.877232 0.108883
O67   O     O_2   0.192817 0.324888 0.931195 -0.525221
C132  C     C_2   0.701530 0.643386 0.088026 0.566243
H48   H     H_    0.791546 0.685125 0.069785 0.055005
O68   O     O_2   0.676170 0.676791 0.120104 -0.439883
S9    S     S_3+6 0.019933 0.192176 0.466441 0.021490
O69   O     O_2   0.203025 0.147805 0.463882 -0.347987
O70   O     O_2   0.936179 0.139206 0.499781 -0.254194
O71   O     O_3   0.903389 0.157700 0.426206 -0.558936
H49   H     H_    0.933490 0.084018 0.422014 0.377478
S10   S     S_3+6 0.086167 0.832303 0.544817 0.022851
O72   O     O_2   0.188621 0.883566 0.513420 -0.323252
O73   O     O_2   0.914145 0.890603 0.548006 -0.342328
O74   O     O_3   0.206650 0.848114 0.586198 -0.505289
H50   H     H_    0.168784 0.915774 0.596496 0.376852
S11   S     S_3+6 0.507890 0.682788 0.540789 0.003977
O75   O     O_2   0.382417 0.632925 0.511589 -0.340253
O76   O     O_2   0.680005 0.623785 0.540227 -0.343344
O77   O     O_3   0.418552 0.666150 0.584282 -0.511993
H51   H     H_    0.428787 0.591028 0.589752 0.356842
S12   S     S_3+6 0.569572 0.324321 0.457552 0.006846
O78   O     O_2   0.385068 0.368428 0.459291 -0.342750
O79   O     O_2   0.684309 0.382584 0.486514 -0.341517
O80   O     O_3   0.642437 0.354026 0.413468 -0.463617
H52   H     H_    0.707486 0.292982 0.404379 0.363819

loop_
_geom_bond_atom_site_label_1
_geom_bond_atom_site_label_2
_ccdc_geom_bond_type
C26   C30   A    
C25   S1    S    
C100  C108  A    
O1    C5    A    
O37   H27   S    
C109  C117  S    
C90   S5    S    
O3    V2    S    
C22   C54   A    
O13   V1    S    
C87   H23   S    
C119  H35   S    
C10   N2    A    
S12   O80   S    
C40   C44   A    
O15   V3    S    
C96   H19   S    
C26   S2    S    
C118  O54   D    
C28   C56   A    
C79   H15   S    
O46   H30   S    
C51   C76   A    
C85   H21   S    
C11   C43   A    
C105  C106  A    
C25   C29   A    
C17   C33   A    
C109  C113  A    
C45   C125  S    
C32   C36   A    
C7    C81   S    
O20   V1    S    
S11   O76   D    
O9    C4    A    
S12   O79   D    
C2    C55   S    
C47   C79   A    
O10   C3    A    
C129  H45   S    
O4    C8    A    
C20   H7    S    
C63   C67   A    
C24   C56   A    
C96   C100  A    
C62   C66   A    
C39   C68   A    
C128  O64   D    
C15   O28   S    
C52   C75   A    
C107  C112  A    
C126  H42   S    
C125  H41   S    
N2    C14   A    
C50   C73   A    
C57   C62   A    
S5    O42   D    
C97   C101  A    
S2    O32   D    
C58   C70   A    
S3    O37   S    
C12   C44   A    
C106  C109  A    
C59   C64   A    
C14   C50   A    
O3    C7    A    
C82   C90   A    
O49   H31   S    
C98   C106  A    
O16   C8    A    
C103  C115  A    
O43   H29   S    
S1    O30   D    
S6    O46   S    
C130  O66   D    
C86   H22   S    
S7    O49   S    
C29   C121  S    
C123  H39   S    
N2    C34   S    
C64   C79   A    
C27   S3    S    
O14   V2    S    
C15   C51   A    
O14   C6    A    
C11   N3    A    
S9    O69   D    
C132  H48   S    
O5    C1    A    
O4    V1    S    
C20   C36   A    
C38   C65   A    
O9    V1    S    
C92   S7    S    
C101  C113  A    
C37   C66   A    
C86   C102  A    
O17   V4    S    
C83   C91   A    
O11   V3    S    
O18   V3    S    
O8    C4    A    
C48   C128  S    
O12   V4    S    
O19   V2    S    
O17   V1    S    
C19   H8    S    
C123  O59   D    
S10   O74   S    
C43   C47   A    
C46   C78   A    
C18   H5    S    
C72   C132  S    
C45   C77   A    
C26   C54   A    
C118  H34   S    
C62   C77   A    
C114  S10   S    
C39   C51   A    
C23   H4    S    
C127  O63   D    
C69   C73   A    
C82   C94   A    
C124  O60   D    
O7    V3    S    
S6    O44   D    
C30   C34   A    
O19   V3    S    
S7    O47   D    
O8    V4    S    
S4    O40   S    
C100  C104  A    
C12   O24   S    
S11   O77   S    
C37   C49   A    
S12   O78   D    
N1    C33   S    
C94   H17   S    
C115  S11   S    
C129  O65   D    
C110  C114  A    
C21   H2    S    
C10   O22   S    
C132  O68   D    
O7    C3    A    
C117  H33   S    
C98   C102  A    
S6    O45   D    
O1    V4    S    
C46   C126  S    
C16   C52   A    
C57   C65   A    
O2    V3    S    
C125  O61   D    
S2    O34   S    
C47   C127  S    
S5    O43   S    
C111  C115  A    
O52   H32   S    
C108  C111  A    
C31   C35   A    
C38   C42   A    
C121  H37   S    
C29   C33   A    
O6    C2    A    
C18   C34   A    
O10   V2    S    
C60   C72   A    
C107  C108  A    
C80   H16   S    
S8    O52   S    
O20   V4    S    
C63   C80   A    
C28   S4    S    
S1    O31   S    
C130  H46   S    
C122  O58   D    
O74   H50   S    
C85   C101  A    
C87   C91   A    
N3    C35   S    
C19   C35   A    
C58   C66   A    
C89   S6    S    
C95   C99   A    
C37   C41   A    
S9    O70   D    
C74   H10   S    
C40   C52   A    
C77   H13   S    
C10   C42   A    
C3    C54   S    
O18   V2    S    
C112  C116  A    
C9    C41   A    
O6    V2    S    
S11   O75   D    
S8    O51   D    
C93   H18   S    
C30   C122  S    
C32   C124  S    
C116  S12   S    
C86   C90   A    
C4    C53   S    
C24   H3    S    
S10   O73   D    
C27   C31   A    
N4    C36   S    
C81   C93   A    
C60   C63   A    
C17   H6    S    
C131  H47   S    
O5    V1    S    
C61   C65   A    
C72   C76   A    
C25   C53   A    
C95   H20   S    
C60   C68   A    
C58   C61   A    
C9    O21   S    
O16   V4    S    
C8    C82   S    
C85   C89   A    
C69   C129  S    
C88   H24   S    
N1    C13   A    
C124  H40   S    
S2    O33   D    
C57   C69   A    
C13   O26   S    
C71   C131  S    
C84   C92   A    
C13   C49   A    
C88   C92   A    
C59   C71   A    
C131  O67   D    
C112  C120  S    
C44   C48   A    
C119  O55   D    
C94   C98   A    
C91   S8    S    
C111  C119  S    
C117  O53   D    
C87   C103  A    
C78   H14   S    
C83   C95   A    
C99   C103  A    
C73   H9    S    
C99   C107  A    
C28   C32   A    
C71   C75   A    
C9    N1    A    
S4    O38   D    
C21   C53   A    
C128  H44   S    
C75   H11   S    
S3    O35   D    
C18   C22   A    
C70   C130  S    
O2    C6    A    
C39   C43   A    
O34   H26   S    
S8    O50   D    
C97   C105  A    
C120  O56   D    
C17   C21   A    
C11   O23   S    
C64   C68   A    
C1    C56   S    
C42   C46   A    
C122  H38   S    
O11   C2    A    
C126  O62   D    
C70   C74   A    
C19   C23   A    
C61   C78   A    
C88   C104  A    
S10   O72   D    
C23   C55   A    
S5    O41   D    
C38   C50   A    
S9    O71   S    
C27   C55   A    
S3    O36   D    
C12   N4    A    
S1    O29   D    
C31   C123  S    
O40   H28   S    
N4    C16   A    
O15   C7    A    
C16   O27   S    
O12   C1    A    
C41   C45   A    
C121  O57   D    
C120  H36   S    
C84   C96   A    
C14   O25   S    
C6    C84   S    
O80   H52   S    
S7    O48   D    
C110  C118  S    
C104  C116  A    
O77   H51   S    
C102  C114  A    
C113  S9    S    
C81   C89   A    
C76   H12   S    
C48   C80   A    
C59   C67   A    
C22   H1    S    
C49   C74   A    
N3    C15   A    
C105  C110  A    
C5    C83   S    
C93   C97   A    
O31   H25   S    
C20   C24   A    
C127  H43   S    
S4    O39   D    
O71   H49   S    
C40   C67   A    
O13   C5    A    
