data_mof_unit_57258.cif
_audit_creation_date              2012-12-10T17:51:22-0500
_audit_creation_method            fapswitch 2.2
_symmetry_space_group_name_H-M    P1
_symmetry_Int_Tables_number       1
_space_group_crystal_system       triclinic
_cell_length_a                    9.887762
_cell_length_b                    10.68057
_cell_length_c                    16.623007
_cell_angle_alpha                 91.684746
_cell_angle_beta                  85.002949
_cell_angle_gamma                 89.117982
_cell_volume                      1747.79229477

loop_
_atom_site_label
_atom_site_type_symbol
_atom_type_description
_atom_site_fract_x
_atom_site_fract_y
_atom_site_fract_z
_atom_type_partial_charge
C1    C     C_R   0.498681 0.740685 0.495936 0.861997
C2    C     C_R   0.532154 0.471754 0.260362 -0.242550
C3    C     C_R   0.242209 0.898448 0.487338 -0.293452
C4    C     C_R   0.481012 0.495230 0.653125 0.863900
C5    C     C_R   0.120603 0.963665 0.512697 0.414813
C6    C     C_R   0.125749 0.073423 0.559492 -0.123763
C7    C     C_R   0.250306 0.125024 0.574329 0.402841
C8    C     C_R   0.372866 0.067565 0.537957 -0.038195
C9    C     C_R   0.369198 0.944758 0.507022 0.039435
C10   C     C_R   0.494053 0.875643 0.496135 -0.084277
C11   C     C_R   0.618071 0.936137 0.499063 -0.189383
C12   C     C_R   0.360634 0.495984 0.789822 -0.158334
C13   C     C_R   0.619938 0.063286 0.510562 -0.174770
C14   C     C_R   0.497663 0.130063 0.525587 -0.144772
C15   C     C_R   0.842355 0.665082 0.605970 -0.190788
C16   C     C_R   0.499266 0.261631 0.509865 0.880619
C17   C     C_R   0.903962 0.746093 0.658066 -0.268047
C18   C     C_R   0.044963 0.745745 0.658564 0.473119
C19   C     C_R   0.122874 0.663560 0.606207 -0.172411
C20   C     C_R   0.063604 0.580903 0.552327 0.074137
C21   C     C_R   0.918970 0.581221 0.552228 0.163073
C22   C     C_R   0.937008 0.421994 0.450273 -0.103615
C23   C     C_R   0.474579 0.331542 0.153023 -0.178923
C24   C     C_R   0.080296 0.422065 0.450266 -0.069357
C25   C     C_R   0.519119 0.498620 0.346649 0.877581
C26   C     C_R   0.469460 0.455090 0.735808 -0.070477
C27   C     C_R   0.559795 0.362191 0.757538 -0.331967
C28   C     C_R   0.546501 0.314424 0.835124 0.483923
C29   C     C_R   0.444478 0.365084 0.891570 0.129773
C30   C     C_R   0.348842 0.451711 0.867808 -0.231362
C31   C     C_R   0.458292 0.370967 0.233060 -0.236468
C32   C     C_R   0.624686 0.534568 0.206452 0.428218
C33   C     C_R   0.639055 0.496586 0.124809 0.464789
C34   C     C_R   0.562424 0.394303 0.098004 -0.063246
C35   C     C_2   0.447514 0.345845 0.978029 -0.154539
C36   C     C_2   0.564621 0.358254 0.012288 -0.139504
H1    H     H_    0.638885 0.325174 0.713596 0.156927
H2    H     H_    0.287463 0.564361 0.772322 0.176549
H3    H     H_    0.702132 0.553026 0.017241 0.322599
H4    H     H_    0.008562 0.840634 0.463069 0.333865
H5    H     H_    0.032224 0.119485 0.584206 0.168937
H6    H     H_    0.339311 0.233761 0.647865 0.330485
H7    H     H_    0.734589 0.671430 0.609906 0.222215
H8    H     H_    0.390017 0.320179 0.274473 0.176084
H9    H     H_    0.041094 0.878351 0.741289 0.342371
H10   H     H_    0.229697 0.668188 0.609081 0.220988
H11   H     H_    0.660751 0.669166 0.283491 0.322612
H12   H     H_    0.714471 0.885868 0.490147 0.210471
H13   H     H_    0.269240 0.489989 0.910894 0.167207
H14   H     H_    0.351493 0.352417 0.015280 0.149777
H15   H     H_    0.696913 0.195743 0.810458 0.333714
H16   H     H_    0.235669 0.815481 0.449331 0.178327
H17   H     H_    0.717046 0.109373 0.504641 0.189186
H18   H     H_    0.890015 0.358322 0.409718 0.152291
H19   H     H_    0.841166 0.809352 0.698089 0.155231
H20   H     H_    0.141306 0.358393 0.409714 0.140160
H21   H     H_    0.659934 0.363901 0.975026 0.192906
H22   H     H_    0.417143 0.252183 0.133717 0.177753
N1    N     N_R   0.857140 0.501200 0.500750 -0.113286
N2    N     N_R   0.142740 0.501280 0.500770 -0.102256
O1    O     O_R   0.385310 0.683220 0.500000 -0.646806
O2    O     O_3   0.995485 0.920352 0.495115 -0.787126
O3    O     O_3   0.248398 0.226970 0.627441 -0.730142
O4    O     O_3   0.110087 0.825185 0.708905 -0.769178
O5    O     O_3   0.698661 0.636181 0.229859 -0.700921
O6    O     O_3   0.631539 0.219916 0.857193 -0.766719
O7    O     O_R   0.614640 0.683250 0.500010 -0.639591
O8    O     O_R   0.371780 0.500010 0.615800 -0.608799
O9    O     O_R   0.601110 0.500030 0.615800 -0.635922
O10   O     O_R   0.385360 0.316750 0.499990 -0.585358
O11   O     O_R   0.614690 0.316780 0.500000 -0.624699
O12   O     O_R   0.398890 0.499970 0.384200 -0.609132
O13   O     O_R   0.628220 0.499990 0.384200 -0.597279
O14   O     O_3   0.724650 0.565522 0.073598 -0.708544
Zn1   Zn    Zn3+2 0.346870 0.499980 0.499990 0.961202
Zn2   Zn    Zn3+2 0.653130 0.500020 0.500010 0.945881

loop_
_geom_bond_atom_site_label_1
_geom_bond_atom_site_label_2
_ccdc_geom_bond_type
C23   H22   S    
C35   C36   D    
C19   H10   S    
C7    C8    A    
C22   H18   S    
O1    Zn1   S    
O8    Zn1   S    
C26   C27   A    
C28   C29   A    
C21   N1    A    
C5    C6    A    
H4    O2    S    
O9    Zn2   S    
C2    C32   A    
C18   C19   A    
H3    O14   S    
C19   C20   A    
C8    C9    A    
C6    H5    S    
C14   C16   S    
C20   N2    A    
C9    C10   A    
C17   H19   S    
C25   O13   A    
C13   C14   A    
C11   H12   S    
C16   O11   A    
O12   Zn1   S    
C4    O9    A    
C33   C34   A    
C13   H17   S    
C31   H8    S    
C16   O10   A    
C36   H21   S    
C22   N1    A    
C4    O8    A    
C12   C26   A    
C2    C31   A    
H15   O6    S    
C23   C31   A    
C28   O6    S    
C29   C30   A    
C3    C9    A    
C24   N2    A    
C23   C34   A    
C35   H14   S    
C17   C18   A    
C25   O12   A    
C7    O3    S    
C30   H13   S    
O13   Zn2   S    
C22   C24   A    
O10   Zn1   S    
C15   C17   A    
C8    C14   A    
N2    Zn1   S    
C12   C30   A    
C1    C10   S    
C3    C5    A    
C1    O1    A    
C4    C26   S    
C3    H16   S    
C6    C7    A    
C24   H20   S    
C29   C35   S    
H9    O4    S    
C32   C33   A    
C15   H7    S    
C11   C13   A    
C18   O4    S    
O11   Zn2   S    
C27   H1    S    
N1    Zn2   S    
C1    O7    A    
C5    O2    S    
C2    C25   S    
C34   C36   S    
C12   H2    S    
C10   C11   A    
C33   O14   S    
C15   C21   A    
C20   C21   A    
C27   C28   A    
O7    Zn2   S    
H6    O3    S    
H11   O5    S    
C32   O5    S    
