data_mof_unit_6624.cif
_audit_creation_date              2012-12-10T17:50:10-0500
_audit_creation_method            fapswitch 2.2
_symmetry_space_group_name_H-M    P1
_symmetry_Int_Tables_number       1
_space_group_crystal_system       triclinic
_cell_length_a                    10.632627
_cell_length_b                    14.703669
_cell_length_c                    14.782906
_cell_angle_alpha                 65.013247
_cell_angle_beta                  103.334367
_cell_angle_gamma                 102.56132
_cell_volume                      2019.37898311

loop_
_atom_site_label
_atom_site_type_symbol
_atom_type_description
_atom_site_fract_x
_atom_site_fract_y
_atom_site_fract_z
_atom_type_partial_charge
C1    C     C_R   0.476458 0.119693 0.312570 0.805934
C2    C     C_R   0.523542 0.880307 0.687430 0.805934
C3    C     C_R   0.443358 0.287689 0.172563 0.121604
C4    C     C_R   0.556642 0.712311 0.827437 0.121603
C5    C     C_R   0.475467 0.359770 0.077783 0.076425
C6    C     C_R   0.524533 0.640230 0.922217 0.076425
C7    C     C_R   0.487689 0.322738 0.006264 0.128402
C8    C     C_R   0.512312 0.677262 0.993736 0.128401
C9    C     C_R   0.494898 0.466601 0.050931 0.063330
C10   C     C_R   0.505102 0.533399 0.949069 0.063330
C11   C     C_R   0.488411 0.491193 0.876561 -0.220043
C12   C     C_R   0.511590 0.508807 0.123438 -0.220042
C13   C     C_R   0.488630 0.388374 0.905537 -0.223370
C14   C     C_R   0.511370 0.611626 0.094463 -0.223369
C15   C     C_R   0.739594 0.295654 0.647925 -0.309660
C16   C     C_R   0.260405 0.704345 0.352075 -0.309659
C17   C     C_R   0.695289 0.208656 0.628228 0.085225
C18   C     C_R   0.304711 0.791344 0.371773 0.085225
C19   C     C_R   0.511929 0.281726 0.516376 0.009202
C20   C     C_R   0.488071 0.718274 0.483624 0.009202
C21   C     C_R   0.546165 0.369515 0.539059 -0.017928
C22   C     C_R   0.453835 0.630485 0.460940 -0.017928
C23   C     C_R   0.259764 0.000553 0.500036 0.804793
C24   C     C_R   0.740236 0.999447 0.499964 0.804794
C25   C     C_R   0.668045 0.377766 0.600227 0.112223
C26   C     C_R   0.331954 0.622234 0.399773 0.112222
C27   C     C_R   0.469863 0.451882 0.497693 0.009563
C28   C     C_R   0.530137 0.548118 0.502307 0.009564
C29   C     C_R   0.663850 0.557256 0.547988 0.167676
C30   C     C_R   0.336150 0.442744 0.452012 0.167676
C31   C     C_R   0.723921 0.470417 0.605549 -0.203335
C32   C     C_R   0.276079 0.529583 0.394451 -0.203335
C33   C     C_3   0.016639 0.015627 0.408153 0.215592
C34   C     C_3   0.983361 0.984373 0.591847 0.215592
C35   C     C_3   0.962839 0.089933 0.433363 -0.203655
C36   C     C_3   0.037161 0.910067 0.566637 -0.203655
C37   C     C_3   0.876684 0.998908 0.499673 -0.025613
C38   C     C_3   0.123316 0.001091 0.500326 -0.025613
C39   C     C_3   0.928537 0.924855 0.473194 -0.185096
C40   C     C_3   0.071463 0.075145 0.526806 -0.185096
C41   C     C_R   0.468261 0.187326 0.205234 -0.055805
C42   C     C_R   0.531739 0.812674 0.794766 -0.055806
C43   C     C_R   0.494578 0.219883 0.035640 -0.203463
C44   C     C_R   0.505422 0.780117 0.964360 -0.203463
C45   C     C_R   0.492396 0.153792 0.135936 -0.245320
C46   C     C_R   0.507603 0.846208 0.864064 -0.245320
Cu1   Cu    Cu3+1 0.465750 0.918270 0.475680 0.930420
Cu2   Cu    Cu3+1 0.534250 0.081730 0.524320 0.930420
H1    H     H_    0.929994 0.163032 0.378310 0.143994
H2    H     H_    0.070005 0.836968 0.621690 0.143994
H3    H     H_    0.569523 0.725060 0.539589 0.146128
H4    H     H_    0.430477 0.274940 0.460411 0.146128
H5    H     H_    0.248561 0.854094 0.336635 0.123655
H6    H     H_    0.751439 0.145906 0.663366 0.123655
H7    H     H_    0.831807 0.300248 0.696875 0.138011
H8    H     H_    0.168193 0.699752 0.303125 0.138011
H9    H     H_    0.868435 0.864846 0.449255 0.155100
H10   H     H_    0.131565 0.135154 0.550744 0.155100
H11   H     H_    0.486320 0.359802 0.848419 0.149290
H12   H     H_    0.513681 0.640197 0.151581 0.149289
H13   H     H_    0.491968 0.923818 0.840933 0.164044
H14   H     H_    0.508032 0.076182 0.159067 0.164044
H15   H     H_    0.507014 0.191492 0.981923 0.141944
H16   H     H_    0.492986 0.808508 0.018077 0.141944
H17   H     H_    0.475098 0.536486 0.796671 0.169957
H18   H     H_    0.524902 0.463513 0.203329 0.169956
H19   H     H_    0.822580 0.477727 0.645426 0.150233
H20   H     H_    0.177420 0.522273 0.354573 0.150233
N1    N     N_R   0.585750 0.204560 0.560800 -0.182242
N2    N     N_R   0.414250 0.795440 0.439200 -0.182242
O1    O     O_R   0.454850 0.022100 0.338110 -0.589781
O2    O     O_R   0.545150 0.977900 0.661890 -0.589781
O3    O     O_R   0.512700 0.160150 0.379180 -0.574403
O4    O     O_R   0.487300 0.839850 0.620820 -0.574402
O5    O     O_R   0.287930 0.931000 0.479440 -0.583156
O6    O     O_R   0.712070 0.069000 0.520560 -0.583157
O7    O     O_R   0.345780 0.069050 0.520520 -0.592932
O8    O     O_R   0.654220 0.930950 0.479480 -0.592932
C47   C     C_3   0.754435 0.656180 0.524482 -0.919600
H21   H     H_    0.850347 0.646803 0.513939 0.237805
H22   H     H_    0.716973 0.715302 0.452004 0.232787
H23   H     H_    0.772189 0.681326 0.587936 0.233130
C48   C     C_3   0.245565 0.343820 0.475517 -0.919600
H24   H     H_    0.149653 0.353197 0.486061 0.237805
H25   H     H_    0.227812 0.318675 0.412063 0.233130
H26   H     H_    0.283027 0.284698 0.547995 0.232787
C49   C     C_3   0.036389 0.032923 0.303180 -0.885493
H27   H     H_    0.941760 0.042001 0.251515 0.235163
H28   H     H_    0.106542 0.102278 0.274056 0.222961
H29   H     H_    0.075025 0.967102 0.306550 0.232927
C50   C     C_3   0.963611 0.967077 0.696820 -0.885493
H30   H     H_    0.058240 0.957999 0.748485 0.235163
H31   H     H_    0.924975 0.032898 0.693450 0.232927
H32   H     H_    0.893458 0.897722 0.725944 0.222961
C51   C     C_3   0.645293 0.691479 0.773378 -0.878318
H33   H     H_    0.699017 0.626821 0.824649 0.239583
H34   H     H_    0.588950 0.676310 0.707289 0.233710
H35   H     H_    0.720715 0.757776 0.746473 0.218404
C52   C     C_3   0.354708 0.308521 0.226622 -0.878318
H36   H     H_    0.411050 0.323690 0.292710 0.233710
H37   H     H_    0.300983 0.373179 0.175351 0.239583
H38   H     H_    0.279285 0.242225 0.253527 0.218404

loop_
_geom_bond_atom_site_label_1
_geom_bond_atom_site_label_2
_ccdc_geom_bond_type
C18   N2    A    
C38   C40   S    
C49   H27   S    
C17   N1    A    
C34   C37   S    
Cu2   O6    S    
C51   H33   S    
Cu2   N1    S    
C51   H35   S    
C43   H15   S    
C44   H16   S    
C31   H19   S    
C1    O1    A    
C48   H24   S    
C34   C40   S    
C28   C29   A    
C35   C37   S    
C20   H3    S    
C15   C25   A    
C39   H9    S    
C45   H14   S    
C42   C46   A    
C30   C48   S    
C34   C50   S    
C18   H5    S    
C19   H4    S    
Cu1   Cu2   S    
C35   H1    S    
C7    C43   A    
C9    C10   A    
C2    O4    A    
C32   H20   S    
C21   C27   A    
C22   C28   A    
C27   C30   A    
C20   N2    A    
Cu2   O2    S    
C2    O2    A    
C44   C46   A    
C16   C26   A    
C40   H10   S    
C46   H13   S    
C4    C6    A    
C50   H30   S    
C5    C7    A    
C26   C32   A    
C24   O6    A    
C6    C8    A    
C12   H18   S    
C15   H7    S    
Cu2   O7    S    
C16   H8    S    
Cu1   N2    S    
C5    C9    A    
C50   H31   S    
C4    C51   S    
C52   H36   S    
C29   C47   S    
C48   H26   S    
C24   C37   S    
C16   C18   A    
C33   C39   S    
C23   O7    A    
C43   C45   A    
Cu1   O1    S    
C1    C41   S    
C48   H25   S    
C20   C22   A    
C49   H28   S    
C19   N1    A    
C36   H2    S    
C25   C31   A    
C24   O8    A    
C15   C17   A    
C21   C25   A    
C3    C41   A    
C8    C14   A    
C19   C21   A    
Cu2   O3    S    
C36   C39   S    
C8    C44   A    
Cu1   O4    S    
C23   O5    A    
C3    C5    A    
C6    C10   A    
C47   H23   S    
C51   H34   S    
C13   H11   S    
C23   C38   S    
C14   H12   S    
C47   H22   S    
C33   C38   S    
C1    O3    A    
C36   C38   S    
C35   C40   S    
C12   C14   A    
Cu1   O5    S    
C29   C31   A    
C50   H32   S    
C30   C32   A    
C11   C13   A    
C4    C42   A    
C2    C42   S    
C33   C35   S    
C34   C36   S    
C33   C49   S    
C9    C12   A    
C10   C11   A    
C47   H21   S    
C3    C52   S    
C7    C13   A    
C52   H38   S    
C37   C39   S    
C22   C26   A    
C49   H29   S    
C27   C28   A    
C41   C45   A    
Cu1   O8    S    
C17   H6    S    
C52   H37   S    
C11   H17   S    
