data_mof_unit_46653.cif
_audit_creation_date              2012-12-10T16:50:12-0500
_audit_creation_method            fapswitch 2.2
_symmetry_space_group_name_H-M    P1
_symmetry_Int_Tables_number       1
_space_group_crystal_system       triclinic
_cell_length_a                    7.829014
_cell_length_b                    8.62058
_cell_length_c                    10.712748
_cell_angle_alpha                 94.048792
_cell_angle_beta                  85.303982
_cell_angle_gamma                 93.705576
_cell_volume                      717.524346801

loop_
_atom_site_label
_atom_site_type_symbol
_atom_type_description
_atom_site_fract_x
_atom_site_fract_y
_atom_site_fract_z
_atom_type_partial_charge
C1    C     C_R   0.545988 0.794618 0.497928 0.911182
C2    C     C_R   0.455519 0.205934 0.505437 0.970611
C3    C     C_R   0.499106 0.501784 0.260865 0.858168
C4    C     C_R   0.383700 0.796163 0.907222 0.183659
C5    C     C_R   0.290140 0.900383 0.988044 -0.130180
C6    C     C_R   0.270320 0.881503 0.115293 -0.198438
C7    C     C_R   0.344095 0.759041 0.163092 -0.187213
C8    C     C_R   0.424351 0.642561 0.082551 0.064420
C9    C     C_3   0.993189 0.688804 0.587585 -0.490345
C10   C     C_3   0.447648 0.856780 0.784697 -0.910930
C11   C     C_3   0.736069 0.022166 0.576192 -0.831612
C12   C     C_R   0.437582 0.655930 0.951559 0.088317
C13   C     C_R   0.510342 0.530918 0.873810 -0.101510
C14   C     C_R   0.584582 0.409718 0.924951 -0.208555
C15   C     C_R   0.581287 0.403778 0.052184 -0.210939
C16   C     C_R   0.498898 0.516247 0.129857 -0.084180
C17   C     C_2   0.571736 0.958262 0.518293 0.024746
C18   C     C_2   0.436819 0.042153 0.501615 -0.416716
C19   C     C_R   0.502995 0.512489 0.739995 0.864724
H1    H     H_    0.641294 0.316120 0.865800 0.152323
H2    H     H_    0.872709 0.674370 0.647224 0.214241
H3    H     H_    0.485662 0.983101 0.797002 0.230588
H4    H     H_    0.564996 0.800887 0.745676 0.222696
H5    H     H_    0.342445 0.842868 0.721839 0.262056
H6    H     H_    0.793842 0.932790 0.625360 0.208497
H7    H     H_    0.832067 0.064836 0.502391 0.248855
H8    H     H_    0.709320 0.115772 0.650589 0.247110
H9    H     H_    0.244215 0.004177 0.953610 0.145320
H10   H     H_    0.206506 0.967421 0.178072 0.144638
H11   H     H_    0.338092 0.760199 0.263856 0.173912
H12   H     H_    0.638420 0.307899 0.090444 0.155006
H13   H     H_    0.314779 0.989349 0.473257 0.140822
H14   H     H_    0.007276 0.364327 0.418861 0.170822
H15   H     H_    0.089635 0.740978 0.650324 0.172545
H16   H     H_    0.985872 0.769232 0.512048 0.192857
N1    N     N_2   0.950330 0.457950 0.466250 -0.128225
N2    N     N_2   0.049670 0.542050 0.533750 -0.036748
O1    O     O_R   0.389250 0.738570 0.508280 -0.649606
O2    O     O_R   0.678390 0.711630 0.486650 -0.627761
O3    O     O_R   0.355400 0.513470 0.694050 -0.595080
O4    O     O_R   0.644540 0.486530 0.672420 -0.636548
O5    O     O_R   0.321610 0.288370 0.513350 -0.631800
O6    O     O_R   0.610750 0.261430 0.491720 -0.602313
O7    O     O_R   0.355460 0.513470 0.327580 -0.633298
O8    O     O_R   0.644600 0.486530 0.305950 -0.608041
Zn1   Zn    Zn3+2 0.306930 0.517990 0.514440 0.936121
Zn2   Zn    Zn3+2 0.693070 0.482010 0.485560 0.935804

loop_
_geom_bond_atom_site_label_1
_geom_bond_atom_site_label_2
_ccdc_geom_bond_type
C15   H12   S    
C6    C7    A    
C10   H4    S    
C4    C12   A    
C5    H9    S    
C1    C17   S    
C11   H8    S    
C2    O6    A    
C8    C12   A    
H14   N1    S    
C9    N2    S    
C17   C18   D    
O4    Zn2   S    
C7    C8    A    
C8    C16   A    
C7    H11   S    
C13   C14   A    
C10   H3    S    
O3    Zn1   S    
C9    H2    S    
C5    C6    A    
C1    O1    A    
C2    O5    A    
N1    N2    D    
O7    Zn1   S    
O8    Zn2   S    
C9    H15   S    
C3    O7    A    
O1    Zn1   S    
C2    C18   S    
C19   O3    A    
C1    O2    A    
C4    C10   S    
C15   C16   A    
C14   H1    S    
C6    H10   S    
C18   H13   S    
C12   C13   A    
N1    Zn2   S    
O2    Zn2   S    
O5    Zn1   S    
C9    H16   S    
C11   H6    S    
C14   C15   A    
C11   C17   S    
C13   C19   S    
C11   H7    S    
C10   H5    S    
N2    Zn1   S    
O6    Zn2   S    
C3    O8    A    
C3    C16   S    
C19   O4    A    
C4    C5    A    
