data_mof_unit_63736.cif
_audit_creation_date              2012-10-26T18:46:09-0400
_audit_creation_method            fapswitch 2.2
_symmetry_space_group_name_H-M    P1
_symmetry_Int_Tables_number       1
_space_group_crystal_system       triclinic
_cell_length_a                    13.872764
_cell_length_b                    16.52525
_cell_length_c                    17.730987
_cell_angle_alpha                 89.511656
_cell_angle_beta                  91.208505
_cell_angle_gamma                 83.662677
_cell_volume                      4038.86592254

loop_
_atom_site_label
_atom_site_type_symbol
_atom_type_description
_atom_site_fract_x
_atom_site_fract_y
_atom_site_fract_z
_atom_type_partial_charge
C1    C     C_R   0.500261 0.499737 0.644686 0.548333
C2    C     C_R   0.572801 0.820828 0.542606 -0.135025
C3    C     C_R   0.430439 0.264666 0.458825 0.046551
C4    C     C_R   0.569561 0.735334 0.541175 0.046551
C5    C     C_R   0.568589 0.247346 0.540664 0.146646
C6    C     C_R   0.431411 0.752654 0.459335 0.146646
C7    C     C_R   0.566207 0.162065 0.540320 -0.109086
C8    C     C_R   0.433793 0.837935 0.459680 -0.109087
C9    C     C_R   0.496010 0.126781 0.498760 0.013610
C10   C     C_R   0.503990 0.873218 0.501239 0.013610
C11   C     C_1   0.497897 0.037299 0.499125 -0.011774
C12   C     C_R   0.499738 0.500263 0.355314 0.548333
C13   C     C_1   0.502102 0.962701 0.500875 -0.011774
C14   C     C_R   0.683473 0.486248 0.500165 0.552701
C15   C     C_R   0.316527 0.513752 0.499835 0.552701
C16   C     C_1   0.212983 0.522894 0.499664 -0.018364
C17   C     C_1   0.787017 0.477106 0.500336 -0.018364
C18   C     C_2   0.021948 0.533949 0.499387 -0.112608
C19   C     C_2   0.978052 0.466051 0.500613 -0.112608
C20   C     C_1   0.874141 0.471122 0.500477 -0.044221
C21   C     C_1   0.125859 0.528878 0.499523 -0.044221
C22   C     C_R   0.500062 0.425726 0.154718 0.247934
C23   C     C_R   0.498776 0.572848 0.152872 -0.140526
C24   C     C_R   0.499930 0.574275 0.845282 0.247935
C25   C     C_R   0.500021 0.426517 0.233356 -0.086858
C26   C     C_R   0.499971 0.573484 0.766644 -0.086858
C27   C     C_R   0.499479 0.500264 0.272378 -0.032001
C28   C     C_R   0.500520 0.499736 0.727622 -0.032001
C29   C     C_R   0.498739 0.573483 0.231485 -0.146081
C30   C     C_R   0.501267 0.426517 0.768515 -0.146082
C31   C     C_3   0.651861 0.277505 0.584037 -0.331024
C32   C     C_3   0.348139 0.722495 0.415963 -0.331025
C33   C     C_R   0.501230 0.427152 0.847128 -0.140527
C34   C     C_R   0.499516 0.499224 0.114448 0.044542
C35   C     C_R   0.500483 0.500776 0.885552 0.044543
C36   C     C_1   0.499843 0.499876 0.033805 0.075439
C37   C     C_1   0.500156 0.500124 0.966195 0.075439
C38   C     C_R   0.427199 0.179172 0.457394 -0.135025
Cl1   Cl    Cl    0.500898 0.331802 0.108343 -0.588977
Cl2   Cl    Cl    0.499085 0.668198 0.891657 -0.588978
Cu1   Cu    Cu3+1 0.500000 0.419580 0.500020 0.943340
Cu2   Cu    Cu3+1 0.500000 0.580420 0.499980 0.943340
H1    H     H_    0.019870 0.406420 0.501724 0.138829
H2    H     H_    0.628564 0.845637 0.576022 0.112723
H3    H     H_    0.376956 0.303590 0.426184 0.130319
H4    H     H_    0.623044 0.696410 0.573816 0.130319
H5    H     H_    0.620736 0.122569 0.571783 0.107543
H6    H     H_    0.379264 0.877431 0.428217 0.107543
H7    H     H_    0.687315 0.229941 0.623272 0.083432
H8    H     H_    0.708527 0.292026 0.544543 0.148509
H9    H     H_    0.628505 0.329824 0.619770 0.168561
H10   H     H_    0.312686 0.770059 0.376727 0.083432
H11   H     H_    0.371495 0.670177 0.380230 0.168562
H12   H     H_    0.980130 0.593580 0.498276 0.138829
H13   H     H_    0.291473 0.707974 0.455457 0.148509
H14   H     H_    0.500502 0.369339 0.263773 0.164536
H15   H     H_    0.499485 0.630662 0.736226 0.164537
H16   H     H_    0.498193 0.631147 0.260136 0.142212
H17   H     H_    0.501818 0.368853 0.739864 0.142211
H18   H     H_    0.498300 0.629790 0.122013 0.155579
H19   H     H_    0.501710 0.370210 0.877987 0.155579
H20   H     H_    0.371436 0.154363 0.423978 0.112724
N1    N     N_R   0.500030 0.298780 0.500030 -0.206439
N2    N     N_R   0.499970 0.701220 0.499970 -0.206439
O1    O     O_R   0.500010 0.432070 0.608760 -0.507806
O2    O     O_R   0.499990 0.567930 0.391240 -0.507807
O3    O     O_R   0.500000 0.567880 0.608730 -0.500127
O4    O     O_R   0.500000 0.432120 0.391270 -0.500126
O5    O     O_R   0.637850 0.422490 0.500000 -0.504491
O6    O     O_R   0.362150 0.577510 0.500000 -0.504491
O7    O     O_R   0.637840 0.558310 0.499970 -0.495932
O8    O     O_R   0.362160 0.441690 0.500030 -0.495932

loop_
_geom_bond_atom_site_label_1
_geom_bond_atom_site_label_2
_ccdc_geom_bond_type
C26   H15   S    
C1    C28   S    
C2    C4    A    
C8    H6    S    
C16   C21   T    
C3    N1    A    
C25   C27   A    
C18   C21   S    
C12   O4    A    
Cu1   Cu2   S    
C4    N2    A    
C32   H13   S    
C6    C32   S    
C19   C20   S    
C25   H14   S    
Cu2   O6    S    
C23   C34   A    
C30   H17   S    
C28   C30   A    
C5    C7    A    
C10   C13   S    
C4    H4    S    
C26   C28   A    
C15   O8    A    
C9    C11   S    
C14   C17   S    
Cu2   O3    S    
C5    C31   S    
C31   H7    S    
Cu1   O8    S    
C22   C34   A    
C22   Cl1   S    
C23   C29   A    
C8    C10   A    
C36   C37   T    
C1    O3    A    
C24   C26   A    
Cu1   O4    S    
C34   C36   S    
Cu1   O1    S    
C23   H18   S    
C33   C35   A    
C14   O5    A    
C24   Cl2   S    
C24   C35   A    
C27   C29   A    
Cu1   N1    S    
C31   H8    S    
C6    N2    A    
C15   C16   S    
C2    C10   A    
C9    C38   A    
Cu2   N2    S    
C32   H11   S    
C11   C13   T    
C17   C20   T    
Cu2   O2    S    
C29   H16   S    
C5    N1    A    
C33   H19   S    
C18   C19   D    
C14   O7    A    
C2    H2    S    
C7    C9    A    
C15   O6    A    
C18   H12   S    
Cu2   O7    S    
C6    C8    A    
C12   C27   S    
C30   C33   A    
C35   C37   S    
Cu1   O5    S    
C12   O2    A    
C1    O1    A    
C3    H3    S    
C32   H10   S    
C7    H5    S    
C3    C38   A    
C31   H9    S    
C38   H20   S    
C22   C25   A    
C19   H1    S    
