data_mof_unit_19155.cif
_audit_creation_date              2012-12-10T18:04:01-0500
_audit_creation_method            fapswitch 2.2
_symmetry_space_group_name_H-M    P1
_symmetry_Int_Tables_number       1
_space_group_crystal_system       triclinic
_cell_length_a                    10.792107
_cell_length_b                    9.524729
_cell_length_c                    10.84313
_cell_angle_alpha                 89.668989
_cell_angle_beta                  91.248124
_cell_angle_gamma                 90.207558
_cell_volume                      1114.29601764

loop_
_atom_site_label
_atom_site_type_symbol
_atom_type_description
_atom_site_fract_x
_atom_site_fract_y
_atom_site_fract_z
_atom_type_partial_charge
C1    C     C_R   0.262244 0.499633 0.503762 0.850792
C2    C     C_R   0.737693 0.500201 0.503349 0.834719
C3    C     C_R   0.423095 0.075368 0.421931 -0.160962
C4    C     C_R   0.577026 0.074660 0.577827 -0.131292
C5    C     C_R   0.420519 0.924504 0.422251 0.580888
C6    C     C_R   0.579948 0.924923 0.576294 0.516991
C7    C     C_R   0.500700 0.500254 0.262529 0.782969
C8    C     C_R   0.503172 0.499554 0.737207 0.790721
C9    C     C_R   0.487227 0.620444 0.060268 -0.104218
C10   C     C_R   0.486089 0.619082 0.935693 -0.089877
C11   C     C_R   0.506939 0.499581 0.129934 -0.089354
C12   C     C_R   0.508960 0.498334 0.869605 -0.081555
C13   C     C_R   0.534212 0.374894 0.066103 -0.190497
C14   C     C_R   0.535528 0.374344 0.936675 -0.195759
C15   C     C_3   0.442657 0.768525 0.922756 0.229203
C16   C     C_3   0.440654 0.769201 0.065348 0.265124
C17   C     C_R   0.065246 0.389877 0.570395 0.390591
C18   C     C_R   0.935791 0.394272 0.575083 0.404442
C19   C     C_R   0.871411 0.500970 0.510456 -0.169710
C20   C     C_R   0.128349 0.499301 0.509953 -0.182776
C21   C     C_R   0.935271 0.610140 0.453181 -0.288326
C22   C     C_R   0.063069 0.609978 0.454213 -0.274305
Cu1   Cu    Cu3+1 0.500000 0.640660 0.500000 1.031255
Cu2   Cu    Cu3+1 0.500000 0.359340 0.500000 0.969726
H1    H     H_    0.552952 0.277822 0.115452 0.173916
H2    H     H_    0.555482 0.277140 0.889803 0.161782
H3    H     H_    0.515079 0.837486 0.883167 0.155551
H4    H     H_    0.345618 0.773477 0.101699 0.145424
H5    H     H_    0.886254 0.694232 0.405514 0.172894
H6    H     H_    0.110954 0.694604 0.408484 0.197325
H7    H     H_    0.364588 0.136069 0.359971 0.151015
H8    H     H_    0.635915 0.132421 0.641635 0.174767
N1    N     N_R   0.500000 0.852070 0.500000 -0.236199
N2    N     N_R   0.500000 0.147940 0.500000 -0.201447
O1    O     O_R   0.319640 0.618740 0.499990 -0.552817
O2    O     O_R   0.680360 0.618740 0.500010 -0.567327
O3    O     O_R   0.319620 0.381170 0.499990 -0.557394
O4    O     O_R   0.680380 0.381170 0.500010 -0.548867
O5    O     O_R   0.499990 0.618810 0.319660 -0.537781
O6    O     O_R   0.500010 0.618810 0.680340 -0.534711
O7    O     O_R   0.499960 0.381240 0.319650 -0.595796
O8    O     O_R   0.500040 0.381240 0.680350 -0.581563
O9    O     O_3   0.324398 0.795011 0.865489 -0.572270
C23   C     C_3   0.240949 0.679881 0.866510 0.121626
H9    H     H_    0.229439 0.637112 0.961215 0.117783
H10   H     H_    0.272819 0.595623 0.804604 0.156637
C24   C     C_3   0.114832 0.728151 0.817577 -0.804864
H11   H     H_    0.123052 0.769945 0.722203 0.255152
H12   H     H_    0.048949 0.638260 0.816038 0.191735
H13   H     H_    0.078015 0.811622 0.877627 0.243072
O10   O     O_3   0.518625 0.873907 0.120428 -0.559592
C25   C     C_3   0.646561 0.841561 0.121837 0.106265
H14   H     H_    0.679489 0.818202 0.027710 0.126108
H15   H     H_    0.666426 0.750984 0.184123 0.161565
C26   C     C_3   0.719025 0.967173 0.171279 -0.811487
H16   H     H_    0.688577 0.992687 0.265780 0.248678
H17   H     H_    0.819569 0.942644 0.174874 0.191116
H18   H     H_    0.703461 0.059679 0.110135 0.241162
O11   O     O_3   0.130704 0.287344 0.634951 -0.565425
C27   C     C_3   0.122533 0.160179 0.569111 -0.226610
H19   H     H_    0.192776 0.086490 0.607962 0.187369
H20   H     H_    0.142670 0.175346 0.469612 0.122073
H21   H     H_    0.030162 0.110223 0.579398 0.179496
O12   O     O_3   0.872722 0.292363 0.640323 -0.586536
C28   C     C_3   0.855574 0.341388 0.761197 -0.316559
H22   H     H_    0.804502 0.260050 0.813476 0.173119
H23   H     H_    0.798921 0.438843 0.761371 0.143189
H24   H     H_    0.945972 0.359368 0.810077 0.181749
O13   O     O_3   0.345468 0.845232 0.342558 -0.527268
C29   C     C_3   0.241828 0.918484 0.294100 -0.414920
H25   H     H_    0.179895 0.842524 0.245864 0.177901
H26   H     H_    0.270119 0.996631 0.223555 0.189974
H27   H     H_    0.187407 0.966698 0.368380 0.137993
O14   O     O_3   0.656331 0.849859 0.656989 -0.560105
C30   C     C_3   0.780695 0.894728 0.647880 -0.342525
H28   H     H_    0.841676 0.810787 0.686010 0.194060
H29   H     H_    0.797781 0.990115 0.704205 0.177255
H30   H     H_    0.808021 0.913088 0.550519 0.155522

loop_
_geom_bond_atom_site_label_1
_geom_bond_atom_site_label_2
_ccdc_geom_bond_type
C16   H4    S    
C26   H16   S    
Cu2   O8    S    
C16   O10   S    
O9    C23   S    
C24   H12   S    
C23   H9    S    
C7    C11   S    
C27   H21   S    
C19   C21   A    
C9    C16   S    
C8    O8    A    
C10   C15   S    
C15   C16   S    
C17   C20   A    
C27   H20   S    
C18   C19   A    
C5    O13   S    
C23   H10   S    
Cu1   N1    S    
C5    N1    A    
Cu2   O4    S    
Cu1   Cu2   S    
C29   H25   S    
C9    C10   A    
C23   C24   S    
C1    O3    A    
O11   C27   S    
C21   C22   A    
Cu2   O7    S    
C13   H1    S    
C25   H15   S    
C6    O14   S    
C24   H13   S    
C4    N2    A    
O14   C30   S    
O10   C25   S    
C4    C6    A    
C3    N2    A    
C28   H23   S    
C21   H5    S    
Cu2   N2    S    
C27   H19   S    
C30   H28   S    
C9    C11   A    
C2    O4    A    
C15   H3    S    
C24   H11   S    
C8    C12   S    
C28   H24   S    
C29   H27   S    
C17   C18   A    
C14   H2    S    
C3    H7    S    
C30   H29   S    
C4    H8    S    
C10   C12   A    
C17   O11   S    
C12   C14   A    
Cu1   O2    S    
Cu1   O1    S    
C26   H17   S    
C25   H14   S    
C1    O1    A    
C2    O2    A    
Cu2   O3    S    
C1    C20   S    
C22   H6    S    
C2    C19   S    
C20   C22   A    
C3    C5    A    
C25   C26   S    
C6    N1    A    
O12   C28   S    
C15   O9    S    
C11   C13   A    
C18   O12   S    
Cu1   O5    S    
C7    O7    A    
O13   C29   S    
C30   H30   S    
C28   H22   S    
C26   H18   S    
C7    O5    A    
C29   H26   S    
C8    O6    A    
C13   C14   A    
Cu1   O6    S    
