data_mof_unit_61311.cif
_audit_creation_date              2012-12-10T17:07:28-0500
_audit_creation_method            fapswitch 2.2
_symmetry_space_group_name_H-M    P1
_symmetry_Int_Tables_number       1
_space_group_crystal_system       triclinic
_cell_length_a                    30.539151
_cell_length_b                    30.759201
_cell_length_c                    21.129634
_cell_angle_alpha                 89.975014
_cell_angle_beta                  43.577814
_cell_angle_gamma                 89.946571
_cell_volume                      13682.223124

loop_
_atom_site_label
_atom_site_type_symbol
_atom_type_description
_atom_site_fract_x
_atom_site_fract_y
_atom_site_fract_z
_atom_type_partial_charge
C1    C     C_R   0.307115 0.809897 0.505819 0.966155
C2    C     C_R   0.667433 0.095304 0.413265 0.051692
C3    C     C_R   0.309301 0.193375 0.644528 0.316032
C4    C     C_R   0.811311 0.305929 0.642473 0.316966
C5    C     C_R   0.188777 0.694029 0.357438 0.316769
C6    C     C_R   0.188965 0.305962 0.357251 0.316426
C7    C     C_R   0.811214 0.694117 0.642563 0.317009
C8    C     C_R   0.201492 0.916380 0.708537 0.409835
C9    C     C_R   0.797359 0.110161 0.249404 0.430288
C10   C     C_R   0.794962 0.922908 0.311150 0.409100
C11   C     C_R   0.325908 0.200568 0.691492 0.404012
C12   C     C_R   0.829071 0.298362 0.687849 0.399608
C13   C     C_R   0.662086 0.914693 0.442876 0.032218
C14   C     C_R   0.171082 0.701577 0.311972 0.399667
C15   C     C_R   0.171312 0.298433 0.311740 0.400357
C16   C     C_R   0.828986 0.701681 0.687908 0.399619
C17   C     C_R   0.236781 0.953019 0.687027 -0.168810
C18   C     C_R   0.766730 0.074251 0.257047 -0.196945
C19   C     C_R   0.757283 0.959164 0.338773 -0.174277
C20   C     C_R   0.369960 0.173403 0.674438 -0.175687
C21   C     C_R   0.873313 0.325505 0.670238 -0.167635
C22   C     C_R   0.126831 0.674447 0.329580 -0.168214
C23   C     C_R   0.127002 0.325575 0.329380 -0.166270
C24   C     C_R   0.383811 0.132660 0.562103 0.031710
C25   C     C_R   0.873287 0.674521 0.670254 -0.168347
C26   C     C_R   0.302620 0.951591 0.617661 -0.292787
C27   C     C_R   0.703493 0.066560 0.337083 -0.316423
C28   C     C_R   0.691787 0.955060 0.402707 -0.296319
C29   C     C_R   0.397851 0.139483 0.611958 -0.290635
C30   C     C_R   0.900214 0.359800 0.608825 -0.296347
C31   C     C_R   0.099870 0.640177 0.391062 -0.296359
C32   C     C_R   0.099950 0.359836 0.390933 -0.296631
C33   C     C_R   0.900228 0.640213 0.608831 -0.296430
C34   C     C_R   0.885058 0.366974 0.560482 0.026237
C35   C     C_R   0.114980 0.633015 0.439470 0.026496
C36   C     C_R   0.115034 0.366974 0.439366 0.025919
C37   C     C_R   0.885048 0.633049 0.560527 0.026131
C38   C     C_R   0.300739 0.877879 0.577611 0.022228
C39   C     C_R   0.699083 0.130450 0.409226 0.017399
C40   C     C_R   0.697884 0.879451 0.428232 0.021945
C41   C     C_R   0.691816 0.190160 0.496457 0.979226
C42   C     C_R   0.343402 0.161954 0.572646 0.017877
C43   C     C_R   0.844548 0.337681 0.571348 0.021542
C44   C     C_R   0.155489 0.662303 0.428613 0.021334
C45   C     C_R   0.155597 0.337686 0.428474 0.021391
C46   C     C_R   0.844485 0.662346 0.571437 0.021209
C47   C     C_R   0.336107 0.842902 0.513813 -0.064631
C48   C     C_R   0.663216 0.157245 0.488469 -0.058532
C49   C     C_R   0.663791 0.842507 0.485736 -0.067684
C50   C     C_R   0.337193 0.157431 0.512445 -0.066060
C51   C     C_R   0.837352 0.342540 0.512302 -0.065412
C52   C     C_R   0.692832 0.809826 0.494202 0.960784
C53   C     C_R   0.162641 0.657459 0.487712 -0.067316
C54   C     C_R   0.162708 0.342531 0.487606 -0.065952
C55   C     C_R   0.837283 0.657468 0.512413 -0.067364
C56   C     C_R   0.402212 0.841243 0.448616 -0.235022
C57   C     C_R   0.598664 0.150933 0.566304 -0.241853
C58   C     C_R   0.598359 0.838470 0.544746 -0.230394
C59   C     C_R   0.365121 0.122903 0.450657 -0.230077
C60   C     C_R   0.864542 0.377358 0.451324 -0.235626
C61   C     C_R   0.135410 0.622659 0.548736 -0.235569
C62   C     C_R   0.135409 0.377319 0.548687 -0.235500
C63   C     C_R   0.307597 0.190129 0.504977 0.962643
C64   C     C_R   0.864485 0.622638 0.451443 -0.235487
C65   C     C_R   0.434901 0.874328 0.443267 -0.198936
C66   C     C_R   0.567701 0.117509 0.569164 -0.198832
C67   C     C_R   0.565180 0.871256 0.550215 -0.201917
C68   C     C_R   0.400498 0.092668 0.445822 -0.204853
C69   C     C_R   0.899931 0.407601 0.446384 -0.197170
C70   C     C_R   0.100023 0.592419 0.553670 -0.197790
C71   C     C_R   0.099978 0.407560 0.553647 -0.197799
C72   C     C_R   0.899916 0.592392 0.446475 -0.197974
C73   C     C_R   0.401926 0.909952 0.501549 -0.076630
C74   C     C_R   0.807611 0.309879 0.505000 0.958098
C75   C     C_R   0.600912 0.089881 0.493989 -0.080591
C76   C     C_R   0.596709 0.909031 0.499578 -0.068499
C77   C     C_R   0.409444 0.097193 0.501313 -0.069804
C78   C     C_R   0.909655 0.402811 0.500918 -0.071434
C79   C     C_R   0.090340 0.597194 0.499083 -0.071471
C80   C     C_R   0.090329 0.402780 0.499037 -0.071186
C81   C     C_R   0.909662 0.597208 0.500964 -0.071193
C82   C     C_R   0.941195 0.562432 0.500054 0.888053
C83   C     C_R   0.058796 0.437559 0.499946 0.888094
C84   C     C_R   0.058834 0.562406 0.499964 0.887528
C85   C     C_R   0.192383 0.690120 0.495013 0.962293
C86   C     C_R   0.941162 0.437598 0.500035 0.887558
C87   C     C_R   0.441208 0.062476 0.500114 0.896458
C88   C     C_R   0.561788 0.940397 0.500058 0.897615
C89   C     C_R   0.563969 0.057976 0.498917 0.877229
C90   C     C_R   0.437420 0.941196 0.500124 0.903187
C91   C     C_R   0.335976 0.750154 0.328484 0.932038
C92   C     C_R   0.664024 0.249847 0.671516 0.926325
C93   C     C_R   0.664041 0.750163 0.671490 0.932655
C94   C     C_R   0.335962 0.249835 0.328510 0.929144
C95   C     C_R   0.836709 0.250980 0.328523 0.948917
C96   C     C_R   0.192425 0.309867 0.494953 0.960318
C97   C     C_R   0.163982 0.749776 0.671517 0.932014
C98   C     C_R   0.164016 0.250196 0.671491 0.930654
C99   C     C_R   0.835901 0.749874 0.328509 0.926219
C100  C     C_1   0.386802 0.750056 0.226846 -0.188709
C101  C     C_1   0.613196 0.249941 0.773154 -0.186842
C102  C     C_1   0.613230 0.750073 0.773128 -0.188026
C103  C     C_1   0.386772 0.249922 0.226872 -0.186813
C104  C     C_1   0.887531 0.250947 0.226836 -0.183406
C105  C     C_1   0.113195 0.749929 0.773156 -0.174142
C106  C     C_1   0.113236 0.250153 0.773134 -0.186031
C107  C     C_R   0.807571 0.690133 0.505055 0.962746
C108  C     C_1   0.886674 0.750016 0.226876 -0.172227
C109  C     C_1   0.429039 0.750003 0.142229 0.002825
C110  C     C_1   0.570957 0.249990 0.857770 0.003297
C111  C     C_1   0.571000 0.750017 0.857744 0.003073
C112  C     C_1   0.429000 0.249976 0.142255 0.003275
C113  C     C_1   0.929664 0.250759 0.142224 -0.000927
C114  C     C_1   0.070946 0.750058 0.857772 0.005470
C115  C     C_1   0.071113 0.250203 0.857751 0.005603
C116  C     C_1   0.928924 0.750115 0.142258 0.007580
C117  C     C_1   0.478907 0.749978 0.042298 0.017751
C118  C     C_R   0.335224 0.913360 0.565947 0.028640
C119  C     C_1   0.521089 0.250015 0.957702 0.018593
C120  C     C_1   0.521135 0.749982 0.957676 0.017828
C121  C     C_1   0.478863 0.250010 0.042323 0.018631
C122  C     C_1   0.979355 0.250512 0.042300 0.020499
C123  C     C_1   0.021058 0.750149 0.957704 0.015730
C124  C     C_1   0.021423 0.250341 0.957682 0.023706
C125  C     C_1   0.978814 0.750166 0.042325 0.016099
C126  C     C_R   0.232968 0.878685 0.652312 0.304282
C127  C     C_R   0.764962 0.137345 0.326794 0.292174
C128  C     C_R   0.765575 0.882644 0.357465 0.310578
H1    H     H_    0.428790 0.814451 0.400457 0.159145
H2    H     H_    0.791949 0.052326 0.199329 0.192447
H3    H     H_    0.779257 0.990373 0.306975 0.191146
H4    H     H_    0.382643 0.178572 0.710261 0.183641
H5    H     H_    0.886857 0.320052 0.704872 0.185288
H6    H     H_    0.113331 0.679887 0.294885 0.184890
H7    H     H_    0.113530 0.320153 0.294654 0.186228
H8    H     H_    0.886843 0.679968 0.704863 0.184759
H9    H     H_    0.327608 0.980845 0.605100 0.182430
H10   H     H_    0.684985 0.037461 0.335624 0.197210
H11   H     H_    0.663943 0.983668 0.422129 0.157011
H12   H     H_    0.572218 0.171736 0.626027 0.146255
H13   H     H_    0.431835 0.119474 0.601432 0.181138
H14   H     H_    0.934309 0.379851 0.597871 0.173298
H15   H     H_    0.065773 0.620134 0.402012 0.173297
H16   H     H_    0.065813 0.379895 0.401907 0.173452
H17   H     H_    0.934359 0.620138 0.597846 0.173184
H18   H     H_    0.486104 0.871955 0.394016 0.162063
H19   H     H_    0.517155 0.113692 0.630153 0.163778
H20   H     H_    0.514827 0.867189 0.593951 0.159015
H21   H     H_    0.420448 0.065352 0.399286 0.158469
H22   H     H_    0.919233 0.435149 0.400582 0.155366
H23   H     H_    0.572611 0.810078 0.588006 0.163916
H24   H     H_    0.080689 0.564882 0.599509 0.155255
H25   H     H_    0.080581 0.435098 0.599522 0.155418
H26   H     H_    0.919239 0.564824 0.400686 0.155382
H27   H     H_    0.157798 0.851440 0.696548 0.345124
H28   H     H_    0.841023 0.160275 0.285065 0.342593
H29   H     H_    0.841238 0.855005 0.311348 0.345686
H30   H     H_    0.226744 0.221362 0.738502 0.337736
H31   H     H_    0.729140 0.277601 0.737060 0.337323
H32   H     H_    0.271012 0.722266 0.262827 0.337156
H33   H     H_    0.271279 0.277740 0.262611 0.337325
H34   H     H_    0.360264 0.119688 0.404864 0.160529
H35   H     H_    0.728989 0.722459 0.737200 0.337121
H36   H     H_    0.120596 0.888923 0.811826 0.346103
H37   H     H_    0.868174 0.149194 0.159551 0.346134
H38   H     H_    0.879050 0.900043 0.205313 0.346096
H39   H     H_    0.286637 0.257461 0.739369 0.341731
H40   H     H_    0.790494 0.241287 0.734884 0.342887
H41   H     H_    0.209788 0.758613 0.264777 0.342757
H42   H     H_    0.210194 0.241407 0.264406 0.342880
H43   H     H_    0.790287 0.758766 0.735009 0.342699
H44   H     H_    0.859061 0.380825 0.406280 0.159084
H45   H     H_    0.140861 0.619204 0.593817 0.159278
H46   H     H_    0.140832 0.380758 0.593798 0.159270
H47   H     H_    0.858991 0.619169 0.406418 0.159554
H48   H     H_    0.212933 0.982352 0.727530 0.191008
O1    O     O_R   0.321660 0.769950 0.500020 -0.627774
O2    O     O_R   0.730050 0.178330 0.500000 -0.595429
O3    O     O_R   0.730050 0.821670 0.500000 -0.595242
O4    O     O_R   0.269950 0.178330 0.500000 -0.630963
O5    O     O_R   0.769950 0.321670 0.500000 -0.632541
O6    O     O_R   0.230050 0.678330 0.500000 -0.630516
O7    O     O_R   0.230050 0.321670 0.500000 -0.633116
O8    O     O_R   0.769950 0.678330 0.500000 -0.630124
O9    O     O_R   0.339000 0.724150 0.373720 -0.607213
O10   O     O_R   0.661000 0.275850 0.626280 -0.607419
O11   O     O_R   0.661000 0.724150 0.626280 -0.606944
O12   O     O_R   0.678340 0.230050 0.499980 -0.618762
O13   O     O_R   0.339000 0.275850 0.373720 -0.607435
O14   O     O_R   0.839000 0.224150 0.373720 -0.590386
O15   O     O_R   0.161000 0.775850 0.626280 -0.593051
O16   O     O_R   0.161000 0.224150 0.626280 -0.603986
O17   O     O_R   0.839000 0.775850 0.373720 -0.592554
O18   O     O_R   0.287290 0.775870 0.373700 -0.576859
O19   O     O_R   0.712710 0.224130 0.626300 -0.578406
O20   O     O_R   0.712710 0.775870 0.626300 -0.576355
O21   O     O_R   0.287290 0.224130 0.373700 -0.578221
O22   O     O_R   0.787290 0.275870 0.373700 -0.601070
O23   O     O_R   0.678340 0.769950 0.499980 -0.630320
O24   O     O_R   0.212710 0.724130 0.626300 -0.607261
O25   O     O_R   0.212710 0.275870 0.626300 -0.580180
O26   O     O_R   0.787290 0.724130 0.373700 -0.608223
O27   O     O_R   0.989830 0.545820 0.428700 -0.633301
O28   O     O_R   0.010170 0.454180 0.571300 -0.633368
O29   O     O_R   0.010170 0.545820 0.571300 -0.633354
O30   O     O_R   0.989830 0.454180 0.428700 -0.632986
O31   O     O_R   0.489830 0.045820 0.428700 -0.618774
O32   O     O_R   0.510170 0.954180 0.571300 -0.620929
O33   O     O_R   0.510170 0.045820 0.571300 -0.630997
O34   O     O_R   0.321660 0.230050 0.500020 -0.584771
O35   O     O_R   0.489830 0.954180 0.428700 -0.622588
O36   O     O_R   0.918540 0.545810 0.571290 -0.611882
O37   O     O_R   0.081460 0.454190 0.428710 -0.611592
O38   O     O_R   0.081460 0.545810 0.428710 -0.611754
O39   O     O_R   0.918540 0.454190 0.571290 -0.611900
O40   O     O_R   0.418540 0.045810 0.571290 -0.628276
O41   O     O_R   0.581460 0.954190 0.428710 -0.622289
O42   O     O_R   0.581460 0.045810 0.428710 -0.631922
O43   O     O_R   0.418540 0.954190 0.571290 -0.616291
O44   O     O_3   0.198735 0.842150 0.672473 -0.790268
O45   O     O_R   0.821660 0.269950 0.500020 -0.585920
O46   O     O_3   0.797197 0.170438 0.322076 -0.796426
O47   O     O_3   0.801724 0.846096 0.330858 -0.786200
O48   O     O_3   0.257204 0.213678 0.672676 -0.786095
O49   O     O_3   0.758903 0.285683 0.671558 -0.785319
O50   O     O_3   0.241178 0.714265 0.328385 -0.786108
O51   O     O_3   0.241401 0.285714 0.328197 -0.786031
O52   O     O_3   0.758760 0.714377 0.671687 -0.786330
O53   O     O_3   0.136695 0.918481 0.785764 -0.753403
O54   O     O_3   0.858834 0.117773 0.165204 -0.752287
O55   O     O_3   0.859869 0.928066 0.238251 -0.752057
O56   O     O_R   0.178340 0.730050 0.499980 -0.584719
O57   O     O_3   0.300731 0.233979 0.753480 -0.760217
O58   O     O_3   0.804838 0.264618 0.748813 -0.761796
O59   O     O_3   0.195386 0.735292 0.250922 -0.762904
O60   O     O_3   0.195715 0.264730 0.250613 -0.759575
O61   O     O_3   0.804708 0.735438 0.748883 -0.763216
O62   O     O_R   0.178340 0.269950 0.499980 -0.583580
O63   O     O_R   0.821660 0.730050 0.500020 -0.584414
O64   O     O_R   0.269950 0.821670 0.500000 -0.595674
Zn1   Zn    Zn3+2 0.284530 0.715470 0.500010 0.981367
Zn2   Zn    Zn3+2 0.952400 0.500000 0.595210 0.969290
Zn3   Zn    Zn3+2 0.547600 0.000000 0.404790 0.968090
Zn4   Zn    Zn3+2 0.452400 0.000000 0.595210 0.970881
Zn5   Zn    Zn3+2 0.715470 0.284530 0.499990 0.988772
Zn6   Zn    Zn3+2 0.715470 0.715470 0.499990 0.979776
Zn7   Zn    Zn3+2 0.284530 0.284530 0.500010 0.998733
Zn8   Zn    Zn3+2 0.784530 0.215470 0.500010 1.014006
Zn9   Zn    Zn3+2 0.215470 0.784530 0.499990 1.009450
Zn10  Zn    Zn3+2 0.215470 0.215470 0.499990 1.007368
Zn11  Zn    Zn3+2 0.784530 0.784530 0.500010 1.009479
Zn12  Zn    Zn3+2 0.047600 0.500000 0.404790 0.970289

loop_
_geom_bond_atom_site_label_1
_geom_bond_atom_site_label_2
_ccdc_geom_bond_type
C61   C70   A    
C11   O57   S    
O1    Zn1   S    
C3    C42   A    
O40   Zn4   S    
C85   O6    A    
O25   Zn7   S    
C6    C45   A    
O13   Zn7   S    
C24   C42   A    
C94   O13   A    
C98   O25   A    
C103  C112  T    
C51   C74   S    
O12   Zn5   S    
C57   C66   A    
C64   C72   A    
C43   C51   A    
C86   O30   A    
C81   C82   S    
C102  C111  T    
C109  C117  S    
C48   C57   A    
C74   O5    A    
C5    O50   S    
C12   O58   S    
C99   C108  S    
C85   O56   A    
C74   O45   A    
C9    C127  A    
C22   H6    S    
C50   C59   A    
C32   C36   A    
C20   H4    S    
C73   C90   S    
O11   Zn6   S    
C82   O27   A    
C92   O10   A    
C123  C125  T    
C7    O52   S    
O22   Zn5   S    
C40   C49   A    
C62   H46   S    
C60   C69   A    
C16   C25   A    
C65   C73   A    
C88   O41   A    
C128  O47   S    
O37   Zn12  S    
H28   O46   S    
C35   C79   A    
C25   H8    S    
C86   O39   A    
C71   C80   A    
C13   C40   A    
O36   Zn2   S    
C68   H21   S    
C95   O14   A    
C38   C126  A    
C6    C15   A    
C24   C29   A    
O4    Zn10  S    
C84   O29   A    
C54   C62   A    
C113  C122  S    
C40   C128  A    
C84   O38   A    
H35   O52   S    
C15   O60   S    
C87   O40   A    
H32   O50   S    
C13   C28   A    
C2    C27   A    
C115  C124  S    
C6    O51   S    
C91   C100  S    
C4    C12   A    
O30   Zn12  S    
C76   C88   S    
C54   C96   S    
C72   C81   A    
C127  O46   S    
C17   H48   S    
C97   C105  S    
C78   C86   S    
O17   Zn11  S    
C91   O9    A    
C110  C119  S    
C100  C109  T    
O62   Zn10  S    
C50   C63   S    
C79   C84   S    
C97   O24   A    
C37   C81   A    
C69   C78   A    
C28   H11   S    
C1    O1    A    
O34   Zn7   S    
C88   O32   A    
C80   C83   S    
C10   C128  A    
C2    C39   A    
O33   Zn4   S    
C21   H5    S    
C14   O59   S    
C83   O37   A    
C126  O44   S    
C82   O36   A    
C20   C29   A    
C119  C121  T    
C1    O64   A    
C19   H3    S    
O26   Zn6   S    
C11   C20   A    
O23   Zn6   S    
C27   H10   S    
C72   H26   S    
C22   C31   A    
C30   C34   A    
O63   Zn11  S    
C60   H44   S    
C7    C46   A    
O35   Zn3   S    
C105  C114  T    
H27   O44   S    
C70   H24   S    
O10   Zn5   S    
C98   O16   A    
C36   C80   A    
C56   H1    S    
C91   O18   A    
C75   C89   S    
C1    C47   S    
O9    Zn1   S    
H43   O61   S    
C101  C110  T    
O42   Zn3   S    
C107  O63   A    
C12   C21   A    
C3    O48   S    
C33   C37   A    
C63   O4    A    
C104  C113  T    
C41   O12   A    
C55   C107  S    
C111  C120  S    
C39   C127  A    
C46   C55   A    
C16   O61   S    
O41   Zn3   S    
C95   C104  S    
C35   C44   A    
O31   Zn3   S    
C59   C68   A    
O3    Zn11  S    
C8    O53   S    
C41   O2    A    
C13   C76   A    
C97   O15   A    
C10   C19   A    
C49   C52   S    
C29   H13   S    
C55   C64   A    
C38   C47   A    
C66   H19   S    
O18   Zn9   S    
C61   H45   S    
C36   C45   A    
C52   O23   A    
O7    Zn7   S    
C4    O49   S    
C64   H47   S    
C19   C28   A    
C47   C56   A    
C87   O31   A    
C5    C14   A    
C33   H17   S    
C92   C101  S    
C42   C50   A    
O2    Zn8   S    
C114  C123  S    
C93   O11   A    
C8    C126  A    
C7    C16   A    
C4    C43   A    
C5    C44   A    
C94   C103  S    
C116  C125  S    
C99   O26   A    
O38   Zn12  S    
H37   O54   S    
C31   C35   A    
C117  C120  T    
C93   O20   A    
C69   H22   S    
C63   O34   A    
C122  C124  T    
O29   Zn2   S    
O6    Zn1   S    
C67   H20   S    
C58   H23   S    
H40   O58   S    
C21   C30   A    
C68   C77   A    
H39   O57   S    
O39   Zn2   S    
H30   O48   S    
C73   C118  A    
H41   O59   S    
C70   C79   A    
C96   O62   A    
C53   C61   A    
C18   C27   A    
O32   Zn4   S    
C83   O28   A    
C92   O19   A    
C98   C106  S    
C93   C102  S    
C45   C54   A    
O28   Zn2   S    
O56   Zn9   S    
O45   Zn8   S    
O8    Zn6   S    
C3    C11   A    
C26   C118  A    
O19   Zn8   S    
C99   O17   A    
O14   Zn8   S    
C8    C17   A    
C30   H14   S    
C23   H7    S    
C106  C115  T    
C94   O21   A    
C23   C32   A    
C108  C116  T    
C51   C60   A    
C65   H18   S    
C52   O3    A    
C112  C121  S    
C59   H34   S    
C34   C78   A    
C57   H12   S    
C89   O42   A    
C14   C22   A    
O43   Zn4   S    
C90   O35   A    
H42   O60   S    
C9    C18   A    
C95   O22   A    
O16   Zn10  S    
C66   C75   A    
O20   Zn11  S    
C15   C23   A    
C10   O55   S    
O15   Zn9   S    
C41   C48   S    
C17   C26   A    
C62   C71   A    
O5    Zn5   S    
H31   O49   S    
C31   H15   S    
C32   H16   S    
C44   C53   A    
C18   H2    S    
C49   C58   A    
C26   H9    S    
O27   Zn12  S    
C38   C118  A    
C58   C67   A    
O64   Zn9   S    
C77   C87   S    
C90   O43   A    
C25   C33   A    
C24   C77   A    
H29   O47   S    
C89   O33   A    
C9    O54   S    
C53   C85   S    
C67   C76   A    
C96   O7    A    
C37   C46   A    
C34   C43   A    
C107  O8    A    
O24   Zn1   S    
H36   O53   S    
H38   O55   S    
C2    C75   A    
C56   C65   A    
O21   Zn10  S    
C39   C48   A    
H33   O51   S    
C71   H25   S    
