data_mof_unit_39553.cif
_audit_creation_date              2012-12-10T18:14:38-0500
_audit_creation_method            fapswitch 2.2
_symmetry_space_group_name_H-M    P1
_symmetry_Int_Tables_number       1
_space_group_crystal_system       triclinic
_cell_length_a                    10.720702
_cell_length_b                    9.415411
_cell_length_c                    27.79472
_cell_angle_alpha                 90.470632
_cell_angle_beta                  89.297064
_cell_angle_gamma                 89.729255
_cell_volume                      2805.25544943

loop_
_atom_site_label
_atom_site_type_symbol
_atom_type_description
_atom_site_fract_x
_atom_site_fract_y
_atom_site_fract_z
_atom_type_partial_charge
C1    C     C_R   0.259646 0.499997 0.500520 0.933375
C2    C     C_R   0.478625 0.611127 0.276784 -0.212604
C3    C     C_R   0.524666 0.490079 0.252999 0.197935
C4    C     C_R   0.517024 0.489419 0.101313 -0.186875
C5    C     C_R   0.405947 0.505982 0.128651 -0.092299
C6    C     C_R   0.294099 0.540114 0.105189 0.450551
C7    C     C_R   0.632700 0.476310 0.125012 -0.105154
C8    C     C_R   0.506927 0.497297 0.354137 -0.245838
C9    C     C_R   0.494128 0.501521 0.645590 -0.070094
C10   C     C_R   0.390117 0.484687 0.976122 -0.078972
C11   C     C_R   0.618482 0.462526 0.971868 -0.063678
C12   C     C_R   0.500805 0.499437 0.407354 0.886155
C13   C     C_R   0.502171 0.478415 0.948693 -0.055378
C14   C     C_R   0.275681 0.468251 0.951466 0.332244
C15   C     C_R   0.270031 0.494253 0.902007 0.378106
C16   C     C_R   0.381532 0.498331 0.874378 -0.156117
C17   C     C_R   0.497391 0.482214 0.897698 -0.177330
C18   C     C_R   0.608429 0.468916 0.870044 -0.171862
C19   C     C_R   0.602390 0.483909 0.819789 0.578018
C20   C     C_R   0.380872 0.507839 0.823709 0.585206
C21   C     C_R   0.492661 0.373424 0.721020 -0.117606
C22   C     C_R   0.495973 0.372920 0.670909 -0.109164
C23   C     C_R   0.739956 0.499568 0.500457 0.845535
C24   C     C_R   0.487220 0.630539 0.671425 -0.119544
C25   C     C_R   0.483572 0.630659 0.721653 -0.107149
C26   C     C_R   0.486855 0.502094 0.746489 0.332508
C27   C     C_R   0.395904 0.498395 0.026989 0.021070
C28   C     C_R   0.512154 0.486195 0.050258 0.061529
C29   C     C_R   0.623658 0.473883 0.022857 0.041578
C30   C     C_R   0.289950 0.534868 0.055086 -0.307630
C31   C     C_R   0.744157 0.470344 0.097387 0.445501
C32   C     C_R   0.724189 0.426194 0.943199 0.456444
C33   C     C_R   0.720647 0.432983 0.893103 0.367234
C34   C     C_R   0.498388 0.500540 0.592588 0.873314
C35   C     C_R   0.737597 0.482528 0.047279 -0.251642
C36   C     C_3   0.069518 0.590886 0.543525 0.467291
C37   C     C_3   0.071145 0.344563 0.505858 0.461810
C38   C     C_3   0.925504 0.587524 0.543999 -0.417856
C39   C     C_3   0.928356 0.344598 0.505206 -0.419054
C40   C     C_3   0.072492 0.562122 0.452937 0.902422
C41   C     C_3   0.121453 0.499306 0.500870 -0.226945
C42   C     C_3   0.877691 0.498632 0.500778 -0.142907
C43   C     C_3   0.928359 0.562830 0.453319 -0.460610
C44   C     C_3   0.608473 0.083729 0.527677 0.564060
C45   C     C_3   0.608086 0.916294 0.527896 0.575950
C46   C     C_3   0.383948 0.084683 0.523030 0.602669
C47   C     C_3   0.383688 0.917250 0.522815 0.544891
C48   C     C_3   0.509132 0.082571 0.451553 -0.516932
C49   C     C_3   0.510043 0.915246 0.451611 -0.523972
C50   C     C_R   0.411112 0.493616 0.178879 0.554830
C51   C     C_R   0.633014 0.475022 0.175859 0.585097
C52   C     C_R   0.564136 0.373515 0.279617 -0.168299
C53   C     C_R   0.557150 0.377368 0.329729 0.514711
C54   C     C_R   0.463777 0.613838 0.326987 0.352958
Cu1   Cu    Cu3+1 0.499860 0.642410 0.500020 1.039856
Cu2   Cu    Cu3+1 0.499860 0.357590 0.500020 1.050666
H1    H     H_    0.599812 0.279397 0.261390 0.178756
H2    H     H_    0.485066 0.731227 0.652914 0.246279
H3    H     H_    0.479707 0.730422 0.741283 0.145557
H4    H     H_    0.823086 0.505174 0.028146 0.209124
H5    H     H_    0.100608 0.702858 0.539580 0.144299
H6    H     H_    0.106379 0.277482 0.475389 0.106151
H7    H     H_    0.890494 0.541292 0.578306 0.236316
H8    H     H_    0.891250 0.295130 0.538678 0.246628
H9    H     H_    0.450810 0.702246 0.255855 0.152464
H10   H     H_    0.889089 0.698261 0.542263 0.173785
H11   H     H_    0.896595 0.278551 0.474300 0.154074
H12   H     H_    0.893178 0.673543 0.449396 0.192041
H13   H     H_    0.893284 0.500807 0.422046 0.197523
H14   H     H_    0.696875 0.118457 0.510170 0.020197
H15   H     H_    0.696785 0.879142 0.510779 0.019076
H16   H     H_    0.429418 0.120474 0.429744 0.230345
H17   H     H_    0.431322 0.876565 0.429818 0.254569
H18   H     H_    0.595559 0.120827 0.433449 0.269478
H19   H     H_    0.596787 0.875608 0.433534 0.229420
H20   H     H_    0.302127 0.120360 0.502058 0.045429
H21   H     H_    0.302213 0.881753 0.501525 0.058483
H22   H     H_    0.500703 0.271879 0.652100 0.248046
H23   H     H_    0.495746 0.273819 0.740187 0.141916
H24   H     H_    0.203090 0.565785 0.038880 0.197565
N1    N     N_R   0.523329 0.483574 0.201361 -0.453838
N2    N     N_R   0.490097 0.501315 0.797991 -0.473131
N3    N     N_3   0.500250 0.143650 0.501060 -0.284879
N4    N     N_3   0.500250 0.856350 0.501060 -0.272066
O1    O     O_R   0.317570 0.620260 0.500030 -0.563117
O2    O     O_R   0.317570 0.379740 0.500030 -0.565860
O3    O     O_R   0.499900 0.620250 0.430280 -0.567692
O4    O     O_R   0.499900 0.379750 0.430280 -0.559967
O5    O     O_R   0.682190 0.620260 0.500010 -0.600387
O6    O     O_R   0.682190 0.379740 0.500010 -0.590995
O7    O     O_R   0.499860 0.620280 0.569750 -0.490992
O8    O     O_R   0.499860 0.379720 0.569750 -0.483357
O9    O     O_2   0.304802 0.489547 0.205337 -0.501737
O10   O     O_2   0.272536 0.521823 0.800008 -0.496576
O11   O     O_2   0.741435 0.466913 0.199815 -0.476449
O12   O     O_2   0.707507 0.481305 0.792581 -0.496718
O13   O     O_3   0.412172 0.732638 0.349448 -0.599511
C55   C     C_3   0.283917 0.742083 0.338248 0.098436
H25   H     H_    0.232543 0.652424 0.355013 0.229774
H26   H     H_    0.268306 0.739533 0.298716 0.135203
C56   C     C_3   0.230459 0.882343 0.357719 -0.326534
H27   H     H_    0.236441 0.885050 0.397525 0.247948
H28   H     H_    0.285766 0.972170 0.343118 0.223999
C57   C     C_3   0.094197 0.901337 0.343713 -0.807748
H29   H     H_    0.085737 0.904212 0.303929 0.247345
H30   H     H_    0.057756 0.002945 0.358955 0.258459
H31   H     H_    0.036932 0.812866 0.358076 0.288036
O14   O     O_3   0.859300 0.464905 0.119920 -0.558462
C58   C     C_3   0.933363 0.349899 0.102261 0.108272
H32   H     H_    0.028319 0.362159 0.117160 0.208729
H33   H     H_    0.946254 0.351974 0.062601 0.151969
C59   C     C_3   0.882920 0.205322 0.118634 -0.339013
H34   H     H_    0.892030 0.196716 0.158295 0.245525
H35   H     H_    0.782710 0.194860 0.109616 0.216381
C60   C     C_3   0.954342 0.083636 0.094075 -0.951059
H36   H     H_    0.936622 0.083507 0.054774 0.270378
H37   H     H_    0.922918 0.980670 0.109049 0.264242
H38   H     H_    0.056044 0.094735 0.099916 0.253550
F1    F     F_    0.828455 0.369366 0.962666 -0.709239
O15   O     O_3   0.829550 0.407383 0.867139 -0.544130
C61   C     C_3   0.838748 0.260663 0.856487 0.121231
H39   H     H_    0.752784 0.221266 0.838620 0.127752
H40   H     H_    0.853935 0.199160 0.889972 0.163339
C62   C     C_3   0.949648 0.236128 0.822280 -0.276263
H41   H     H_    0.935173 0.297299 0.788752 0.269988
H42   H     H_    0.036289 0.274693 0.839426 0.260928
C63   C     C_3   0.965855 0.079275 0.809427 -0.906142
H43   H     H_    0.986588 0.017337 0.842162 0.243686
H44   H     H_    0.044991 0.066141 0.783599 0.284770
H45   H     H_    0.880014 0.037381 0.792532 0.272349
F2    F     F_    0.114438 0.542282 0.587015 -0.571165
F3    F     F_    0.111759 0.283296 0.548167 -0.559921
F4    F     F_    0.114536 0.700014 0.447229 -0.713625
F5    F     F_    0.116147 0.481487 0.414219 -0.707075
F6    F     F_    0.610821 0.135509 0.574411 -0.578369
F7    F     F_    0.608991 0.867442 0.574750 -0.574855
F8    F     F_    0.366581 0.136625 0.569426 -0.517074
F9    F     F_    0.365308 0.866570 0.569010 -0.553475
O16   O     O_3   0.186825 0.575861 0.130962 -0.569723
C64   C     C_3   0.168033 0.725092 0.130582 0.093962
H46   H     H_    0.065754 0.744748 0.131224 0.185385
H47   H     H_    0.204938 0.777549 0.097484 0.103743
C65   C     C_3   0.224363 0.793749 0.175552 -0.327947
H48   H     H_    0.186216 0.741444 0.208233 0.257634
H49   H     H_    0.327256 0.779512 0.174706 0.204552
C66   C     C_3   0.195221 0.952211 0.178758 -0.919159
H50   H     H_    0.234554 0.007757 0.146951 0.256280
H51   H     H_    0.237739 0.997556 0.211687 0.269708
H52   H     H_    0.092823 0.969999 0.180869 0.270819
O17   O     O_3   0.154778 0.489795 0.880124 -0.566861
C67   C     C_3   0.099859 0.627053 0.880336 0.168707
H53   H     H_    0.037416 0.631606 0.848766 0.217697
H54   H     H_    0.169290 0.713855 0.875335 0.092036
C68   C     C_3   0.021942 0.652717 0.926354 -0.325036
H55   H     H_    0.976113 0.552538 0.937002 0.322960
H56   H     H_    0.083999 0.686678 0.955997 0.202183
C69   C     C_3   0.920960 0.765336 0.919618 -0.934291
H57   H     H_    0.963264 0.868318 0.909752 0.254078
H58   H     H_    0.867429 0.779723 0.953784 0.260937
H59   H     H_    0.855364 0.731836 0.891094 0.279433
O18   O     O_3   0.168635 0.417614 0.973936 -0.613093
C70   C     C_3   0.184429 0.272855 0.986338 0.097739
H60   H     H_    0.112820 0.247277 0.014042 0.166369
H61   H     H_    0.276260 0.250687 0.003095 0.129044
C71   C     C_3   0.165137 0.174607 0.942789 -0.303961
H62   H     H_    0.070730 0.192860 0.927943 0.254494
H63   H     H_    0.235525 0.198088 0.914333 0.214270
C72   C     C_3   0.178536 0.018915 0.956729 -0.972255
H64   H     H_    0.270786 0.999484 0.973283 0.259997
H65   H     H_    0.171855 0.951105 0.924044 0.258748
H66   H     H_    0.103485 0.988861 0.982560 0.266578
F10   F     F_    0.601069 0.263851 0.354153 -0.671417

loop_
_geom_bond_atom_site_label_1
_geom_bond_atom_site_label_2
_ccdc_geom_bond_type
C10   C27   A    
C65   C66   S    
C21   C26   A    
C71   H62   S    
C20   N2    A    
C45   H15   S    
C31   O14   S    
C64   C65   S    
Cu1   Cu2   S    
C2    H9    S    
C59   H35   S    
O13   C55   S    
C52   C53   A    
C39   H8    S    
C69   H57   S    
C23   C42   S    
C49   N4    S    
C28   C29   A    
C64   H47   S    
C38   C42   S    
C58   H33   S    
C5    C6    A    
C3    C52   A    
C9    C22   A    
Cu2   O4    S    
C65   H48   S    
C70   C71   S    
O14   C58   S    
C18   C19   A    
C67   C68   S    
C6    O16   S    
C34   O7    A    
C57   H29   S    
C61   C62   S    
Cu1   O7    S    
C53   F10   S    
C38   H7    S    
C40   C43   S    
C38   H10   S    
C16   C17   A    
C60   H37   S    
C3    N1    S    
C67   H53   S    
C23   O5    A    
C54   O13   S    
C44   H14   S    
C19   N2    A    
C51   N1    A    
C70   H61   S    
C8    C12   S    
C30   H24   S    
C44   N3    S    
C44   F6    S    
Cu2   O6    S    
C68   H56   S    
C71   H63   S    
C21   C22   A    
C27   C30   A    
C37   C41   S    
C57   H31   S    
C67   H54   S    
C36   C41   S    
C48   H16   S    
C4    C7    A    
C46   H20   S    
C59   H34   S    
C4    C28   A    
O18   C70   S    
C39   C42   S    
C66   H51   S    
C72   H66   S    
C1    O1    A    
C7    C31   A    
C15   C16   A    
C12   O4    A    
C56   H27   S    
C48   H18   S    
C64   H46   S    
C22   H22   S    
C68   C69   S    
C10   C14   A    
C36   F2    S    
C8    C54   A    
C43   H12   S    
C25   C26   A    
C40   F5    S    
C35   H4    S    
Cu1   O1    S    
C63   H44   S    
C66   H52   S    
Cu2   O2    S    
C16   C20   A    
C60   H38   S    
C21   H23   S    
C49   H19   S    
C17   C18   A    
C68   H55   S    
C23   O6    A    
C9    C24   A    
C47   N4    S    
C24   C25   A    
C61   H39   S    
C26   N2    S    
C66   H50   S    
C62   C63   S    
C1    C41   S    
C40   C41   S    
C6    C30   A    
C11   C32   A    
C56   C57   S    
C55   H26   S    
C46   F8    S    
C2    C54   A    
C9    C34   S    
C31   C35   A    
C5    C50   A    
C58   C59   S    
C45   N4    S    
C42   C43   S    
C47   H21   S    
C32   F1    S    
C63   H43   S    
O15   C61   S    
Cu2   N3    S    
C62   H42   S    
C70   H60   S    
C56   H28   S    
C1    O2    A    
C65   H49   S    
C20   O10   S    
C46   C47   S    
C72   H64   S    
C45   F7    S    
C12   O3    A    
C14   C15   A    
C39   H11   S    
C44   C45   S    
C4    C5    A    
C10   C13   A    
C8    C53   A    
C69   H58   S    
O16   C64   S    
C48   N3    S    
C50   O9    S    
C57   H30   S    
C69   H59   S    
C55   C56   S    
C40   F4    S    
C29   C35   A    
C71   C72   S    
C37   F3    S    
C13   C17   A    
C32   C33   A    
C14   O18   S    
C36   C38   S    
C2    C3    A    
C63   H45   S    
C7    C51   A    
C37   C39   S    
C58   H32   S    
C11   C13   A    
C60   H36   S    
C48   C49   S    
C47   F9    S    
C72   H65   S    
C49   H17   S    
C59   C60   S    
Cu1   O3    S    
Cu1   O5    S    
C18   C33   A    
C34   O8    A    
C61   H40   S    
C52   H1    S    
C46   N3    S    
Cu2   O8    S    
C11   C29   A    
C33   O15   S    
C24   H2    S    
C55   H25   S    
C27   C28   A    
C37   H6    S    
O17   C67   S    
C25   H3    S    
Cu1   N4    S    
C43   H13   S    
C15   O17   S    
C19   O12   S    
C36   H5    S    
C50   N1    A    
C51   O11   S    
C62   H41   S    
