data_mof_unit_25057.cif
_audit_creation_date              2012-12-11T16:17:41-0500
_audit_creation_method            fapswitch 2.2
_symmetry_space_group_name_H-M    P1
_symmetry_Int_Tables_number       1
_space_group_crystal_system       triclinic
_cell_length_a                    6.914376
_cell_length_b                    28.822102
_cell_length_c                    32.033493
_cell_angle_alpha                 101.112523
_cell_angle_beta                  89.687535
_cell_angle_gamma                 90.47061
_cell_volume                      6263.9002129

loop_
_atom_site_label
_atom_site_type_symbol
_atom_type_description
_atom_site_fract_x
_atom_site_fract_y
_atom_site_fract_z
_atom_type_partial_charge
O1    O     O_R   0.494350 0.453160 0.452490 -0.510699
O2    O     O_R   0.820990 0.455850 0.538220 -0.543397
O3    O     O_R   0.994300 0.546840 0.547510 -0.543318
C1    C     C_R   0.651597 0.445824 0.551757 0.692658
O4    O     O_R   0.823860 0.447580 0.452250 -0.527966
O5    O     O_R   0.997190 0.538510 0.460920 -0.533899
C2    C     C_R   0.654609 0.435424 0.435727 0.756557
O6    O     O_R   0.491450 0.461490 0.539080 -0.540247
O7    O     O_3   0.661790 0.529840 0.502950 -0.382219
V1    V     V_3+5 0.935470 0.494460 0.499450 1.450168
O8    O     O_R   0.327090 0.544150 0.461780 -0.539526
C3    C     C_R   0.158871 0.554595 0.448467 0.752449
O9    O     O_R   0.324210 0.552420 0.547750 -0.548359
C4    C     C_R   0.154636 0.566361 0.562896 0.673347
V2    V     V_3+5 0.435840 0.505540 0.500550 1.430165
O10   O     O_3   0.159650 0.470160 0.497050 -0.350162
C5    C     C_R   0.983597 0.636405 0.610687 0.071789
C6    C     C_R   0.985360 0.670962 0.648338 -0.193209
H1    H     H_    0.862267 0.694205 0.655610 0.136807
C7    C     C_R   0.143605 0.677427 0.676237 -0.016198
C8    C     C_R   0.307707 0.647931 0.665793 0.089692
C9    C     C_R   0.305178 0.612882 0.628452 -0.212563
H2    H     H_    0.428698 0.589755 0.621317 0.119732
C10   C     C_R   0.145555 0.605920 0.600829 -0.083235
N1    N     N_R   0.285192 0.740761 0.732061 -0.283719
N2    N     N_R   0.269063 0.774685 0.766634 -0.286153
C11   C     C_R   0.094996 0.784901 0.786039 0.521206
N3    N     N_R   0.937588 0.759709 0.769120 -0.291217
N4    N     N_R   0.954049 0.725707 0.734576 -0.304036
C12   C     C_R   0.128551 0.715166 0.715402 0.512533
C13   C     C_R   0.896641 0.835944 0.843499 -0.128692
H3    H     H_    0.765646 0.818428 0.830121 0.137026
C14   C     C_R   0.881995 0.871995 0.879732 -0.155979
H4    H     H_    0.740305 0.881190 0.893227 0.117761
C15   C     C_R   0.048306 0.895807 0.898206 -0.048173
C16   C     C_R   0.229243 0.882543 0.879446 -0.153544
H5    H     H_    0.360783 0.900001 0.892585 0.120267
C17   C     C_R   0.243741 0.846726 0.843281 -0.133737
H6    H     H_    0.385775 0.837745 0.829889 0.132517
C18   C     C_R   0.077864 0.822905 0.824722 0.019281
C19   C     C_R   0.148283 0.658663 0.284249 0.583753
N5    N     N_R   0.127698 0.677919 0.326667 -0.562610
C20   C     C_R   0.099312 0.725537 0.340024 0.569568
C21   C     C_R   0.091122 0.755781 0.310317 -0.028820
C22   C     C_R   0.111035 0.736464 0.266650 -0.015246
C23   C     C_R   0.139710 0.687503 0.253391 -0.034911
C24   C     C_R   0.063756 0.804753 0.323183 -0.137864
C25   C     C_R   0.056129 0.834067 0.293147 -0.133080
C26   C     C_R   0.074617 0.815143 0.249439 -0.037451
C27   C     C_R   0.101930 0.766164 0.236171 -0.016539
C28   C     C_R   0.119832 0.746808 0.192494 -0.029647
C29   C     C_R   0.148167 0.697849 0.179640 -0.137421
C30   C     C_R   0.158445 0.668599 0.209699 -0.134975
C31   C     C_R   0.066486 0.844028 0.218616 0.591944
N6    N     N_R   0.081338 0.824703 0.176006 -0.551786
C32   C     C_R   0.107518 0.776904 0.162710 0.573873
O11   O     O_2   0.175665 0.611722 0.271907 -0.506310
O12   O     O_2   0.080115 0.743639 0.381914 -0.520663
H7    H     H_    0.048293 0.820633 0.356527 0.173356
H8    H     H_    0.034942 0.871605 0.304320 0.176505
O13   O     O_2   0.045560 0.891150 0.231267 -0.505180
O14   O     O_2   0.119083 0.758331 0.120775 -0.522697
H9    H     H_    0.162602 0.681929 0.146284 0.173269
H10   H     H_    0.180521 0.631090 0.198547 0.175548
C33   C     C_R   0.218722 0.857936 0.116220 -0.057533
H11   H     H_    0.348814 0.837517 0.117202 0.146457
C34   C     C_R   0.204604 0.887404 0.086345 -0.198303
H12   H     H_    0.324012 0.888440 0.064512 0.168674
C35   C     C_R   0.039036 0.915091 0.084463 -0.122318
C36   C     C_R   0.886645 0.912561 0.113826 0.222550
C37   C     C_R   0.901112 0.882339 0.143162 -0.107047
H13   H     H_    0.783289 0.880541 0.165227 0.163528
C38   C     C_R   0.066848 0.854969 0.144847 0.311762
C39   C     C_R   0.965976 0.635135 0.377135 -0.085116
H14   H     H_    0.827862 0.648488 0.369145 0.113618
C40   C     C_R   0.973281 0.605051 0.406639 -0.195604
H15   H     H_    0.839531 0.595910 0.420939 0.130373
C41   C     C_R   0.151110 0.587097 0.417531 -0.054310
C42   C     C_R   0.321292 0.600208 0.398191 -0.172496
H16   H     H_    0.460629 0.587101 0.405710 0.131702
C43   C     C_R   0.313402 0.629978 0.368434 -0.084034
H17   H     H_    0.445632 0.639367 0.353702 0.116352
C44   C     C_R   0.135785 0.647602 0.357662 0.384870
C45   C     C_R   0.432634 0.209259 0.824748 0.579490
N7    N     N_R   0.576586 0.176803 0.825664 -0.554436
C46   C     C_R   0.728154 0.173017 0.797242 0.582574
C47   C     C_R   0.739885 0.202585 0.767017 -0.027094
C48   C     C_R   0.591630 0.235368 0.765414 -0.021022
C49   C     C_R   0.435983 0.238629 0.794304 -0.029213
C50   C     C_R   0.895466 0.199887 0.738199 -0.143587
C51   C     C_R   0.902741 0.229061 0.708046 -0.144737
C52   C     C_R   0.754662 0.261696 0.705946 -0.030275
C53   C     C_R   0.599019 0.264959 0.734837 -0.020919
C54   C     C_R   0.450754 0.297739 0.733231 -0.025633
C55   C     C_R   0.295188 0.300442 0.762053 -0.145995
C56   C     C_R   0.287916 0.271268 0.792207 -0.146060
C57   C     C_R   0.757981 0.291052 0.675492 0.580703
N8    N     N_R   0.613994 0.323497 0.674564 -0.554253
C58   C     C_R   0.462448 0.327293 0.702992 0.578993
O15   O     O_2   0.287487 0.213647 0.853534 -0.526867
O16   O     O_2   0.866037 0.140261 0.797674 -0.529559
H18   H     H_    0.012401 0.175265 0.738859 0.169996
H19   H     H_    0.025095 0.225992 0.686454 0.171438
O17   O     O_2   0.903124 0.286660 0.646705 -0.526032
O18   O     O_2   0.324540 0.360040 0.702547 -0.532483
H20   H     H_    0.178251 0.325064 0.761392 0.168749
H21   H     H_    0.165563 0.274337 0.813799 0.170809
C59   C     C_R   0.466142 0.356957 0.616371 -0.085632
H22   H     H_    0.337459 0.335691 0.617966 0.159816
C60   C     C_R   0.474229 0.387058 0.586872 -0.208425
H23   H     H_    0.350841 0.388586 0.566506 0.137662
C61   C     C_R   0.641308 0.414145 0.583165 -0.053478
C62   C     C_R   0.798877 0.410971 0.610028 -0.207297
H24   H     H_    0.928961 0.431701 0.608207 0.132382
C63   C     C_R   0.788848 0.381809 0.640225 -0.089591
H25   H     H_    0.910619 0.380839 0.661147 0.162034
C64   C     C_R   0.622966 0.354177 0.643584 0.354980
C65   C     C_R   0.401577 0.118456 0.859937 -0.085657
H26   H     H_    0.279782 0.119488 0.839035 0.163387
C66   C     C_R   0.391543 0.089209 0.890066 -0.203549
H27   H     H_    0.261415 0.068488 0.891862 0.133898
C67   C     C_R   0.549171 0.085937 0.916887 -0.052953
C68   C     C_R   0.716264 0.113038 0.913227 -0.207989
H28   H     H_    0.839674 0.111451 0.933573 0.135656
C69   C     C_R   0.724354 0.143224 0.883800 -0.085085
H29   H     H_    0.853072 0.164487 0.882236 0.159083
C70   C     C_R   0.567517 0.146081 0.856610 0.354372
C71   C     C_R   0.479714 0.392556 0.369062 0.255235
C72   C     C_R   0.471863 0.355707 0.333449 -0.141544
H30   H     H_    0.346072 0.352819 0.313087 0.174244
C73   C     C_R   0.624207 0.323499 0.323452 -0.037868
C74   C     C_R   0.787108 0.329077 0.350087 -0.110944
H31   H     H_    0.907810 0.305058 0.343317 0.152829
C75   C     C_R   0.795590 0.365439 0.386159 -0.158884
H32   H     H_    0.922402 0.368110 0.406201 0.159656
C76   C     C_R   0.642182 0.397539 0.396609 -0.113057
N9    N     N_R   0.767463 0.257381 0.271344 -0.268280
N10   N     N_R   0.755461 0.223078 0.236872 -0.274955
C77   C     C_R   0.587293 0.214444 0.214752 0.519989
N11   N     N_R   0.431777 0.241690 0.228718 -0.272036
N12   N     N_R   0.443925 0.276039 0.263072 -0.273974
C78   C     C_R   0.611900 0.284729 0.285196 0.539382
C79   C     C_R   0.394798 0.164161 0.155841 -0.117165
H33   H     H_    0.263900 0.182275 0.168183 0.139706
C80   C     C_R   0.382049 0.128311 0.119469 -0.149397
H34   H     H_    0.241942 0.119935 0.104885 0.118640
C81   C     C_R   0.547991 0.103752 0.102161 -0.051017
C82   C     C_R   0.726751 0.115933 0.122395 -0.126702
H35   H     H_    0.857765 0.097756 0.110198 0.126143
C83   C     C_R   0.739292 0.151572 0.158844 -0.122642
H36   H     H_    0.879471 0.159853 0.173414 0.136240
C84   C     C_R   0.573623 0.176266 0.176078 0.018062
O19   O     O_R   0.699050 0.038480 0.960880 -0.542047
O20   O     O_R   0.366680 0.052470 0.047720 -0.541221
O21   O     O_R   0.193410 0.961530 0.039110 -0.530475
C85   C     C_R   0.535825 0.065358 0.063633 0.737493
O22   O     O_R   0.369510 0.044100 0.961740 -0.544442
O23   O     O_R   0.196260 0.953110 0.952520 -0.543507
C86   C     C_R   0.538895 0.054172 0.948227 0.691987
O24   O     O_R   0.696210 0.046900 0.047470 -0.533409
O25   O     O_3   0.528780 0.970170 0.997070 -0.358463
V3    V     V_3+5 0.255080 0.005530 0.000540 1.438369
O26   O     O_R   0.866350 0.947520 0.952280 -0.544481
C87   C     C_R   0.035559 0.934503 0.936472 0.678567
O27   O     O_R   0.863520 0.955880 0.038260 -0.514748
C88   C     C_R   0.031219 0.946522 0.052500 0.765239
V4    V     V_3+5 0.754720 0.994440 0.999470 1.462649
O28   O     O_3   0.030880 0.029830 0.002930 -0.374810
C89   C     C_3   0.809157 0.635132 0.581775 -0.361421
C90   C     C_3   0.861318 0.652648 0.540748 -0.277730
C91   C     C_3   0.682396 0.655665 0.513683 -0.736147
H37   H     H_    0.611885 0.620477 0.504628 0.236372
H38   H     H_    0.577054 0.681029 0.531493 0.226385
H39   H     H_    0.725163 0.668089 0.484202 0.218023
H40   H     H_    0.928699 0.688385 0.549006 0.200842
H41   H     H_    0.967018 0.628638 0.521542 0.179256
H42   H     H_    0.743121 0.599346 0.574816 0.194083
H43   H     H_    0.693160 0.658326 0.598294 0.167967
Br1   Br    Br    0.660874 0.951706 0.118217 -0.543562
C92   C     C_3   0.485784 0.651242 0.693719 -0.361194
C93   C     C_3   0.445058 0.632613 0.734673 -0.299298
C94   C     C_3   0.622504 0.638211 0.763373 -0.695246
H44   H     H_    0.748029 0.619377 0.746322 0.224677
H45   H     H_    0.659677 0.676240 0.773696 0.262405
H46   H     H_    0.591213 0.623075 0.792064 0.214205
H47   H     H_    0.322849 0.651837 0.752640 0.207120
H48   H     H_    0.404861 0.594526 0.726365 0.194951
H49   H     H_    0.605102 0.629866 0.676466 0.165076
H50   H     H_    0.542616 0.687966 0.700678 0.219220
Br2   Br    Br    0.266603 0.435934 0.375713 -0.541995

loop_
_geom_bond_atom_site_label_1
_geom_bond_atom_site_label_2
_ccdc_geom_bond_type
C47   C48   A    
C53   C54   A    
C89   C90   S    
C89   H43   S    
O2    C1    A    
C55   C56   A    
C81   C82   A    
C39   C44   A    
C1    O6    A    
C71   C72   A    
C65   C66   A    
O25   V3    S    
C93   H48   S    
C68   H28   S    
C90   H41   S    
C22   C23   A    
C13   C18   A    
C91   H38   S    
N2    C11   A    
O27   C88   A    
C39   C40   A    
C40   C41   A    
C9    C10   A    
N3    N4    A    
C82   C83   A    
C6    H1    S    
C92   H50   S    
C71   C76   A    
O5    C3    A    
C17   H6    S    
C30   H10   S    
C5    C89   S    
C36   Br1   S    
C68   C69   A    
C90   C91   S    
O21   C88   A    
O4    V1    S    
C79   H33   S    
C57   N8    A    
C77   C84   S    
C33   C38   A    
C59   H22   S    
C6    C7    A    
C28   C32   A    
C19   N5    A    
O24   V4    S    
C4    C10   S    
C26   C27   A    
C35   C88   S    
C50   H18   S    
C92   H49   S    
C20   O12   S    
C80   C81   A    
C93   C94   S    
C65   H26   S    
O8    V2    S    
C8    C92   S    
O26   C87   A    
C59   C60   A    
C74   H31   S    
C63   C64   A    
C3    C41   S    
C21   C22   A    
C19   C23   A    
C13   C14   A    
C36   C37   A    
O1    V2    S    
O7    V1    S    
O20   C85   A    
C21   C24   A    
O23   C87   A    
C1    C61   S    
O22   C86   A    
C26   C31   A    
O1    C2    A    
C8    C9    A    
O19   V4    S    
C35   C36   A    
C89   H42   S    
C61   C62   A    
C43   C44   A    
C66   C67   A    
C52   C57   A    
C25   H8    S    
C94   H45   S    
C90   H40   S    
C9    H2    S    
O21   V3    S    
N11   N12   A    
C58   O18   S    
C91   H39   S    
N9    C78   A    
C39   H14   S    
C28   C29   A    
C45   O15   S    
C85   O24   A    
C45   N7    A    
V4    O28   S    
C42   C43   A    
C48   C53   A    
C41   C42   A    
C7    C12   S    
C33   C34   A    
N1    N2    A    
N7    C46   A    
C43   H17   S    
C34   H12   S    
C34   C35   A    
C15   C16   A    
C65   C70   A    
O19   C86   A    
O26   V4    S    
C20   C21   A    
N4    C12   A    
C55   H20   S    
C24   C25   A    
C11   C18   S    
C67   C86   S    
C7    C8    A    
N6    C32   A    
C5    C6    A    
C83   C84   A    
C27   C28   A    
C40   H15   S    
C81   C85   S    
O3    C4    A    
C91   H37   S    
O25   V4    S    
C73   C78   S    
V3    O28   S    
C74   C75   A    
C79   C84   A    
C56   H21   S    
C33   H11   S    
O6    V2    S    
O9    V2    S    
C94   H44   S    
C69   H29   S    
C32   O14   S    
N7    C70   S    
N5    C20   A    
C73   C74   A    
O2    V1    S    
C80   H34   S    
C51   C52   A    
C29   C30   A    
C77   N11   A    
N8    C64   S    
O4    C2    A    
C62   H24   S    
N1    C12   A    
C79   C80   A    
C31   N6    A    
C16   H5    S    
C46   C47   A    
C59   C64   A    
O20   V3    S    
C13   H3    S    
N5    C44   S    
C51   H19   S    
C29   H9    S    
O5    V1    S    
C75   C76   A    
C93   H47   S    
C60   H23   S    
C75   H32   S    
C31   O13   S    
N9    N10   A    
C15   C87   S    
C83   H36   S    
C54   C58   A    
C49   C56   A    
C16   C17   A    
C5    C10   A    
C72   H30   S    
C19   O11   S    
C2    C76   S    
O3    V1    S    
V1    O10   S    
N12   C78   A    
C17   C18   A    
C50   C51   A    
C22   C27   A    
C25   C26   A    
V2    O10   S    
C23   C30   A    
C52   C53   A    
C14   C15   A    
C14   H4    S    
C71   Br2   S    
C82   H35   S    
O7    V2    S    
C54   C55   A    
C60   C61   A    
C57   O17   S    
N10   C77   A    
O23   V3    S    
C24   H7    S    
C42   H16   S    
N6    C38   S    
C37   H13   S    
C48   C49   A    
O27   V4    S    
N8    C58   A    
C45   C49   A    
C47   C50   A    
C37   C38   A    
C11   N3    A    
C69   C70   A    
C66   H27   S    
C72   C73   A    
C67   C68   A    
O9    C4    A    
C46   O16   S    
O22   V3    S    
C94   H46   S    
C92   C93   S    
C63   H25   S    
O8    C3    A    
C62   C63   A    
