data_mof_unit_51087.cif
_audit_creation_date              2012-12-11T15:52:32-0500
_audit_creation_method            fapswitch 2.2
_symmetry_space_group_name_H-M    P1
_symmetry_Int_Tables_number       1
_space_group_crystal_system       triclinic
_cell_length_a                    6.929263
_cell_length_b                    14.554578
_cell_length_c                    16.03714
_cell_angle_alpha                 90.250685
_cell_angle_beta                  90.321834
_cell_angle_gamma                 90.080765
_cell_volume                      1617.34298351

loop_
_atom_site_label
_atom_site_type_symbol
_atom_type_description
_atom_site_fract_x
_atom_site_fract_y
_atom_site_fract_z
_atom_type_partial_charge
O1    O     O_R   0.494400 0.415640 0.412830 -0.538566
O2    O     O_R   0.823920 0.405510 0.586560 -0.542719
O3    O     O_R   0.994250 0.584360 0.587170 -0.539998
C1    C     C_R   0.655060 0.383203 0.615395 0.686821
O4    O     O_R   0.824110 0.404610 0.413450 -0.543133
O5    O     O_R   0.994440 0.583460 0.412820 -0.535138
C2    C     C_R   0.654779 0.382328 0.384242 0.690049
O6    O     O_R   0.494210 0.416540 0.587180 -0.539908
O7    O     O_3   0.660810 0.558680 0.500000 -0.372721
V1    V     V_3+5 0.935650 0.489110 0.500000 1.386058
O8    O     O_R   0.324150 0.594490 0.413440 -0.544936
C3    C     C_R   0.154199 0.614893 0.382875 0.697069
O9    O     O_R   0.323970 0.595390 0.586550 -0.543551
C4    C     C_R   0.156389 0.618801 0.614796 0.659776
V2    V     V_3+5 0.435660 0.510890 0.500000 1.380839
O10   O     O_3   0.160630 0.441320 0.500000 -0.367100
C5    C     C_3   0.020042 0.651984 0.756756 -0.376583
H1    H     H_    0.874835 0.633129 0.732062 0.158878
H2    H     H_    0.084997 0.588279 0.782738 0.125039
C6    C     C_3   0.994897 0.723824 0.827751 -0.338054
H3    H     H_    0.033924 0.692285 0.888627 0.127606
H4    H     H_    0.840715 0.744679 0.831439 0.151445
H5    H     H_    0.913331 0.768961 0.631042 0.140015
H6    H     H_    0.908752 0.880933 0.733805 0.132925
C7    C     C_3   0.061137 0.781270 0.655233 -0.316702
C8    C     C_3   0.355601 0.710842 0.724184 0.058887
C9    C     C_3   0.150452 0.689489 0.685310 0.111182
H7    H     H_    0.420674 0.644760 0.744890 0.111922
C10   C     C_3   0.122937 0.809041 0.811574 0.091476
C11   C     C_3   0.057215 0.852797 0.727698 -0.324802
C12   C     C_3   0.333665 0.773822 0.802055 -0.300753
H8    H     H_    0.376321 0.734845 0.858829 0.108884
H9    H     H_    0.434292 0.833421 0.798780 0.155576
H10   H     H_    0.142601 0.809248 0.601570 0.129989
H11   H     H_    0.154020 0.911330 0.712410 0.130275
C13   C     C_R   0.964939 0.753625 0.196207 -0.156384
H12   H     H_    0.836691 0.758833 0.157524 0.122743
C14   C     C_R   0.971639 0.687733 0.260079 0.162262
C15   C     C_R   0.139568 0.681110 0.311869 -0.061622
C16   C     C_R   0.296914 0.739254 0.294844 -0.203023
H13   H     H_    0.426663 0.736336 0.332639 0.131172
C17   C     C_R   0.288830 0.803077 0.229896 -0.155462
H14   H     H_    0.412710 0.846876 0.219281 0.127684
C18   C     C_R   0.121916 0.811696 0.180509 -0.086383
C19   C     C_R   0.812255 0.274159 0.716533 -0.161088
H15   H     H_    0.952993 0.292623 0.692806 0.116339
C20   C     C_R   0.801093 0.209475 0.780689 -0.155153
H16   H     H_    0.933853 0.180027 0.804337 0.118324
C21   C     C_R   0.621443 0.183189 0.813723 -0.045987
C22   C     C_R   0.453261 0.223319 0.780741 -0.161460
H17   H     H_    0.312522 0.204851 0.804463 0.116321
C23   C     C_R   0.464423 0.288000 0.716582 -0.156106
H18   H     H_    0.331661 0.317435 0.692925 0.118339
C24   C     C_R   0.644073 0.314291 0.683552 -0.046919
C25   C     C_R   0.812064 0.275080 0.281127 -0.158815
H19   H     H_    0.952879 0.294135 0.305209 0.116614
C26   C     C_R   0.801327 0.211156 0.215647 -0.151795
H20   H     H_    0.934280 0.182819 0.191516 0.118419
C27   C     C_R   0.621792 0.184122 0.181973 -0.047970
C28   C     C_R   0.453311 0.222944 0.215689 -0.156876
H21   H     H_    0.312499 0.203918 0.191586 0.116681
C29   C     C_R   0.464050 0.286861 0.281179 -0.151203
H22   H     H_    0.331106 0.315216 0.305305 0.118034
C30   C     C_R   0.643572 0.313782 0.314933 -0.048415
O11   O     O_R   0.771300 0.080930 0.910090 -0.540243
O12   O     O_R   0.441270 0.092800 0.083770 -0.542960
O13   O     O_R   0.271080 0.913920 0.084380 -0.539167
C31   C     C_R   0.610597 0.115305 0.112863 0.688072
O14   O     O_R   0.441580 0.091910 0.910670 -0.543607
O15   O     O_R   0.271390 0.913020 0.910040 -0.543095
C32   C     C_R   0.610449 0.114260 0.881867 0.684238
O16   O     O_R   0.770990 0.081830 0.084440 -0.539642
O17   O     O_3   0.604750 0.938760 0.997250 -0.369659
V3    V     V_3+5 0.329850 0.008280 0.997210 1.390157
O18   O     O_R   0.941680 0.901940 0.910610 -0.543968
C33   C     C_R   0.110581 0.878897 0.882274 0.659418
O19   O     O_R   0.941370 0.902830 0.083720 -0.543521
C34   C     C_R   0.110768 0.880673 0.112560 0.694721
V4    V     V_3+5 0.829860 0.986420 0.997150 1.389117
O20   O     O_3   0.104830 0.056030 0.997180 -0.367759
C35   C     C_3   0.799616 0.624682 0.268944 -0.755181
H23   H     H_    0.846928 0.551845 0.266725 0.199556
H24   H     H_    0.724010 0.639096 0.328346 0.221708
H25   H     H_    0.692659 0.634295 0.217864 0.189098
C36   C     C_3   0.502017 0.756302 0.664553 -0.819320
H26   H     H_    0.451877 0.824469 0.642821 0.211370
H27   H     H_    0.637854 0.767796 0.699688 0.196096
H28   H     H_    0.539749 0.713739 0.609923 0.236249

loop_
_geom_bond_atom_site_label_1
_geom_bond_atom_site_label_2
_ccdc_geom_bond_type
O12   C31   A    
C25   H19   S    
O11   V4    S    
O17   V3    S    
C1    O6    A    
C35   H23   S    
C20   C21   A    
C10   C33   S    
O19   C34   A    
C8    C9    S    
C10   C11   S    
C11   H11   S    
C13   H12   S    
O16   V4    S    
O5    C3    A    
C14   C15   A    
C26   C27   A    
V2    O10   S    
O12   V3    S    
C5    C6    S    
C28   C29   A    
O14   C32   A    
C29   C30   A    
O8    V2    S    
C12   H8    S    
O15   V3    S    
C22   C23   A    
C12   H9    S    
O1    V2    S    
C4    C9    S    
O7    V1    S    
C7    H10   S    
C19   C20   A    
C8    C12   S    
V3    O20   S    
O9    C4    A    
O13   C34   A    
C17   C18   A    
C35   H24   S    
C23   C24   A    
C22   H17   S    
C6    C10   S    
O19   V4    S    
C36   H27   S    
C5    C9    S    
C18   C34   S    
C15   C16   A    
O4    C2    A    
C36   H26   S    
C28   H21   S    
O2    C1    A    
O18   C33   A    
C29   H22   S    
C27   C31   S    
C20   H16   S    
C31   O16   A    
C25   C30   A    
C5    H1    S    
O17   V4    S    
O14   V3    S    
O13   V3    S    
O3    C4    A    
C16   H13   S    
C6    H4    S    
C19   C24   A    
O6    V2    S    
C25   C26   A    
C14   C35   S    
O15   C33   A    
C13   C18   A    
C17   H14   S    
O2    V1    S    
C35   H25   S    
C23   H18   S    
C36   H28   S    
C7    C11   S    
C1    C24   S    
O1    C2    A    
C16   C17   A    
O5    V1    S    
O8    C3    A    
C7    C9    S    
C8    H7    S    
C3    C15   S    
O9    V2    S    
O7    V2    S    
O4    V1    S    
C10   C12   S    
O3    V1    S    
O11   C32   A    
C26   H20   S    
C8    C36   S    
C13   C14   A    
C5    H2    S    
H5    C7    S    
H6    C11   S    
C2    C30   S    
V4    O20   S    
C19   H15   S    
C27   C28   A    
C6    H3    S    
C21   C22   A    
C21   C32   S    
V1    O10   S    
O18   V4    S    
