data_mof_unit_53066.cif
_audit_creation_date              2012-12-11T16:31:25-0500
_audit_creation_method            fapswitch 2.2
_symmetry_space_group_name_H-M    P1
_symmetry_Int_Tables_number       1
_space_group_crystal_system       triclinic
_cell_length_a                    6.943223
_cell_length_b                    18.293634
_cell_length_c                    20.167488
_cell_angle_alpha                 68.35614
_cell_angle_beta                  90.606519
_cell_angle_gamma                 90.758916
_cell_volume                      2380.74797799

loop_
_atom_site_label
_atom_site_type_symbol
_atom_type_description
_atom_site_fract_x
_atom_site_fract_y
_atom_site_fract_z
_atom_type_partial_charge
O1    O     O_R   0.488990 0.443920 0.942160 -0.540311
O2    O     O_R   0.823840 0.406530 0.087600 -0.538338
O3    O     O_R   0.999650 0.556080 0.057840 -0.540387
C1    C     C_R   0.655107 0.383541 0.115087 0.694191
O4    O     O_R   0.818390 0.434590 0.944530 -0.536505
O5    O     O_R   0.994160 0.584350 0.913750 -0.535930
C2    C     C_R   0.648792 0.420471 0.924061 0.723660
O6    O     O_R   0.494480 0.415650 0.086250 -0.536263
O7    O     O_3   0.662600 0.549100 0.990070 -0.367254
V1    V     V_3+5 0.935320 0.490890 0.001840 1.419536
O8    O     O_R   0.324240 0.593470 0.912400 -0.538575
C3    C     C_R   0.155285 0.616484 0.884928 0.693959
O9    O     O_R   0.329690 0.565410 0.055470 -0.536173
C4    C     C_R   0.162037 0.579548 0.075950 0.723279
V2    V     V_3+5 0.435990 0.509110 0.998160 1.419092
O10   O     O_3   0.158840 0.450900 0.009930 -0.367207
C5    C     C_3   0.981579 0.675865 0.264447 -0.328367
C6    C     C_3   0.335929 0.705496 0.246863 -0.329136
C7    C     C_3   0.327035 0.753336 0.296571 -0.329815
H1    H     H_    0.996951 0.683782 0.370355 0.136778
H2    H     H_    0.010381 0.613057 0.297065 0.133608
H3    H     H_    0.453439 0.729520 0.207384 0.135224
H4    H     H_    0.371931 0.643283 0.279081 0.137787
H5    H     H_    0.358695 0.713891 0.352462 0.136040
H6    H     H_    0.440370 0.800097 0.280756 0.135371
C8    C     C_1   0.110968 0.874579 0.378464 -0.194807
C9    C     C_3   0.141013 0.708975 0.207434 0.293012
C10   C     C_3   0.972603 0.723781 0.314088 -0.327227
C11   C     C_3   0.125864 0.790871 0.292440 0.292484
C12   C     C_3   0.087330 0.844519 0.213624 -0.328046
C13   C     C_3   0.096041 0.796632 0.163942 -0.328404
C14   C     C_1   0.117463 0.836797 0.339973 -0.103062
C15   C     C_1   0.149301 0.663053 0.159897 -0.102901
C16   C     C_1   0.155531 0.625284 0.121393 -0.194873
H7    H     H_    0.955958 0.801246 0.135411 0.135182
H8    H     H_    0.208702 0.822411 0.122784 0.136983
H9    H     H_    0.943160 0.871988 0.208686 0.137236
H10   H     H_    0.839302 0.678084 0.237851 0.136390
H11   H     H_    0.826128 0.748880 0.311028 0.137019
H12   H     H_    0.195950 0.893070 0.196160 0.133503
H13   H     H_    0.432513 0.547070 0.693410 0.106986
C17   C     C_R   0.989912 0.764799 0.875507 -0.131311
C18   C     C_R   0.907431 0.834909 0.872691 -0.124715
C19   C     C_R   0.894310 0.898159 0.808182 -0.127192
C20   C     C_R   0.963787 0.891816 0.745996 -0.141364
C21   C     C_R   0.046512 0.821073 0.746924 0.068529
C22   C     C_R   0.059663 0.756144 0.813099 0.070003
C23   C     C_R   0.119349 0.814961 0.683688 -0.186797
C24   C     C_R   0.204910 0.743748 0.686719 0.070005
C25   C     C_R   0.217970 0.678804 0.752886 0.068591
C26   C     C_R   0.145275 0.684937 0.816133 -0.186834
C27   C     C_R   0.274653 0.735095 0.624309 -0.131302
C28   C     C_R   0.356883 0.664947 0.627107 -0.124771
C29   C     C_R   0.369772 0.601660 0.691600 -0.127203
C30   C     C_R   0.300421 0.608021 0.753793 -0.141302
H14   H     H_    0.999816 0.717966 0.927290 0.103956
H15   H     H_    0.854719 0.840354 0.920976 0.107419
H16   H     H_    0.831299 0.952710 0.806354 0.107042
H17   H     H_    0.953033 0.943279 0.697519 0.111401
H18   H     H_    0.264893 0.781956 0.572537 0.103793
H19   H     H_    0.409552 0.659497 0.578818 0.107302
H20   H     H_    0.311007 0.556532 0.802256 0.111093
H21   H     H_    0.949552 0.453404 0.306205 0.106748
C31   C     C_R   0.480522 0.235089 0.124718 -0.131584
C32   C     C_R   0.394126 0.164818 0.127614 -0.124666
C33   C     C_R   0.381960 0.101462 0.192095 -0.127302
C34   C     C_R   0.456252 0.107872 0.254171 -0.141181
C35   C     C_R   0.542991 0.178793 0.253173 0.068641
C36   C     C_R   0.555260 0.243805 0.187023 0.069886
C37   C     C_R   0.620614 0.185004 0.316308 -0.186965
C38   C     C_R   0.710299 0.256352 0.313189 0.069884
C39   C     C_R   0.722558 0.321365 0.247035 0.068618
C40   C     C_R   0.644929 0.315152 0.183909 -0.186816
C41   C     C_R   0.785050 0.265074 0.375488 -0.131700
C42   C     C_R   0.871433 0.335355 0.372582 -0.124674
C43   C     C_R   0.883561 0.398713 0.308098 -0.127100
C44   C     C_R   0.809288 0.392290 0.246024 -0.141049
H22   H     H_    0.489435 0.282002 0.072950 0.103951
H23   H     H_    0.337632 0.159328 0.079409 0.107515
H24   H     H_    0.315941 0.046778 0.193982 0.106778
H25   H     H_    0.446072 0.056306 0.302607 0.110961
H26   H     H_    0.776157 0.218159 0.427255 0.104301
H27   H     H_    0.927956 0.340850 0.420781 0.107459
H28   H     H_    0.819489 0.443843 0.197573 0.111012
O11   O     O_R   0.770890 0.084490 0.414040 -0.536206
O12   O     O_R   0.445980 0.065450 0.555510 -0.536313
O13   O     O_R   0.270670 0.915620 0.586180 -0.535870
C45   C     C_R   0.615383 0.079622 0.576114 0.724401
O14   O     O_R   0.441480 0.093500 0.412450 -0.538382
O15   O     O_R   0.266140 0.943870 0.442100 -0.540465
C46   C     C_R   0.610322 0.116601 0.385123 0.693764
O16   O     O_R   0.775410 0.056240 0.558120 -0.540918
O17   O     O_3   0.602660 0.950990 0.510100 -0.367335
V3    V     V_3+5 0.329740 0.009100 0.498130 1.419666
O18   O     O_R   0.936120 0.934420 0.444240 -0.536928
C47   C     C_R   0.103980 0.920331 0.423887 0.722528
O19   O     O_R   0.940610 0.906370 0.587310 -0.538501
C48   C     C_R   0.109488 0.883433 0.614902 0.694099
V4    V     V_3+5 0.829110 0.990690 0.501470 1.419283
O20   O     O_3   0.106080 0.049010 0.489880 -0.367065
C49   C     C_3   0.830320 0.248714 0.706587 -0.331354
C50   C     C_3   0.476554 0.274459 0.683440 -0.326141
C51   C     C_3   0.477652 0.322434 0.733136 -0.329970
H29   H     H_    0.867428 0.359285 0.724572 0.137860
H30   H     H_    0.865764 0.288459 0.651211 0.136235
H31   H     H_    0.331222 0.247765 0.684127 0.136591
H32   H     H_    0.504785 0.314747 0.627598 0.136767
H33   H     H_    0.506486 0.385572 0.700986 0.133963
H34   H     H_    0.332887 0.318570 0.757469 0.136751
C52   C     C_1   0.638714 0.374809 0.878619 -0.194819
C53   C     C_3   0.630874 0.209040 0.707602 0.292863
C54   C     C_3   0.831392 0.296683 0.756282 -0.327864
C55   C     C_3   0.632717 0.291050 0.792593 0.293446
C56   C     C_3   0.587853 0.202931 0.835463 -0.328974
C57   C     C_3   0.586863 0.154954 0.785760 -0.327889
C58   C     C_1   0.634474 0.337018 0.840110 -0.103021
C59   C     C_1   0.629131 0.163069 0.660084 -0.103135
C60   C     C_1   0.625034 0.125276 0.621573 -0.193998
H35   H     H_    0.696032 0.107594 0.804995 0.133690
H36   H     H_    0.443738 0.125914 0.788405 0.137656
H37   H     H_    0.697472 0.178424 0.878391 0.137191
H38   H     H_    0.944239 0.203181 0.724288 0.135234
H39   H     H_    0.945943 0.274009 0.797609 0.135229
H40   H     H_    0.445191 0.196779 0.861737 0.135128

loop_
_geom_bond_atom_site_label_1
_geom_bond_atom_site_label_2
_ccdc_geom_bond_type
C30   H20   S    
C8    C14   T    
O17   V3    S    
C32   H23   S    
O18   C47   A    
C1    O6    A    
O19   C48   A    
O11   C46   A    
C20   C21   A    
C9    C15   S    
C49   C54   S    
C39   C44   A    
C10   C11   S    
C51   C55   S    
C11   C14   S    
O5    C3    A    
C12   C13   S    
O12   C45   A    
H21   C43   S    
V2    O10   S    
O13   V3    S    
C6    C7    S    
O14   V3    S    
C27   H18   S    
C17   H14   S    
C21   C22   A    
C56   H37   S    
C28   H19   S    
C37   C46   S    
C19   H16   S    
C35   C36   A    
C36   C40   A    
C37   C38   A    
O1    V2    S    
O14   C46   A    
O12   V3    S    
O7    V1    S    
O17   V4    S    
C5    H10   S    
O13   C48   A    
C56   H40   S    
C33   C34   A    
C6    H3    S    
O9    C4    A    
C49   H30   S    
C50   C53   S    
O8    V2    S    
C41   H26   S    
C54   C55   S    
O19   V4    S    
O15   V3    S    
C8    C47   S    
C21   C23   A    
C41   C42   A    
C9    C13   S    
C34   C35   A    
C5    C9    S    
C45   O16   A    
C43   C44   A    
C54   H39   S    
O4    C2    A    
C22   C26   A    
H1    C10   S    
C10   H11   S    
C28   C29   A    
C5    H2    S    
C6    H4    S    
C12   H9    S    
O2    C1    A    
C42   C43   A    
O5    V1    S    
C11   C12   S    
O11   V4    S    
V4    O20   S    
V3    O20   S    
C24   C27   A    
C25   C26   A    
C12   H12   S    
C50   H32   S    
C31   C36   A    
O15   C47   A    
C1    C40   S    
C51   H33   S    
O3    C4    A    
C23   C24   A    
C34   H25   S    
O6    V2    S    
C57   H35   S    
O9    V2    S    
C18   C19   A    
C13   H7    S    
C17   C18   A    
C45   C60   S    
O2    V1    S    
C52   C58   T    
C3    C26   S    
C33   H24   S    
C19   C20   A    
H29   C54   S    
C55   C56   S    
C29   C30   A    
C20   H17   S    
O1    C2    A    
C5    C10   S    
C31   H22   S    
C6    C9    S    
C49   H38   S    
C39   C40   A    
C4    C16   S    
C38   C41   A    
O8    C3    A    
C57   H36   S    
C56   C57   S    
C49   C53   S    
C23   C48   S    
C25   C30   A    
C44   H28   S    
C2    C52   S    
C51   H34   S    
C53   C59   S    
C31   C32   A    
C55   C58   S    
C7    H5    S    
O7    V2    S    
C38   C39   A    
O3    V1    S    
V1    O10   S    
C59   C60   T    
C42   H27   S    
C15   C16   T    
C50   H31   S    
O18   V4    S    
C17   C22   A    
C32   C33   A    
C50   C51   S    
C7    H6    S    
H13   C29   S    
C18   H15   S    
O4    V1    S    
C35   C37   A    
C24   C25   A    
C13   H8    S    
C53   C57   S    
O16   V4    S    
C27   C28   A    
C7    C11   S    
