data_mof_unit_9465.cif
_audit_creation_date              2012-12-11T15:39:09-0500
_audit_creation_method            fapswitch 2.2
_symmetry_space_group_name_H-M    P1
_symmetry_Int_Tables_number       1
_space_group_crystal_system       triclinic
_cell_length_a                    17.297829
_cell_length_b                    24.290993
_cell_length_c                    14.964666
_cell_angle_alpha                 90.193863
_cell_angle_beta                  125.825051
_cell_angle_gamma                 89.822642
_cell_volume                      5098.22521777

loop_
_atom_site_label
_atom_site_type_symbol
_atom_type_description
_atom_site_fract_x
_atom_site_fract_y
_atom_site_fract_z
_atom_type_partial_charge
C1    C     C_R   0.352896 0.347717 0.907923 -0.147306
C2    C     C_R   0.688781 0.372934 0.094845 -0.136627
C3    C     C_R   0.854438 0.847303 0.908052 -0.146093
C4    C     C_R   0.190209 0.875175 0.093790 -0.132569
C5    C     C_R   0.385984 0.685272 0.001225 0.055250
C6    C     C_R   0.685757 0.644940 0.005967 0.065861
C7    C     C_R   0.889099 0.185799 0.001441 0.061408
C8    C     C_R   0.189035 0.139528 0.003966 0.064804
C9    C     C_R   0.568647 0.500044 0.367833 0.043615
C10   C     C_R   0.523429 0.499927 0.696629 0.043527
C11   C     C_R   0.950199 0.000135 0.275313 0.040892
C12   C     C_R   0.935819 0.999944 0.632908 0.048676
C13   C     C_R   0.173838 0.500848 0.724417 0.072577
C14   C     C_R   0.801700 0.500680 0.369666 0.083741
C15   C     C_R   0.673986 0.000719 0.725032 0.073197
C16   C     C_R   0.301852 0.000535 0.369683 0.082881
C17   C     C_R   0.019948 0.552036 0.628236 0.168096
C18   C     C_R   0.925475 0.551770 0.538579 0.165158
C19   C     C_R   0.519956 0.051673 0.629123 0.167047
C20   C     C_R   0.425572 0.051351 0.539161 0.165998
C21   C     C_R   0.070743 0.502474 0.669636 0.031609
C22   C     C_R   0.879894 0.502081 0.487243 0.029620
C23   C     C_R   0.570899 0.002166 0.670313 0.031809
C24   C     C_R   0.380224 0.001718 0.487305 0.030732
C25   C     C_R   0.017791 0.453347 0.638541 -0.196987
C26   C     C_R   0.922197 0.453091 0.546749 -0.201331
C27   C     C_R   0.518121 0.952943 0.638585 -0.198768
C28   C     C_R   0.422677 0.952651 0.546434 -0.203142
C29   C     C_3   0.936324 0.603432 0.492851 -0.532772
C30   C     C_3   0.039558 0.603656 0.590047 -0.520445
C31   C     C_3   0.436567 0.102995 0.493709 -0.536749
C32   C     C_3   0.539604 0.103383 0.591237 -0.519310
C33   C     C_R   0.307654 0.775850 0.907942 0.194704
C34   C     C_R   0.847514 0.691777 0.106142 0.191033
C35   C     C_R   0.808798 0.275612 0.909056 0.194102
C36   C     C_R   0.349322 0.188416 0.103736 0.189491
C37   C     C_R   0.752392 0.316355 0.910258 -0.274928
C38   C     C_R   0.400096 0.230613 0.097539 -0.235046
C39   C     C_R   0.254513 0.818940 0.909021 -0.274547
C40   C     C_R   0.901692 0.731330 0.099574 -0.242152
C41   C     C_R   0.760960 0.327280 0.007674 0.134950
C42   C     C_R   0.361534 0.257691 0.997926 0.115601
C43   C     C_R   0.264347 0.831927 0.006436 0.132947
C44   C     C_R   0.865563 0.757056 0.999188 0.117065
C45   C     C_R   0.445262 0.652190 0.092072 -0.122765
C46   C     C_R   0.594737 0.632427 0.912118 -0.128297
C47   C     C_R   0.947611 0.152690 0.091926 -0.140812
C48   C     C_R   0.098519 0.125651 0.910054 -0.127261
C49   C     C_R   0.838223 0.305873 0.107429 -0.169917
C50   C     C_R   0.288883 0.232509 0.899752 -0.171841
C51   C     C_R   0.340060 0.809326 0.106142 -0.166911
C52   C     C_R   0.792645 0.731791 0.901397 -0.172523
C53   C     C_R   0.389673 0.765156 0.105140 -0.208535
C54   C     C_R   0.742061 0.689333 0.905820 -0.202444
C55   C     C_R   0.892222 0.264520 0.106490 -0.208818
C56   C     C_R   0.241915 0.187657 0.903516 -0.201987
C57   C     C_R   0.365393 0.743786 0.004593 0.091581
C58   C     C_R   0.761036 0.674014 0.007503 0.072872
C59   C     C_R   0.868849 0.244069 0.005687 0.093062
C60   C     C_R   0.263581 0.169676 0.005126 0.067786
C61   C     C_R   0.588343 0.549843 0.610806 -0.169933
C62   C     C_R   0.605119 0.549867 0.531421 -0.171113
C63   C     C_R   0.895236 0.049921 0.466278 -0.174252
C64   C     C_R   0.896837 0.049965 0.374895 -0.169455
C65   C     C_R   0.601158 0.500011 0.481742 0.140523
C66   C     C_R   0.568778 0.499930 0.640386 0.149816
C67   C     C_R   0.907952 0.000156 0.336030 0.143767
C68   C     C_R   0.903780 0.000024 0.518283 0.142558
C69   C     C_R   0.605451 0.450108 0.531070 -0.167907
C70   C     C_R   0.588563 0.450050 0.610377 -0.169627
C71   C     C_R   0.896454 0.950312 0.373964 -0.167602
C72   C     C_R   0.894989 0.950223 0.465454 -0.172540
C73   C     C_R   0.550153 0.454163 0.303528 -0.121855
C74   C     C_R   0.498687 0.454124 0.729029 -0.130166
C75   C     C_R   0.980822 0.953966 0.248879 -0.126143
C76   C     C_R   0.951353 0.954223 0.696366 -0.140222
C77   C     C_R   0.232209 0.546340 0.754017 -0.145648
C78   C     C_R   0.752867 0.545879 0.305141 -0.161554
C79   C     C_R   0.732284 0.046279 0.754530 -0.146542
C80   C     C_R   0.252955 0.045806 0.305228 -0.161000
C81   C     C_R   0.550176 0.545888 0.303716 -0.123488
C82   C     C_R   0.499065 0.545798 0.729706 -0.129069
C83   C     C_R   0.980606 0.046198 0.248791 -0.126797
C84   C     C_R   0.951381 0.045679 0.696637 -0.139409
C85   C     C_R   0.230425 0.454339 0.749501 -0.123004
C86   C     C_R   0.755117 0.454694 0.305325 -0.133461
C87   C     C_R   0.730574 0.954267 0.749850 -0.123476
C88   C     C_R   0.255086 0.954623 0.305251 -0.135186
C89   C     C_R   0.353276 0.652688 0.909334 -0.148045
C90   C     C_R   0.688604 0.627034 0.095551 -0.138707
C91   C     C_R   0.854677 0.153036 0.909443 -0.147760
C92   C     C_R   0.189910 0.125079 0.094352 -0.136282
C93   C     C_R   0.443451 0.348026 0.091105 -0.120747
C94   C     C_R   0.595257 0.368452 0.911051 -0.127266
C95   C     C_R   0.946045 0.847386 0.090918 -0.137724
C96   C     C_R   0.098760 0.874777 0.909290 -0.128921
C97   C     C_R   0.383932 0.315597 0.998924 0.066442
C98   C     C_R   0.685535 0.356116 0.004459 0.061030
C99   C     C_R   0.887465 0.814841 0.999133 0.073213
C100  C     C_R   0.188941 0.861516 0.002902 0.059162
H1    H     H_    0.316296 0.333881 0.823681 0.086794
H2    H     H_    0.746741 0.369154 0.180905 0.093472
H3    H     H_    0.817434 0.833618 0.823656 0.085236
H4    H     H_    0.247956 0.870741 0.179753 0.093177
H5    H     H_    0.927158 0.597138 0.413496 0.209020
H6    H     H_    0.058069 0.638899 0.646862 0.192917
H7    H     H_    0.427881 0.096456 0.414686 0.209656
H8    H     H_    0.557700 0.138600 0.647976 0.192801
H9    H     H_    0.895123 0.638202 0.494285 0.189379
H10   H     H_    0.087750 0.597341 0.564477 0.200675
H11   H     H_    0.395010 0.137698 0.494675 0.190983
H12   H     H_    0.588063 0.097262 0.565989 0.200842
H13   H     H_    0.699405 0.337400 0.834465 0.111555
H14   H     H_    0.463076 0.246192 0.173170 0.118729
H15   H     H_    0.202679 0.840148 0.832979 0.114680
H16   H     H_    0.964820 0.746627 0.175422 0.119174
H17   H     H_    0.851525 0.316243 0.185546 0.111186
H18   H     H_    0.261618 0.250120 0.820174 0.111206
H19   H     H_    0.354831 0.820959 0.184435 0.111232
H20   H     H_    0.767739 0.748032 0.821540 0.110513
H21   H     H_    0.439192 0.744727 0.182741 0.118792
H22   H     H_    0.682477 0.672907 0.828352 0.117837
H23   H     H_    0.943659 0.244707 0.184174 0.118339
H24   H     H_    0.182092 0.171751 0.825736 0.121068
H25   H     H_    0.582641 0.589085 0.640783 0.103364
H26   H     H_    0.609545 0.589142 0.500992 0.104976
H27   H     H_    0.896286 0.089218 0.500979 0.105635
H28   H     H_    0.899111 0.089246 0.342827 0.107281
H29   H     H_    0.610236 0.410846 0.500443 0.105273
H30   H     H_    0.582991 0.410806 0.640026 0.102433
H31   H     H_    0.898299 0.911057 0.341069 0.110118
H32   H     H_    0.895879 0.910901 0.499567 0.107384
H33   H     H_    0.493256 0.665011 0.177025 0.083642
H34   H     H_    0.563600 0.646245 0.829617 0.085992
H35   H     H_    0.997137 0.165682 0.176524 0.085557
H36   H     H_    0.070989 0.130873 0.824787 0.093759
H37   H     H_    0.566975 0.411763 0.329710 0.082365
H38   H     H_    0.493952 0.412430 0.702190 0.083856
H39   H     H_    0.970818 0.911231 0.258910 0.093739
H40   H     H_    0.933367 0.912046 0.668680 0.084630
H41   H     H_    0.213937 0.588863 0.751919 0.109089
H42   H     H_    0.757570 0.587451 0.333644 0.102690
H43   H     H_    0.714115 0.088797 0.752875 0.108967
H44   H     H_    0.257940 0.087418 0.333689 0.104948
H45   H     H_    0.567070 0.588275 0.330255 0.082203
H46   H     H_    0.495092 0.587574 0.704119 0.083358
H47   H     H_    0.970223 0.088990 0.258635 0.092828
H48   H     H_    0.933326 0.087865 0.669330 0.085003
H49   H     H_    0.208946 0.411767 0.738662 0.094322
H50   H     H_    0.764661 0.412772 0.333962 0.080609
H51   H     H_    0.709283 0.911663 0.739210 0.093916
H52   H     H_    0.264635 0.912658 0.333686 0.083498
H53   H     H_    0.313418 0.665529 0.824548 0.128610
H54   H     H_    0.744925 0.629340 0.181767 0.146194
H55   H     H_    0.814775 0.165918 0.824635 0.126682
H56   H     H_    0.245896 0.128529 0.180495 0.146640
H57   H     H_    0.488924 0.335029 0.176110 0.083674
H58   H     H_    0.565829 0.354962 0.828581 0.085443
H59   H     H_    0.993244 0.834155 0.175598 0.084554
H60   H     H_    0.072202 0.869092 0.824257 0.094998
H61   H     H_    0.052206 0.414267 0.674417 0.127562
H62   H     H_    0.886892 0.413806 0.515466 0.123680
H63   H     H_    0.552624 0.913853 0.674213 0.127749
H64   H     H_    0.387629 0.913335 0.514718 0.125078
N1    N     N_R   0.394180 0.396910 0.943210 -0.039032
N2    N     N_R   0.605820 0.396910 0.056790 -0.040210
N3    N     N_R   0.894180 0.896910 0.943210 -0.038090
N4    N     N_R   0.105820 0.896910 0.056790 -0.040095
N5    N     N_R   0.450950 0.603070 0.056740 -0.038457
N6    N     N_R   0.549050 0.603070 0.943260 -0.037317
N7    N     N_R   0.950950 0.103070 0.056740 -0.037052
N8    N     N_R   0.049050 0.103070 0.943260 -0.039143
N9    N     N_R   0.525650 0.471570 0.206150 -0.038555
N10   N     N_R   0.474350 0.471570 0.793850 -0.038135
N11   N     N_R   0.025650 0.971570 0.206150 -0.039749
N12   N     N_R   0.974350 0.971570 0.793850 -0.037090
N13   N     N_R   0.319480 0.528420 0.793810 -0.042258
N14   N     N_R   0.680520 0.528420 0.206190 -0.038443
N15   N     N_R   0.819480 0.028420 0.793810 -0.040563
N16   N     N_R   0.180520 0.028420 0.206190 -0.039427
N17   N     N_R   0.525640 0.528390 0.206120 -0.038320
N18   N     N_R   0.474360 0.528390 0.793880 -0.037669
N19   N     N_R   0.025640 0.028390 0.206120 -0.039516
N20   N     N_R   0.974360 0.028390 0.793880 -0.036747
N21   N     N_R   0.319490 0.471590 0.793840 -0.042355
N22   N     N_R   0.680510 0.471590 0.206160 -0.037040
N23   N     N_R   0.819490 0.971590 0.793840 -0.040713
N24   N     N_R   0.180510 0.971590 0.206160 -0.038019
N25   N     N_R   0.394130 0.603080 0.943110 -0.041829
N26   N     N_R   0.605870 0.603080 0.056890 -0.044370
N27   N     N_R   0.894130 0.103080 0.943110 -0.040715
N28   N     N_R   0.105870 0.103080 0.056890 -0.044329
N29   N     N_R   0.450990 0.396900 0.056840 -0.040146
N30   N     N_R   0.549010 0.396900 0.943160 -0.038677
N31   N     N_R   0.950990 0.896900 0.056840 -0.038857
N32   N     N_R   0.049010 0.896900 0.943160 -0.040356
Ni1   Ni    Ni4+2 0.434860 0.434850 0.869700 0.212856
Ni2   Ni    Ni4+2 0.565140 0.434850 0.130300 0.206892
Ni3   Ni    Ni4+2 0.934860 0.934850 0.869700 0.210168
Ni4   Ni    Ni4+2 0.065140 0.934850 0.130300 0.209349
Ni5   Ni    Ni4+2 0.565130 0.565140 0.130240 0.205808
Ni6   Ni    Ni4+2 0.434870 0.565140 0.869760 0.213457
Ni7   Ni    Ni4+2 0.065130 0.065140 0.130240 0.207904
Ni8   Ni    Ni4+2 0.934870 0.065140 0.869760 0.211030
N33   N     N_2   0.299220 0.764080 0.809297 -0.127980
H65   H     H_    0.240072 0.780983 0.738814 0.163356
C101  C     C_3   0.385662 0.772700 0.816873 -0.946973
H66   H     H_    0.405548 0.816989 0.831574 0.259978
H67   H     H_    0.373843 0.759844 0.738459 0.245032
H68   H     H_    0.445323 0.747770 0.884619 0.262413
N34   N     N_2   0.877383 0.674444 0.212446 -0.125602
H69   H     H_    0.945362 0.658180 0.258433 0.170514
C102  C     C_3   0.865307 0.715790 0.273503 -0.993524
H70   H     H_    0.914311 0.751022 0.295646 0.254873
H71   H     H_    0.881644 0.697571 0.350573 0.256172
H72   H     H_    0.790504 0.730954 0.224115 0.265877
N35   N     N_2   0.800665 0.265097 0.810158 -0.127952
H73   H     H_    0.741453 0.282231 0.740072 0.161715
C103  C     C_3   0.887146 0.274324 0.818112 -0.945255
H74   H     H_    0.907408 0.318518 0.835023 0.260732
H75   H     H_    0.875168 0.262704 0.739063 0.244084
H76   H     H_    0.946586 0.248751 0.884511 0.262335
N36   N     N_2   0.381210 0.169453 0.209863 -0.125547
H77   H     H_    0.448123 0.151866 0.252375 0.170122
C104  C     C_3   0.373914 0.210162 0.275837 -0.990599
H78   H     H_    0.425997 0.243975 0.300961 0.254833
H79   H     H_    0.389417 0.190693 0.351402 0.256847
H80   H     H_    0.300628 0.227577 0.229083 0.266377

loop_
_geom_bond_atom_site_label_1
_geom_bond_atom_site_label_2
_ccdc_geom_bond_type
C13   C21   S    
C51   C53   A    
N20   Ni8   S    
C55   C59   A    
C94   N30   A    
C6    C58   S    
N36   H77   S    
N3    N31   A    
N5    N25   A    
N16   Ni7   S    
N10   N18   A    
N2    Ni2   S    
C82   N18   A    
N3    Ni3   S    
C3    N3    A    
C66   C70   A    
N33   H65   S    
N8    N28   A    
C12   C68   S    
C33   N33   S    
C33   C39   A    
C73   H37   S    
C30   H10   S    
C37   C41   A    
C34   C40   A    
N36   C104  S    
C56   H24   S    
C29   H9    S    
C35   C37   A    
N23   Ni3   S    
C74   N10   A    
C86   H50   S    
C54   C58   A    
C38   H14   S    
C44   C99   S    
C95   C99   A    
N30   Ni1   S    
C37   H13   S    
N24   Ni4   S    
N29   Ni2   S    
C2    H2    S    
C96   C100  A    
C65   C69   A    
C70   H30   S    
C104  H80   S    
N13   N21   A    
C12   C84   A    
C35   C59   A    
C63   H27   S    
C96   N32   A    
C41   C49   A    
N8    Ni8   S    
N16   N24   A    
C27   H63   S    
C48   N8    A    
C61   C66   A    
C79   H43   S    
C19   C20   A    
C25   H61   S    
C80   H44   S    
C17   C18   A    
C101  H68   S    
C51   H19   S    
C8    C92   A    
C23   C27   A    
C90   H54   S    
C18   C22   A    
C32   H12   S    
C2    N2    A    
C67   C71   A    
C10   C74   A    
C53   H21   S    
C47   H35   S    
C15   C23   S    
C44   C52   A    
C10   C66   S    
C54   H22   S    
N9    N17   A    
C16   C24   S    
C87   H51   S    
C30   H6    S    
N7    Ni7   S    
C17   C30   S    
C88   H52   S    
C29   H5    S    
C61   C62   A    
C88   N24   A    
C9    C73   A    
N32   Ni3   S    
C19   C32   S    
C35   N35   S    
C7    C59   S    
C82   H46   S    
C11   C67   S    
C72   H32   S    
C13   C77   A    
C102  H71   S    
C85   N21   A    
C49   H17   S    
N7    N27   A    
C101  H66   S    
C64   C67   A    
C20   C24   A    
C84   N20   A    
C76   N12   A    
C43   C100  S    
C14   C86   A    
C16   C88   A    
C42   C97   S    
C1    C97   A    
C103  H74   S    
C62   H26   S    
C53   C57   A    
C75   H39   S    
C87   N23   A    
C11   C83   A    
C25   C26   A    
C6    C90   A    
C91   N27   A    
C15   C79   A    
C26   H62   S    
C50   C56   A    
C56   C60   A    
C45   N5    A    
C16   C80   A    
C7    C47   A    
C84   H48   S    
C19   C23   A    
C8    C48   A    
C91   H55   S    
C29   C30   S    
N1    Ni1   S    
C46   H34   S    
C77   N13   A    
C45   H33   S    
C93   C97   A    
C89   H53   S    
N34   H69   S    
C1    N1    A    
C68   C72   A    
C7    C91   A    
C9    C65   S    
C64   H28   S    
C104  H78   S    
C83   N19   A    
C92   H56   S    
C18   C29   S    
C93   H57   S    
C36   N36   S    
C93   N29   A    
C46   N6    A    
C42   C50   A    
C83   H47   S    
C52   H20   S    
C69   H29   S    
N34   C102  S    
C86   N22   A    
C1    H1    S    
C81   H45   S    
C50   H18   S    
C12   C76   A    
C32   H8    S    
C95   H59   S    
N14   Ni5   S    
N2    N30   A    
N27   Ni8   S    
C76   H40   S    
C55   H23   S    
C80   N16   A    
C28   H64   S    
N11   N19   A    
N31   Ni4   S    
C90   N26   A    
C102  H72   S    
C3    H3    S    
N12   N20   A    
C75   N11   A    
C21   C25   A    
C63   C68   A    
N10   Ni1   S    
C95   N31   A    
C6    C46   A    
C62   C65   A    
C96   H60   S    
N9    Ni2   S    
C78   N14   A    
C4    N4    A    
C31   H7    S    
C48   H36   S    
C31   C32   S    
N17   Ni5   S    
C24   C28   A    
C101  H67   S    
C36   C60   A    
C49   C55   A    
N1    N29   A    
C47   N7    A    
N18   Ni6   S    
N26   Ni5   S    
C38   C42   A    
C33   C57   A    
N25   Ni6   S    
N35   C103  S    
C81   N17   A    
N6    N26   A    
C39   H15   S    
C4    C100  A    
C5    C57   S    
N19   Ni7   S    
C14   C22   S    
C78   H42   S    
N35   H73   S    
N4    N32   A    
C71   C72   A    
C11   C75   A    
C89   N25   A    
C8    C60   S    
C103  H76   S    
N13   Ni6   S    
C74   H38   S    
C43   C51   A    
C40   H16   S    
C5    C45   A    
C102  H70   S    
C4    H4    S    
C36   C38   A    
C104  H79   S    
N28   Ni7   S    
C10   C82   A    
C52   C54   A    
C71   H31   S    
C31   H11   S    
C79   N15   A    
C103  H75   S    
C14   C78   A    
C73   N9    A    
C69   C70   A    
N4    Ni4   S    
C85   H49   S    
N11   Ni4   S    
N6    Ni6   S    
C34   N34   S    
N5    Ni5   S    
C63   C64   A    
N14   N22   A    
C3    C99   A    
C40   C44   A    
N15   N23   A    
N15   Ni8   S    
C2    C98   A    
C77   H41   S    
C94   H58   S    
C22   C26   A    
C15   C87   A    
C13   C85   A    
C27   C28   A    
C34   C58   A    
C94   C98   A    
C41   C98   S    
N22   Ni2   S    
C61   H25   S    
N12   Ni3   S    
N21   Ni1   S    
N33   C101  S    
C39   C43   A    
C5    C89   A    
C92   N28   A    
C9    C81   A    
C20   C31   S    
C17   C21   A    
