data_mof_unit_5571.cif
_audit_creation_date              2012-12-10T17:50:10-0500
_audit_creation_method            fapswitch 2.2
_symmetry_space_group_name_H-M    P1
_symmetry_Int_Tables_number       1
_space_group_crystal_system       triclinic
_cell_length_a                    10.603256
_cell_length_b                    14.667707
_cell_length_c                    14.67904
_cell_angle_alpha                 64.579203
_cell_angle_beta                  103.509678
_cell_angle_gamma                 103.012471
_cell_volume                      1984.49896622

loop_
_atom_site_label
_atom_site_type_symbol
_atom_type_description
_atom_site_fract_x
_atom_site_fract_y
_atom_site_fract_z
_atom_type_partial_charge
C1    C     C_R   0.474927 0.120399 0.312017 0.809122
C2    C     C_R   0.516455 0.879234 0.688597 0.805899
C3    C     C_R   0.481171 0.293748 0.172223 0.186772
C4    C     C_R   0.457050 0.706118 0.829301 0.180667
C5    C     C_R   0.406925 0.365048 0.091194 0.026037
C6    C     C_R   0.452776 0.644378 0.934203 0.032101
C7    C     C_R   0.299602 0.329361 0.030417 0.063614
C8    C     C_R   0.519740 0.683928 0.008106 0.057519
C9    C     C_R   0.439337 0.471573 0.066550 0.079278
C10   C     C_R   0.393618 0.540480 0.968139 0.078731
C11   C     C_R   0.287143 0.504146 0.908826 -0.178780
C12   C     C_R   0.507416 0.511529 0.139089 -0.177612
C13   C     C_R   0.239605 0.400779 0.940193 -0.231517
C14   C     C_R   0.541971 0.616203 0.111111 -0.221434
C15   C     C_R   0.732447 0.291145 0.657329 -0.324300
C16   C     C_R   0.275187 0.713375 0.335374 -0.329906
C17   C     C_R   0.690535 0.205727 0.633984 0.080683
C18   C     C_R   0.309279 0.794298 0.366084 0.061841
C19   C     C_R   0.518579 0.285629 0.508377 -0.006268
C20   C     C_R   0.489940 0.719292 0.483357 -0.001802
C21   C     C_R   0.556258 0.375291 0.528290 -0.020967
C22   C     C_R   0.459063 0.633422 0.457133 -0.022376
C23   C     C_R   0.259373 0.000654 0.499491 0.778376
C24   C     C_R   0.740466 0.999900 0.499547 0.785014
C25   C     C_R   0.665864 0.376110 0.604811 0.167727
C26   C     C_R   0.349061 0.632417 0.381036 0.167885
C27   C     C_R   0.489136 0.462861 0.476353 0.077554
C28   C     C_R   0.531322 0.548650 0.504312 0.077334
C29   C     C_R   0.643427 0.546283 0.579093 -0.249379
C30   C     C_R   0.381236 0.467493 0.397751 -0.243440
C31   C     C_R   0.708728 0.461629 0.628292 -0.195268
C32   C     C_R   0.313189 0.550729 0.351124 -0.195714
C33   C     C_3   0.015505 0.011703 0.406259 -0.179997
C34   C     C_3   0.984118 0.989388 0.591525 -0.170675
C35   C     C_3   0.961982 0.088945 0.427992 -0.172380
C36   C     C_3   0.037503 0.912135 0.569783 -0.166654
C37   C     C_3   0.876997 0.999642 0.498799 0.023200
C38   C     C_3   0.122594 0.001429 0.499085 0.030429
C39   C     C_3   0.928066 0.922337 0.476992 -0.144749
C40   C     C_3   0.071457 0.078761 0.520782 -0.130155
C41   C     C_R   0.431007 0.189141 0.206901 -0.107537
C42   C     C_R   0.512574 0.810647 0.798060 -0.130841
C43   C     C_R   0.256250 0.223274 0.060816 0.007372
C44   C     C_R   0.567525 0.789159 0.976917 0.006028
C45   C     C_R   0.320887 0.154702 0.149960 -0.299781
C46   C     C_R   0.562907 0.851043 0.872622 -0.291277
Cu1   Cu    Cu3+1 0.465750 0.918270 0.475680 0.915488
Cu2   Cu    Cu3+1 0.534250 0.081730 0.524320 0.923818
H1    H     H_    0.927627 0.161095 0.369976 0.128161
H2    H     H_    0.071790 0.839945 0.627763 0.121802
H3    H     H_    0.573341 0.728050 0.538235 0.127539
H4    H     H_    0.436655 0.277863 0.451836 0.123844
H5    H     H_    0.252776 0.857131 0.330695 0.124426
H6    H     H_    0.742549 0.140426 0.673379 0.119567
H7    H     H_    0.816736 0.291023 0.715692 0.147969
H8    H     H_    0.191244 0.713849 0.276644 0.138317
H9    H     H_    0.683764 0.608954 0.601781 0.128839
H10   H     H_    0.346376 0.407736 0.370104 0.130166
H11   H     H_    0.031665 0.020922 0.330513 0.122238
H12   H     H_    0.967926 0.980235 0.667227 0.119568
H13   H     H_    0.866545 0.858312 0.459040 0.136101
H14   H     H_    0.132886 0.142854 0.538640 0.138653
H15   H     H_    0.158134 0.377501 0.891097 0.159535
H16   H     H_    0.592979 0.642701 0.170185 0.166508
H17   H     H_    0.601881 0.931279 0.849879 0.167655
H18   H     H_    0.281311 0.074332 0.177335 0.159595
H19   H     H_    0.235392 0.555709 0.839815 0.159071
H20   H     H_    0.527980 0.462923 0.219157 0.155197
H21   H     H_    0.793539 0.462968 0.685940 0.137289
H22   H     H_    0.230296 0.550484 0.291741 0.140601
N1    N     N_R   0.585750 0.204560 0.560800 -0.176282
N2    N     N_R   0.414250 0.795440 0.439200 -0.178321
O1    O     O_R   0.454850 0.022100 0.338110 -0.588099
O2    O     O_R   0.545150 0.977900 0.661890 -0.585533
O3    O     O_R   0.512700 0.160150 0.379180 -0.592460
O4    O     O_R   0.487300 0.839850 0.620820 -0.574659
O5    O     O_R   0.287930 0.931000 0.479440 -0.589298
O6    O     O_R   0.712070 0.069000 0.520560 -0.581259
O7    O     O_R   0.345780 0.069050 0.520520 -0.587511
O8    O     O_R   0.654220 0.930950 0.479480 -0.593614
N3    N     N_2   0.419829 0.658447 0.758589 -0.439419
H23   H     H_    0.354073 0.689622 0.693757 0.269236
C47   C     C_3   0.519731 0.610641 0.750625 -0.635317
H24   H     H_    0.477666 0.570496 0.698858 0.224613
H25   H     H_    0.555484 0.553495 0.826636 0.231832
H26   H     H_    0.603615 0.668771 0.720537 0.213765
N4    N     N_2   0.613131 0.326398 0.208538 -0.435370
H27   H     H_    0.633463 0.314773 0.284472 0.269481
C48   C     C_3   0.712155 0.299035 0.175572 -0.689272
H28   H     H_    0.810289 0.335642 0.199370 0.220939
H29   H     H_    0.695115 0.326169 0.091008 0.238301
H30   H     H_    0.710985 0.215019 0.210733 0.207674
C49   C     C_R   0.138760 0.181605 0.005415 0.112798
C50   C     C_R   0.150558 0.117426 0.960149 -0.147082
C51   C     C_R   0.039741 0.078237 0.907710 -0.154118
C52   C     C_R   0.916627 0.102294 0.900753 -0.125115
C53   C     C_R   0.903817 0.164844 0.946935 -0.138306
C54   C     C_R   0.014282 0.204013 0.999607 -0.186486
H31   H     H_    0.245541 0.098500 0.964828 0.131609
H32   H     H_    0.049270 0.029202 0.872472 0.123154
H33   H     H_    0.830928 0.071581 0.860534 0.114159
H34   H     H_    0.808205 0.182619 0.942246 0.136971
H35   H     H_    0.003100 0.252001 0.035542 0.129349
C55   C     C_R   0.622453 0.836612 0.051654 0.106360
C56   C     C_R   0.754535 0.880435 0.059870 -0.152000
C57   C     C_R   0.806343 0.923881 0.131436 -0.129228
C58   C     C_R   0.726542 0.924429 0.194690 -0.124095
C59   C     C_R   0.594869 0.881202 0.186772 -0.123980
C60   C     C_R   0.542783 0.837441 0.115540 -0.164763
H36   H     H_    0.817475 0.879887 0.011712 0.127916
H37   H     H_    0.908412 0.957118 0.137880 0.140512
H38   H     H_    0.766710 0.958257 0.249856 0.127297
H39   H     H_    0.533217 0.881559 0.235863 0.151691
H40   H     H_    0.440650 0.804005 0.110262 0.131612

loop_
_geom_bond_atom_site_label_1
_geom_bond_atom_site_label_2
_ccdc_geom_bond_type
C25   C31   A    
C38   C40   S    
C56   H36   S    
C26   C32   A    
C49   C50   A    
C34   C37   S    
C58   H38   S    
C19   N1    A    
C51   C52   A    
N4    H27   S    
C53   C54   A    
C44   C55   S    
C2    O4    A    
C12   H20   S    
C33   C39   S    
C34   C40   S    
Cu2   O7    S    
C28   C29   A    
C35   C37   S    
Cu1   O4    S    
C20   H3    S    
C55   C60   A    
C15   C25   A    
C57   C58   A    
C54   H35   S    
C40   H14   S    
C59   C60   A    
C42   C46   A    
Cu2   O6    S    
C18   H5    S    
C43   C49   S    
C19   H4    S    
C24   O8    A    
C4    N3    S    
Cu1   Cu2   S    
C44   C46   A    
C35   H1    S    
C58   C59   A    
C7    C43   A    
C48   H29   S    
C9    C10   A    
C53   H34   S    
C2    O2    A    
C21   C27   A    
C33   H11   S    
C22   C28   A    
C52   H33   S    
C27   C30   A    
C34   H12   S    
Cu2   O3    S    
Cu1   O8    S    
C55   C56   A    
N3    C47   S    
C11   H19   S    
N3    H23   S    
C57   H37   S    
C18   N2    A    
C39   H13   S    
C29   H9    S    
C3    N4    S    
C1    O3    A    
Cu2   O2    S    
Cu1   O1    S    
C46   H17   S    
C4    C6    A    
C5    C7    A    
C51   H32   S    
C32   H22   S    
C15   H7    S    
C59   H39   S    
C16   H8    S    
C5    C9    A    
C37   C39   S    
C47   H24   S    
C13   H15   S    
C31   H21   S    
C14   H16   S    
C52   C53   A    
C24   C37   S    
C23   O5    A    
C48   H30   S    
C43   C45   A    
C60   H40   S    
C24   O6    A    
C47   H25   S    
C12   C14   A    
C17   N1    A    
N4    C48   S    
Cu1   O5    S    
Cu2   N1    S    
C45   H18   S    
C36   H2    S    
C1    C41   S    
C15   C17   A    
C21   C25   A    
C3    C41   A    
C8    C14   A    
C19   C21   A    
C36   C39   S    
C8    C44   A    
C20   C22   A    
C3    C5    A    
C16   C26   A    
C6    C10   A    
C6    C8    A    
C23   C38   S    
C56   C57   A    
C33   C38   S    
C1    O1    A    
C49   C54   A    
C36   C38   S    
C35   C40   S    
C29   C31   A    
C30   C32   A    
C11   C13   A    
C4    C42   A    
C50   H31   S    
C2    C42   S    
C30   H10   S    
C33   C35   S    
C34   C36   S    
C50   C51   A    
C9    C12   A    
Cu1   N2    S    
C10   C11   A    
C7    C13   A    
C47   H26   S    
C16   C18   A    
C22   C26   A    
C27   C28   A    
C41   C45   A    
C20   N2    A    
C23   O7    A    
C48   H28   S    
C17   H6    S    
