data_mof_unit_51529.cif
_audit_creation_date              2012-12-11T15:45:02-0500
_audit_creation_method            fapswitch 2.2
_symmetry_space_group_name_H-M    P1
_symmetry_Int_Tables_number       1
_space_group_crystal_system       triclinic
_cell_length_a                    19.169546
_cell_length_b                    10.981625
_cell_length_c                    18.848109
_cell_angle_alpha                 90.629414
_cell_angle_beta                  90.296886
_cell_angle_gamma                 89.71441
_cell_volume                      3967.42670674

loop_
_atom_site_label
_atom_site_type_symbol
_atom_type_description
_atom_site_fract_x
_atom_site_fract_y
_atom_site_fract_z
_atom_type_partial_charge
C1    C     C_R   0.760702 0.528678 0.644866 0.546614
C2    C     C_R   0.195360 0.002021 0.531051 0.035833
C3    C     C_R   0.517974 0.950343 0.958753 0.028307
C4    C     C_R   0.017970 0.230871 0.955455 -0.165990
C5    C     C_R   0.023545 0.229973 0.029727 -0.161779
C6    C     C_R   0.517966 0.730874 0.955459 -0.166161
C7    C     C_R   0.523534 0.729975 0.029732 -0.161596
C8    C     C_3   0.983284 0.563820 0.041346 -0.279397
C9    C     C_3   0.976513 0.566599 0.961521 -0.270441
C10   C     C_3   0.483252 0.063811 0.041355 -0.279453
C11   C     C_3   0.476483 0.066591 0.961529 -0.270369
C12   C     C_R   0.760072 0.533296 0.851853 0.542244
C13   C     C_R   0.284428 0.698462 0.438900 0.035862
C14   C     C_R   0.237402 0.525369 0.145280 0.564695
C15   C     C_R   0.260073 0.033294 0.851854 0.544194
C16   C     C_R   0.737395 0.025342 0.145272 0.561210
C17   C     C_R   0.772423 0.125201 0.852685 0.541714
C18   C     C_R   0.225112 0.132204 0.144572 0.553079
C19   C     C_R   0.272422 0.625200 0.852684 0.548939
C20   C     C_R   0.725106 0.632217 0.144567 0.552787
C21   C     C_R   0.971124 0.347219 0.852798 0.546649
C22   C     C_R   0.033967 0.346728 0.143974 0.546864
C23   C     C_R   0.471122 0.847219 0.852799 0.548704
C24   C     C_R   0.695433 0.501343 0.530784 0.042918
C25   C     C_R   0.533958 0.846726 0.143979 0.547103
C26   C     C_R   0.746617 0.071810 0.425911 0.014949
C27   C     C_R   0.242287 0.072180 0.574587 -0.000641
C28   C     C_R   0.250808 0.586464 0.423062 0.014387
C29   C     C_R   0.743381 0.569981 0.574000 0.000234
C30   C     C_R   0.732490 0.980547 0.474448 -0.009736
C31   C     C_R   0.274453 0.170967 0.543763 -0.027296
C32   C     C_R   0.239994 0.504047 0.477073 -0.021413
C33   C     C_R   0.777757 0.665673 0.542538 -0.025354
C34   C     C_R   0.745120 0.995585 0.545748 -0.015048
C35   C     C_3   0.664975 0.918709 0.487128 -0.243070
C36   C     C_R   0.269038 0.189704 0.471951 0.007058
C37   C     C_R   0.257100 0.530226 0.546311 0.028272
C38   C     C_R   0.772154 0.684888 0.470975 0.011578
C39   C     C_2   0.802360 0.276429 0.399460 0.545811
C40   C     C_2   0.145165 0.912824 0.557965 0.593044
C41   C     C_2   0.302881 0.787019 0.382882 0.545844
C42   C     C_2   0.644619 0.413124 0.557840 0.592979
C43   C     C_3   0.346189 0.220151 0.547976 -0.270002
C44   C     C_3   0.173626 0.444881 0.497273 -0.260482
C45   C     C_3   0.850140 0.711667 0.546556 -0.264611
C46   C     C_3   0.681248 0.928599 0.565796 -0.271095
C47   C     C_3   0.339004 0.245055 0.468861 -0.256038
C48   C     C_3   0.194679 0.467094 0.573958 -0.249991
C49   C     C_R   0.239761 0.536614 0.352527 0.600364
C50   C     C_3   0.842773 0.737673 0.467521 -0.254865
C51   C     C_R   0.766143 0.108119 0.570572 0.041203
C52   C     C_R   0.238364 0.102207 0.427692 0.026866
C53   C     C_R   0.281168 0.645000 0.564973 0.036238
C54   C     C_R   0.739405 0.599553 0.426946 0.012737
C55   C     C_R   0.992787 0.344836 0.422064 -0.000518
C56   C     C_R   0.996896 0.334708 0.571934 -0.028461
C57   C     C_R   0.489629 0.844414 0.420355 0.005914
C58   C     C_R   0.493724 0.836438 0.570343 -0.033891
C59   C     C_R   0.962322 0.129555 0.415221 -0.070583
C60   C     C_R   0.260421 0.029565 0.645149 0.539441
C61   C     C_R   0.980656 0.108956 0.560985 -0.046041
C62   C     C_R   0.460973 0.628877 0.414129 -0.073183
C63   C     C_R   0.479397 0.609874 0.559981 -0.052669
C64   C     C_R   0.952751 0.018021 0.447357 -0.132351
C65   C     C_R   0.962866 0.007245 0.519941 -0.103969
C66   C     C_R   0.451491 0.517711 0.446648 -0.129965
C67   C     C_R   0.461666 0.507736 0.519267 -0.104739
C68   C     C_R   0.986381 0.225846 0.530565 -0.000085
C69   C     C_R   0.981350 0.233258 0.455562 0.026814
C70   C     C_R   0.484184 0.726736 0.529319 -0.009204
C71   C     C_R   0.739168 0.034568 0.353196 0.603458
C72   C     C_R   0.479118 0.733191 0.454256 0.018203
C73   C     C_R   0.007465 0.446314 0.536370 0.000185
C74   C     C_R   0.994037 0.453214 0.463325 0.028505
C75   C     C_R   0.501665 0.948616 0.534052 -0.003571
C76   C     C_R   0.487993 0.953309 0.460904 0.033925
C77   C     C_R   0.775207 0.128671 0.644905 0.544389
C78   C     C_R   0.225684 0.128417 0.354532 0.559764
C79   C     C_R   0.292640 0.672972 0.639342 0.556980
C80   C     C_R   0.726034 0.627489 0.354157 0.555627
C81   C     C_R   0.028226 0.554366 0.572432 -0.104054
C82   C     C_R   0.788568 0.197327 0.522658 -0.087270
C83   C     C_R   0.987228 0.569804 0.432556 -0.086643
C84   C     C_R   0.522149 0.058539 0.568654 -0.101368
C85   C     C_R   0.480736 0.068487 0.428716 -0.075267
C86   C     C_R   0.023871 0.666473 0.540123 -0.093483
C87   C     C_R   0.004783 0.674653 0.469841 -0.118484
C88   C     C_R   0.519475 0.168989 0.534265 -0.095895
C89   C     C_R   0.500128 0.174310 0.463989 -0.120928
C90   C     C_R   0.742279 0.051530 0.069708 0.015522
C91   C     C_R   0.244610 0.089774 0.920508 0.016019
C92   C     C_R   0.242291 0.551573 0.069719 0.015713
C93   C     C_R   0.198197 0.011940 0.458308 -0.122853
C94   C     C_R   0.744607 0.589783 0.920504 0.016063
C95   C     C_R   0.796000 0.995832 0.031768 0.035628
C96   C     C_R   0.185192 0.052109 0.957267 0.031399
C97   C     C_R   0.296014 0.495880 0.031781 0.035261
C98   C     C_R   0.685185 0.552132 0.957260 0.031511
C99   C     C_R   0.800998 0.007035 0.959560 0.030797
C100  C     C_R   0.181572 0.063265 0.029647 0.036551
C101  C     C_R   0.301010 0.507072 0.959571 0.030688
C102  C     C_R   0.681561 0.563294 0.029640 0.036638
C103  C     C_R   0.690875 0.112742 0.956457 -0.167090
C104  C     C_R   0.298786 0.727218 0.511112 -0.125739
C105  C     C_R   0.289993 0.171789 0.031828 -0.160363
C106  C     C_R   0.190881 0.612757 0.956465 -0.167346
C107  C     C_R   0.789992 0.671791 0.031825 -0.160244
C108  C     C_R   0.686248 0.101792 0.030716 -0.159801
C109  C     C_R   0.293892 0.160955 0.957506 -0.166279
C110  C     C_R   0.186258 0.601823 0.030725 -0.159759
C111  C     C_R   0.793894 0.660954 0.957504 -0.166465
C112  C     C_3   0.872863 0.002391 0.043287 -0.279249
C113  C     C_3   0.148972 0.931427 0.958789 -0.269392
C114  C     C_3   0.372876 0.502461 0.043300 -0.279159
C115  C     C_R   0.697976 0.511262 0.457959 -0.116901
C116  C     C_3   0.648954 0.431459 0.958781 -0.269173
C117  C     C_3   0.878892 0.015421 0.963767 -0.269385
C118  C     C_3   0.145264 0.944829 0.038538 -0.278999
C119  C     C_3   0.378903 0.515482 0.963779 -0.269576
C120  C     C_3   0.645244 0.444864 0.038530 -0.279272
C121  C     C_R   0.752109 0.075513 0.921252 0.015627
C122  C     C_R   0.236173 0.113018 0.068965 0.016183
C123  C     C_R   0.252115 0.575529 0.921259 0.014830
C124  C     C_R   0.736165 0.613036 0.068960 0.015915
C125  C     C_R   0.970754 0.344633 0.646081 0.533800
C126  C     C_R   0.779531 0.180048 0.449038 0.028875
C127  C     C_R   0.026745 0.347266 0.351683 0.525798
C128  C     C_R   0.470050 0.845003 0.645512 0.525615
C129  C     C_R   0.526063 0.847138 0.351144 0.524416
C130  C     C_R   0.020172 0.340325 0.068407 0.017789
C131  C     C_R   0.007519 0.342010 0.920416 0.016995
C132  C     C_R   0.520155 0.840324 0.068414 0.018149
C133  C     C_R   0.507510 0.842012 0.920421 0.016217
C134  C     C_R   0.023659 0.448735 0.031059 0.039359
C135  C     C_R   0.017994 0.450340 0.958745 0.028747
C136  C     C_R   0.523635 0.948735 0.031067 0.039611
Cr1   Cr    Cr6+3 0.885860 0.491680 0.749630 1.001502
Cr2   Cr    Cr6+3 0.112430 0.179310 0.249850 1.019739
Cr3   Cr    Cr6+3 0.387570 0.679310 0.750150 0.997265
Cr4   Cr    Cr6+3 0.612430 0.679310 0.249850 1.018298
Cr5   Cr    Cr6+3 0.114140 0.491680 0.250370 1.031349
Cr6   Cr    Cr6+3 0.385860 0.991680 0.749630 0.995930
Cr7   Cr    Cr6+3 0.614140 0.991680 0.250370 1.028205
Cr8   Cr    Cr6+3 0.730490 0.332970 0.748720 1.027243
Cr9   Cr    Cr6+3 0.269510 0.332970 0.251280 1.009442
Cr10  Cr    Cr6+3 0.230490 0.832970 0.748720 1.020815
Cr11  Cr    Cr6+3 0.769510 0.832970 0.251280 1.010458
Cr12  Cr    Cr6+3 0.887570 0.179310 0.750150 1.001997
H1    H     H_    0.811083 0.281080 0.543160 0.154675
H2    H     H_    0.329931 0.222296 0.060052 0.133002
H3    H     H_    0.149215 0.657743 0.927821 0.121292
H4    H     H_    0.829933 0.722284 0.060051 0.133099
H5    H     H_    0.640304 0.135853 0.057545 0.132553
H6    H     H_    0.337747 0.200101 0.930127 0.122358
H7    H     H_    0.140313 0.635882 0.057553 0.132597
H8    H     H_    0.837753 0.700087 0.930127 0.122021
H9    H     H_    0.895156 0.915494 0.063073 0.133441
H10   H     H_    0.183822 0.855977 0.941914 0.167217
H11   H     H_    0.395175 0.415570 0.063089 0.133301
H12   H     H_    0.166792 0.951113 0.425609 0.163222
H13   H     H_    0.683797 0.355995 0.941910 0.167365
H14   H     H_    0.888873 0.085385 0.073430 0.142812
H15   H     H_    0.096989 0.934065 0.932396 0.128096
H16   H     H_    0.388879 0.585462 0.073440 0.143408
H17   H     H_    0.596972 0.434110 0.932386 0.128192
H18   H     H_    0.897658 0.106521 0.948255 0.165715
H19   H     H_    0.091147 0.955950 0.058413 0.133402
H20   H     H_    0.397656 0.606587 0.948261 0.165391
H21   H     H_    0.591127 0.455994 0.058402 0.133379
H22   H     H_    0.905301 0.936716 0.937558 0.128740
H23   H     H_    0.321925 0.813836 0.525708 0.138975
H24   H     H_    0.177645 0.876837 0.067283 0.145691
H25   H     H_    0.405320 0.436782 0.937572 0.129192
H26   H     H_    0.677620 0.376866 0.067276 0.144678
H27   H     H_    0.015383 0.145173 0.926642 0.124167
H28   H     H_    0.027771 0.143839 0.056690 0.132023
H29   H     H_    0.515387 0.645178 0.926644 0.124330
H30   H     H_    0.527763 0.643841 0.056694 0.132024
H31   H     H_    0.015597 0.639103 0.063309 0.134338
H32   H     H_    0.921975 0.553646 0.943474 0.167490
H33   H     H_    0.515561 0.139098 0.063320 0.134212
H34   H     H_    0.665435 0.451910 0.425505 0.164565
H35   H     H_    0.421948 0.053620 0.943480 0.167527
H36   H     H_    0.932822 0.549360 0.068798 0.139908
H37   H     H_    0.004544 0.643927 0.937166 0.126638
H38   H     H_    0.432791 0.049338 0.068806 0.139807
H39   H     H_    0.504508 0.143927 0.937176 0.126741
H40   H     H_    0.170086 0.347608 0.481954 0.140714
H41   H     H_    0.887277 0.637252 0.558990 0.186253
H42   H     H_    0.662472 0.824154 0.466358 0.141255
H43   H     H_    0.384358 0.147717 0.560995 0.181730
H44   H     H_    0.622036 0.978305 0.469244 0.176686
H45   H     H_    0.031590 0.747349 0.570924 0.144955
H46   H     H_    0.349017 0.304215 0.581186 0.141000
H47   H     H_    0.129443 0.501325 0.478913 0.181884
H48   H     H_    0.854326 0.795165 0.580093 0.136463
H49   H     H_    0.645918 0.986874 0.597185 0.141724
H50   H     H_    0.336756 0.342942 0.456288 0.155608
H51   H     H_    0.160772 0.530630 0.603905 0.163218
H52   H     H_    0.841317 0.835949 0.455443 0.154160
H53   H     H_    0.693214 0.840128 0.590971 0.144459
H54   H     H_    0.371410 0.191257 0.432467 0.145207
H55   H     H_    0.208760 0.382578 0.602651 0.142796
H56   H     H_    0.000646 0.762469 0.444936 0.118037
H57   H     H_    0.874497 0.683018 0.430846 0.136980
H58   H     H_    0.938274 0.939908 0.415326 0.102860
H59   H     H_    0.957266 0.919632 0.544711 0.110971
H60   H     H_    0.436887 0.439363 0.414906 0.103097
H61   H     H_    0.455970 0.420482 0.544361 0.110014
H62   H     H_    0.952139 0.135079 0.358807 0.141308
H63   H     H_    0.992315 0.092239 0.615942 0.180924
H64   H     H_    0.451114 0.633867 0.357623 0.139638
H65   H     H_    0.491411 0.593419 0.614859 0.182381
H66   H     H_    0.966179 0.581641 0.379689 0.130320
H67   H     H_    0.528749 0.251159 0.563482 0.146588
H68   H     H_    0.047739 0.554266 0.626309 0.136894
H69   H     H_    0.459917 0.077726 0.375525 0.131967
H70   H     H_    0.541886 0.061739 0.622398 0.139715
H71   H     H_    0.850712 0.437363 0.387131 0.327499
H72   H     H_    0.077867 0.880138 0.638156 0.309316
H73   H     H_    0.348255 0.946388 0.358634 0.327642
H74   H     H_    0.574484 0.380632 0.635458 0.308073
H75   H     H_    0.497234 0.260835 0.437509 0.114701
H76   H     H_    0.649214 0.157744 0.927815 0.121189
O1    O     O_R   0.957020 0.451640 0.669920 -0.526090
O2    O     O_R   0.168040 0.093290 0.169870 -0.511982
O3    O     O_R   0.331960 0.593290 0.830130 -0.518665
O4    O     O_R   0.668040 0.593290 0.169870 -0.512711
O5    O     O_R   0.945600 0.250580 0.824860 -0.509411
O6    O     O_R   0.054400 0.250580 0.175140 -0.510766
O7    O     O_R   0.445600 0.750580 0.824860 -0.508101
O8    O     O_R   0.554400 0.750580 0.175140 -0.510487
O9    O     O_3   0.834640 0.334650 0.749500 -0.253876
O10   O     O_3   0.165360 0.334650 0.250500 -0.261654
O11   O     O_3   0.334640 0.834650 0.749500 -0.272521
O12   O     O_R   0.042980 0.451640 0.330080 -0.530036
O13   O     O_3   0.665360 0.834650 0.250500 -0.261791
O14   O     O_R   0.821450 0.543440 0.674610 -0.506958
O15   O     O_R   0.178550 0.543440 0.325390 -0.479715
O16   O     O_R   0.321450 0.043440 0.674610 -0.509109
O17   O     O_R   0.678550 0.043440 0.325390 -0.482521
O18   O     O_R   0.715320 0.458650 0.668100 -0.478767
O19   O     O_R   0.284680 0.458650 0.331900 -0.527838
O20   O     O_R   0.215320 0.958650 0.668100 -0.485469
O21   O     O_R   0.784680 0.958650 0.331900 -0.527246
O22   O     O_R   0.737170 0.209590 0.674530 -0.487972
O23   O     O_R   0.457020 0.951640 0.669920 -0.527281
O24   O     O_R   0.262830 0.209590 0.325470 -0.510672
O25   O     O_R   0.237170 0.709590 0.674530 -0.486359
O26   O     O_R   0.762830 0.709590 0.325470 -0.508702
O27   O     O_R   0.832710 0.092740 0.669580 -0.530520
O28   O     O_R   0.167290 0.092740 0.330420 -0.515821
O29   O     O_R   0.332710 0.592740 0.669580 -0.526320
O30   O     O_R   0.667290 0.592740 0.330420 -0.516260
O31   O     O_R   0.946290 0.250060 0.676040 -0.516184
O32   O     O_R   0.053710 0.250060 0.323960 -0.504778
O33   O     O_R   0.446290 0.750060 0.676040 -0.529262
O34   O     O_R   0.542980 0.951640 0.330080 -0.531372
O35   O     O_R   0.553710 0.750060 0.323960 -0.504846
O36   O     O_R   0.956270 0.452200 0.830470 -0.524602
O37   O     O_R   0.043730 0.452200 0.169530 -0.522438
O38   O     O_R   0.456270 0.952200 0.830470 -0.522813
O39   O     O_R   0.543730 0.952200 0.169530 -0.522692
O40   O     O_R   0.820760 0.543950 0.823440 -0.510581
O41   O     O_R   0.179240 0.543950 0.176560 -0.502079
O42   O     O_R   0.320760 0.043950 0.823440 -0.508033
O43   O     O_R   0.679240 0.043950 0.176560 -0.503496
O44   O     O_R   0.714570 0.459210 0.828640 -0.521102
O45   O     O_R   0.736470 0.210100 0.823360 -0.513486
O46   O     O_R   0.285430 0.459210 0.171360 -0.516187
O47   O     O_R   0.214570 0.959210 0.828640 -0.520936
O48   O     O_R   0.785430 0.959210 0.171360 -0.516504
O49   O     O_2   0.790798 0.267494 0.335765 -0.528745
O50   O     O_R   0.837263 0.378796 0.425897 -0.729689
O51   O     O_2   0.148242 0.807115 0.537568 -0.555394
O52   O     O_R   0.097171 0.949618 0.609657 -0.712174
O53   O     O_2   0.287368 0.767699 0.320786 -0.525966
O54   O     O_R   0.338044 0.893952 0.401247 -0.734603
O55   O     O_2   0.646542 0.307675 0.536850 -0.555185
O56   O     O_R   0.263530 0.210100 0.176640 -0.512377
O57   O     O_R   0.596821 0.450449 0.609601 -0.711150
O58   O     O_R   0.236470 0.710100 0.823360 -0.509869
O59   O     O_R   0.763530 0.710100 0.176640 -0.511385
O60   O     O_R   0.831960 0.093290 0.830130 -0.522215

loop_
_geom_bond_atom_site_label_1
_geom_bond_atom_site_label_2
_ccdc_geom_bond_type
C35   H44   S    
C78   O28   A    
C74   C83   A    
C90   C95   A    
C48   H55   S    
C80   O30   A    
Cr8   O9    S    
C43   H46   S    
C57   C76   A    
C86   H45   S    
C95   C99   A    
C81   H68   S    
C40   O52   S    
C29   C33   A    
C94   C111  A    
C33   C45   S    
Cr9   O19   S    
C36   C47   S    
C26   C126  A    
C125  O31   A    
C41   O54   S    
C91   C96   A    
C55   C74   A    
C117  H22   S    
C108  H5    S    
Cr12  O27   S    
Cr8   O18   S    
C47   H50   S    
C60   O16   A    
C81   C86   A    
C59   H62   S    
C99   C121  A    
Cr5   O15   S    
Cr9   O10   S    
C22   C130  S    
C26   C71   S    
C130  C134  A    
Cr7   O34   S    
C107  C124  A    
H74   O57   S    
C73   C81   A    
C48   H51   S    
C27   C31   A    
C28   C32   A    
C17   O45   A    
C30   C34   A    
C58   C70   A    
C98   C102  A    
C75   C76   A    
Cr11  O48   S    
C22   O6    A    
C117  H18   S    
C1    C29   S    
C79   O29   A    
C109  H6    S    
C7    C132  A    
C84   H70   S    
C59   C69   A    
C104  H23   S    
C39   O50   S    
C5    C130  A    
C35   H42   S    
C6    H29   S    
Cr3   O11   S    
C5    H28   S    
C71   O21   A    
C103  C121  A    
C87   H56   S    
C56   C73   A    
Cr5   O37   S    
C84   C88   A    
C4    C5    A    
C6    C7    A    
C33   C38   A    
C27   C60   S    
C45   C50   S    
C67   H61   S    
C3    C11   S    
C15   C91   S    
Cr1   O40   S    
C2    C40   S    
C88   C89   A    
Cr10  O20   S    
C62   H64   S    
C31   C36   A    
Cr3   O7    S    
C43   C47   S    
C76   C85   A    
C23   O7    A    
C44   C48   S    
C25   O8    A    
C58   C128  S    
Cr7   O13   S    
C49   O15   A    
C15   O42   A    
C19   C123  S    
C34   C51   A    
C31   C43   S    
Cr2   O28   S    
C120  H21   S    
C113  H15   S    
C53   C104  A    
C118  H19   S    
Cr2   O2    S    
Cr12  O9    S    
C12   O40   A    
C19   O3    A    
Cr1   O1    S    
C110  H7    S    
C17   O60   A    
C46   H53   S    
C82   C126  A    
C4    H27   S    
C78   O24   A    
C34   C46   S    
C20   O59   A    
C114  C119  S    
C36   C52   A    
C37   C53   A    
C45   H48   S    
C66   C67   A    
C80   O26   A    
H73   O54   S    
C49   O19   A    
C92   C97   A    
Cr4   O4    S    
C62   C66   A    
Cr10  O25   S    
C8    C134  S    
C116  H13   S    
Cr2   O6    S    
C56   C68   A    
C116  C120  S    
C47   H54   S    
Cr9   O46   S    
C12   O44   A    
C61   C65   A    
C99   C117  S    
C28   C49   S    
C114  H16   S    
C132  C136  A    
C52   C93   A    
C32   C37   A    
C55   C69   A    
C9    C135  S    
C120  H26   S    
Cr6   O11   S    
C55   C127  S    
C26   C30   A    
C115  H34   S    
C105  C109  A    
Cr10  O11   S    
C128  O23   A    
C107  C111  A    
Cr6   O42   S    
C129  O35   A    
C89   H75   S    
C134  C135  A    
C65   H59   S    
C20   O4    A    
C128  O33   A    
C90   C108  A    
C92   C110  A    
C96   C100  A    
Cr4   O13   S    
C10   H38   S    
C105  C122  A    
C20   C124  S    
C16   O43   A    
C41   O53   D    
C1    O18   A    
Cr6   O23   S    
C97   C114  S    
C25   C132  S    
C83   C87   A    
C16   C90   S    
C82   H1    S    
C88   H67   S    
C24   C42   S    
C73   C74   A    
C83   H66   S    
C13   C41   S    
Cr11  O26   S    
Cr6   O16   S    
C105  H2    S    
Cr10  O47   S    
C6    C133  A    
C95   C112  S    
C112  C117  S    
Cr2   O32   S    
C94   C98   A    
C52   C78   S    
Cr3   O3    S    
C77   O22   A    
C24   C29   A    
C21   C131  S    
C68   C69   A    
Cr7   O17   S    
C13   C28   A    
C2    C27   A    
Cr10  O58   S    
C14   O41   A    
C39   O49   D    
C39   C126  S    
C12   C94   S    
Cr8   O44   S    
C102  C124  A    
C16   O48   A    
C54   C80   S    
Cr11  O13   S    
C60   O20   A    
C112  H9    S    
C85   C89   A    
C86   C87   A    
C46   H49   S    
C40   O51   D    
C64   H58   S    
C7    H30   S    
C93   H12   S    
C51   C77   S    
C103  H76   S    
C66   H60   S    
C38   C54   A    
C118  H24   S    
C21   O5    A    
C54   C115  A    
C59   C64   A    
C56   C125  S    
C13   C104  A    
C18   O56   A    
C17   C121  S    
Cr4   O8    S    
C116  H17   S    
Cr2   O10   S    
Cr7   O39   S    
C102  C120  S    
C125  O1    A    
C44   H47   S    
C106  H3    S    
Cr3   O29   S    
C14   O46   A    
C131  C135  A    
C64   C65   A    
Cr8   O45   S    
C119  H25   S    
C8    H31   S    
Cr3   O33   S    
C57   C72   A    
C75   C84   A    
C10   H33   S    
Cr6   O38   S    
C35   C46   S    
C119  H20   S    
Cr4   O35   S    
Cr8   O22   S    
H72   O52   S    
C127  O12   A    
C101  C123  A    
C30   C35   S    
C11   H39   S    
C57   C129  S    
C53   C79   S    
C10   C136  S    
C3    C136  A    
C9    H37   S    
C25   O39   A    
C22   O37   A    
Cr11  O59   S    
C61   H63   S    
Cr1   O14   S    
C85   H69   S    
C18   O2    A    
C8    C9    S    
C106  C123  A    
C103  C108  A    
C77   O27   A    
C113  H10   S    
C111  H8    S    
Cr7   O43   S    
C8    H36   S    
C43   H43   S    
C79   O25   A    
C15   O47   A    
C58   C75   A    
C4    C131  A    
C63   C67   A    
C23   C133  S    
C127  O32   A    
C101  C119  S    
C11   H35   S    
C71   O17   A    
C129  O34   A    
C10   C11   S    
C50   H52   S    
Cr5   O10   S    
C23   O38   A    
H71   O50   S    
C3    C133  A    
Cr5   O41   S    
C98   C116  S    
C63   C70   A    
C32   C44   S    
C62   C72   A    
C63   H65   S    
C37   C48   S    
C51   C82   A    
C14   C92   S    
C9    H32   S    
C44   H40   S    
C107  H4    S    
C45   H41   S    
C18   C122  S    
Cr12  O31   S    
Cr9   O56   S    
Cr1   O9    S    
C106  C110  A    
Cr1   O36   S    
C19   O58   A    
C42   O57   S    
Cr12  O60   S    
Cr9   O24   S    
C2    C93   A    
C21   O36   A    
C38   C50   S    
C1    O14   A    
C112  H14   S    
C91   C109  A    
C42   O55   D    
C61   C68   A    
Cr5   O12   S    
C100  C122  A    
C100  C118  S    
C96   C113  S    
C114  H11   S    
C113  C118  S    
C50   H57   S    
Cr4   O30   S    
Cr11  O21   S    
C24   C115  A    
C70   C72   A    
Cr12  O5    S    
C97   C101  A    
