data_mof_unit_8551.cif
_audit_creation_date              2012-12-11T17:39:31-0500
_audit_creation_method            fapswitch 2.2
_symmetry_space_group_name_H-M    P1
_symmetry_Int_Tables_number       1
_space_group_crystal_system       triclinic
_cell_length_a                    14.853749
_cell_length_b                    15.105488
_cell_length_c                    14.896071
_cell_angle_alpha                 109.280066
_cell_angle_beta                  108.838994
_cell_angle_gamma                 110.394338
_cell_volume                      2569.33700818

loop_
_atom_site_label
_atom_site_type_symbol
_atom_type_description
_atom_site_fract_x
_atom_site_fract_y
_atom_site_fract_z
_atom_type_partial_charge
C1    C     C_R   0.908003 0.911301 0.713430 -0.146975
C2    C     C_R   0.908469 0.685038 0.444240 -0.138303
C3    C     C_R   0.701885 0.787557 0.196698 -0.107844
C4    C     C_R   0.093678 0.298379 0.496327 -0.157859
C5    C     C_R   0.306965 0.013045 0.602383 -0.137689
C6    C     C_R   0.643212 0.689768 0.190287 0.145145
C7    C     C_R   0.375014 0.082167 0.580348 0.069429
C8    C     C_R   0.002763 0.677635 0.464500 0.043275
C9    C     C_R   0.005051 0.943276 0.179790 0.056133
C10   C     C_R   0.536722 0.760357 0.605275 -0.125287
C11   C     C_R   0.532619 0.844556 0.587943 -0.150998
C12   C     C_R   0.003637 0.301871 0.438708 0.059488
C13   C     C_R   0.610734 0.953645 0.669602 0.105023
C14   C     C_R   0.689703 0.977864 0.770360 -0.171476
C15   C     C_R   0.693992 0.893377 0.786969 -0.147112
C16   C     C_R   0.246402 0.220772 0.812687 -0.157562
C17   C     C_R   0.618054 0.784677 0.704174 -0.123411
C18   C     C_R   0.535990 0.071367 0.672718 -0.230428
C19   C     C_R   0.494280 0.122096 0.622420 0.043205
C20   C     C_R   0.556575 0.182112 0.587138 0.034803
C21   C     C_R   0.637698 0.161751 0.573641 -0.235475
C22   C     C_R   0.654336 0.081775 0.592159 0.065693
C23   C     C_R   0.271064 0.322103 0.822795 0.131948
C24   C     C_R   0.607302 0.041658 0.649591 0.026908
C25   C     C_R   0.532736 0.268676 0.469793 -0.175933
C26   C     C_R   0.515959 0.347162 0.449351 -0.100727
C27   C     C_R   0.506693 0.423678 0.523988 -0.104779
C28   C     C_R   0.743443 0.058174 0.469987 -0.125351
C29   C     C_R   0.514289 0.421951 0.619282 -0.112223
C30   C     C_R   0.531578 0.343980 0.640455 -0.138227
C31   C     C_R   0.540238 0.266038 0.565441 0.109019
C32   C     C_R   0.815064 0.119795 0.088223 -0.121815
C33   C     C_R   0.890486 0.218889 0.185940 -0.135406
C34   C     C_R   0.713442 0.038473 0.544670 0.055941
C35   C     C_R   0.854243 0.285913 0.234262 0.119583
C36   C     C_R   0.741466 0.252785 0.181556 -0.172796
C37   C     C_R   0.666386 0.153777 0.083489 -0.113250
C38   C     C_R   0.703090 0.087179 0.037136 -0.103341
C39   C     C_R   0.933936 0.484858 0.352483 -0.249405
C40   C     C_R   0.246954 0.312203 0.720910 -0.121029
C41   C     C_R   0.009213 0.582414 0.452070 0.072454
C42   C     C_R   0.088546 0.587610 0.540579 0.016998
C43   C     C_R   0.089908 0.494377 0.527170 -0.240144
C44   C     C_R   0.010900 0.395609 0.430896 0.061711
C45   C     C_R   0.702785 0.694628 0.286141 -0.160238
C46   C     C_R   0.933783 0.389398 0.340347 0.020840
C47   C     C_R   0.280009 0.734717 0.692369 -0.184626
C48   C     C_R   0.352728 0.826911 0.796404 -0.113945
C49   C     C_R   0.311621 0.869020 0.861130 -0.109539
C50   C     C_R   0.197692 0.818771 0.822042 -0.119486
C51   C     C_R   0.124507 0.726967 0.717662 -0.114440
C52   C     C_R   0.746895 0.967751 0.562363 -0.135351
C53   C     C_R   0.165254 0.684964 0.651676 0.108835
C54   C     C_2   0.364857 0.519450 0.933395 -0.124088
C55   C     C_2   0.320726 0.421374 0.925141 -0.193635
C56   C     C_R   0.307920 0.102465 0.510929 -0.155298
C57   C     C_2   0.462538 0.614144 0.034876 -0.118369
C58   C     C_2   0.533154 0.601002 0.104861 -0.206561
C59   C     C_R   0.396382 0.218093 0.115157 -0.114765
C60   C     C_R   0.306518 0.115016 0.071837 -0.190018
C61   C     C_R   0.199377 0.098938 0.037485 0.116845
C62   C     C_R   0.183777 0.187722 0.049213 -0.123905
C63   C     C_R   0.274147 0.291075 0.094600 -0.137953
C64   C     C_R   0.910021 0.210322 0.408339 -0.126037
C65   C     C_R   0.380293 0.306195 0.127043 -0.119494
C66   C     C_R   0.110175 0.970823 0.086430 -0.227465
C67   C     C_R   0.093518 0.780783 0.527929 -0.111171
C68   C     C_R   0.012510 0.904476 0.079588 0.054076
C69   C     C_R   0.917828 0.828498 0.976074 0.015362
C70   C     C_R   0.915989 0.840429 0.886055 -0.251302
C71   C     C_R   0.007077 0.927818 0.900817 0.056354
C72   C     C_R   0.105984 0.993216 0.003312 0.004394
C73   C     C_R   0.846012 0.662024 0.992891 -0.123126
C74   C     C_R   0.759878 0.573163 0.980380 -0.112770
C75   C     C_R   0.652797 0.555921 0.936983 -0.076540
C76   C     C_R   0.090756 0.000516 0.800456 -0.133086
C77   C     C_R   0.631933 0.627976 0.906840 -0.109893
C78   C     C_R   0.911534 0.933328 0.188081 -0.126003
C79   C     C_R   0.717741 0.716525 0.918792 -0.209768
C80   C     C_R   0.825412 0.734001 0.961213 0.132610
C81   C     C_R   0.000879 0.949242 0.810445 0.053675
C82   C     C_R   0.095083 0.021296 0.282855 -0.125497
H1    H     H_    0.823970 0.852371 0.685140 0.110052
H2    H     H_    0.477616 0.676321 0.541690 0.104694
H3    H     H_    0.470052 0.825120 0.510549 0.117019
H4    H     H_    0.178958 0.351265 0.521710 0.095406
H5    H     H_    0.749393 0.061698 0.834380 0.126773
H6    H     H_    0.757443 0.912838 0.863500 0.115438
H7    H     H_    0.499214 0.036916 0.713654 0.124797
H8    H     H_    0.683471 0.204577 0.543326 0.124841
H9    H     H_    0.538042 0.209019 0.410191 0.109419
H10   H     H_    0.509631 0.348334 0.375340 0.115707
H11   H     H_    0.493370 0.484168 0.507878 0.097092
H12   H     H_    0.333243 0.160706 0.484776 0.119532
H13   H     H_    0.506276 0.480818 0.676449 0.109438
H14   H     H_    0.537249 0.343694 0.714687 0.114036
H15   H     H_    0.644766 0.010321 0.961676 0.106520
H16   H     H_    0.256163 0.200804 0.877070 0.128605
H17   H     H_    0.843558 0.068284 0.052336 0.108269
H18   H     H_    0.977031 0.243043 0.224209 0.112686
H19   H     H_    0.711305 0.302534 0.217275 0.102968
H20   H     H_    0.579581 0.128338 0.043779 0.100425
H21   H     H_    0.875550 0.483565 0.284946 0.129552
H22   H     H_    0.147228 0.497773 0.597341 0.131322
H23   H     H_    0.179534 0.804699 0.558134 0.113307
H24   H     H_    0.312826 0.702983 0.642820 0.121565
H25   H     H_    0.440913 0.865636 0.826779 0.111842
H26   H     H_    0.368167 0.940292 0.941704 0.095614
H27   H     H_    0.166096 0.850909 0.872638 0.117823
H28   H     H_    0.730228 0.108822 0.436612 0.091825
H29   H     H_    0.036395 0.688969 0.688017 0.114385
H30   H     H_    0.342950 0.528531 0.861472 0.117409
H31   H     H_    0.337483 0.414039 0.997793 0.135307
H32   H     H_    0.484654 0.693919 0.042974 0.122126
H33   H     H_    0.514442 0.521618 0.096192 0.125446
H34   H     H_    0.826979 0.884156 0.123191 0.111346
H35   H     H_    0.450161 0.386308 0.162188 0.093720
H36   H     H_    0.478710 0.230065 0.141251 0.100253
H37   H     H_    0.320272 0.048029 0.066181 0.107248
H38   H     H_    0.102218 0.177365 0.026058 0.110928
H39   H     H_    0.261897 0.359602 0.105361 0.113426
H40   H     H_    0.255820 0.374966 0.699261 0.088732
H41   H     H_    0.186718 0.023006 0.163373 0.127799
H42   H     H_    0.843107 0.783618 0.806103 0.131516
H43   H     H_    0.928653 0.674474 0.026754 0.108917
H44   H     H_    0.776195 0.517755 0.004460 0.109877
H45   H     H_    0.181122 0.049745 0.308784 0.099625
H46   H     H_    0.586178 0.487272 0.927476 0.107968
H47   H     H_    0.549360 0.615657 0.874805 0.105289
H48   H     H_    0.701131 0.773878 0.899772 0.108008
H49   H     H_    0.743213 0.936891 0.616575 0.134463
H50   H     H_    0.825177 0.183119 0.354562 0.104058
H51   H     H_    0.174102 0.019527 0.847238 0.109366
H52   H     H_    0.673200 0.638103 0.313401 0.090590
H53   H     H_    0.823792 0.619142 0.400533 0.097793
H54   H     H_    0.672823 0.815964 0.141951 0.085308
H55   H     H_    0.331826 0.990776 0.664024 0.095639
H56   H     H_    0.622143 0.718901 0.715683 0.107922
N1    N     N_R   0.941940 0.944580 0.650780 -0.040205
N2    N     N_R   0.204460 0.150250 0.707090 -0.042205
N3    N     N_R   0.794270 0.003240 0.446420 -0.041641
N4    N     N_R   0.204920 0.207570 0.650770 -0.043033
N5    N     N_R   0.793810 0.945920 0.502740 -0.043329
N6    N     N_R   0.943620 0.152590 0.446420 -0.039794
N7    N     N_R   0.055110 0.000900 0.707100 -0.038815
N8    N     N_R   0.795080 0.792430 0.349230 -0.039001
N9    N     N_R   0.206190 0.054080 0.497260 -0.041147
N10   N     N_R   0.056380 0.847410 0.553580 -0.041664
N11   N     N_R   0.944890 0.999100 0.292900 -0.042228
N12   N     N_R   0.058060 0.055420 0.349220 -0.041618
N13   N     N_R   0.943200 0.791100 0.497260 -0.039590
N14   N     N_R   0.795540 0.849750 0.292910 -0.045352
N15   N     N_R   0.205730 0.996760 0.553580 -0.040333
N16   N     N_R   0.056800 0.208900 0.502740 -0.036500
Ni1   Ni    Ni4+2 0.869690 0.869690 0.500000 0.212752
Ni2   Ni    Ni4+2 0.130310 0.130310 0.500000 0.211975
Ni3   Ni    Ni4+2 0.129250 0.998840 0.629170 0.215676
Ni4   Ni    Ni4+2 0.870750 0.001160 0.370830 0.214489

loop_
_geom_bond_atom_site_label_1
_geom_bond_atom_site_label_2
_ccdc_geom_bond_type
C25   C31   A    
C4    N16   A    
C63   C65   A    
C6    C45   A    
C40   N4    A    
C27   C29   A    
C73   C74   A    
C6    C58   S    
C66   C68   A    
C35   C36   A    
N10   N13   A    
C3    C6    A    
C39   C41   A    
C74   H44   S    
C11   H3    S    
C56   H12   S    
C9    C78   A    
C45   H52   S    
C37   C38   A    
C18   C24   A    
C36   C37   A    
N2    N4    A    
C14   H5    S    
C18   C19   A    
N3    N5    A    
C42   C53   S    
C37   H20   S    
C12   C64   A    
C73   H43   S    
C48   H25   S    
C4    H4    S    
C10   C17   A    
C1    C81   A    
C23   C40   A    
C60   H37   S    
C75   H46   S    
C41   C42   A    
C43   H22   S    
C30   H14   S    
C34   C52   A    
C66   C72   A    
N8    Ni1   S    
C64   H50   S    
C68   C69   A    
C17   H56   S    
C32   C38   A    
C4    C12   A    
C29   C30   A    
N11   Ni4   S    
C62   H38   S    
C61   C62   A    
C1    N1    A    
C9    C82   A    
C47   C53   A    
C28   C34   A    
C59   C60   A    
N12   Ni2   S    
C13   C14   A    
N15   Ni3   S    
C52   H49   S    
C16   N2    A    
C7    C56   A    
C38   H15   S    
C63   H39   S    
C44   C46   A    
C49   H26   S    
C21   H8    S    
C77   C79   A    
C22   C34   S    
N14   Ni4   S    
C25   H9    S    
C52   N5    A    
C74   C75   A    
C45   N8    A    
C8    C41   S    
C29   H13   S    
C67   H23   S    
C64   N6    A    
C28   H28   S    
C25   C26   A    
C79   H48   S    
C50   H27   S    
C13   C24   S    
C36   H19   S    
C51   C53   A    
C43   C44   A    
C62   C63   A    
N2    Ni3   S    
N7    Ni3   S    
N5    Ni1   S    
C47   C48   A    
N1    Ni1   S    
C47   H24   S    
C50   C51   A    
C3    N14   A    
C54   H30   S    
C77   H47   S    
C5    H55   S    
N9    Ni2   S    
C75   C77   A    
C70   C71   A    
C39   C46   A    
N8    N14   A    
C61   C72   S    
C48   C49   A    
C76   N7    A    
C16   C23   A    
N13   Ni1   S    
C26   C27   A    
C58   H33   S    
C22   C24   A    
C27   H11   S    
C1    H1    S    
C42   C43   A    
N6    Ni4   S    
C3    H54   S    
C40   H40   S    
C5    C7    A    
C2    N13   A    
C15   C17   A    
C54   C55   D    
N1    N7    A    
C51   H29   S    
C66   H41   S    
C18   H7    S    
N16   Ni2   S    
C78   H34   S    
C82   N12   A    
C76   C81   A    
C76   H51   S    
C39   H21   S    
C57   H32   S    
C23   C55   S    
C59   H36   S    
C55   H31   S    
C7    C19   S    
C2    H53   S    
C32   H17   S    
C33   H18   S    
C32   C33   A    
C19   C20   A    
C9    C68   S    
C71   C72   A    
C12   C44   S    
N11   N12   A    
C59   C65   A    
C11   C13   A    
C16   H16   S    
C57   C58   D    
C30   C31   A    
C56   N9    A    
C5    N15   A    
C10   H2    S    
C33   C35   A    
C73   C80   A    
N10   Ni3   S    
N6    N16   A    
C69   C70   A    
N9    N15   A    
C82   H45   S    
C10   C11   A    
C79   C80   A    
C70   H42   S    
N3    Ni4   S    
C20   C21   A    
C8    C67   A    
C49   C50   A    
C2    C8    A    
C67   N10   A    
C65   H35   S    
C14   C15   A    
C60   C61   A    
C69   C80   S    
C28   N3    A    
N4    Ni2   S    
C21   C22   A    
C35   C46   S    
C26   H10   S    
C54   C57   S    
C78   N11   A    
C15   H6    S    
C71   C81   S    
C20   C31   S    
