data_mof_unit_40550.cif
_audit_creation_date              2013-03-05T15:46:01-0500
_audit_creation_method            fapswitch 2.2
_symmetry_space_group_name_H-M    P1
_symmetry_Int_Tables_number       1
_space_group_crystal_system       triclinic
_cell_length_a                    17.336451
_cell_length_b                    24.379335
_cell_length_c                    14.919006
_cell_angle_alpha                 90.601173
_cell_angle_beta                  125.419355
_cell_angle_gamma                 88.919301
_cell_volume                      5137.66785755

loop_
_atom_site_label
_atom_site_type_symbol
_atom_site_description
_atom_site_fract_x
_atom_site_fract_y
_atom_site_fract_z
_atom_type_partial_charge
C1    C     C_R   0.310856 0.128697 0.905271 -0.132646
C2    C     C_R   0.312263 0.872173 0.904833 -0.102893
C3    C     C_R   0.808759 0.625610 0.906613 -0.130715
C4    C     C_R   0.809179 0.376477 0.906680 -0.109954
H1    H     H_    0.252636 0.132798 0.819815 0.104273
H2    H     H_    0.256600 0.863949 0.819616 0.117194
H3    H     H_    0.750535 0.630316 0.821319 0.105444
H4    H     H_    0.752945 0.367793 0.821909 0.119060
N1    N     N_R   0.392140 0.102630 0.941800 -0.052876
N2    N     N_R   0.392140 0.897370 0.941800 -0.048764
N3    N     N_R   0.892140 0.602630 0.941800 -0.053154
N4    N     N_R   0.892140 0.397370 0.941800 -0.046681
C5    C     C_R   0.407950 0.866584 0.089703 -0.080241
C6    C     C_R   0.406328 0.134470 0.089247 -0.105669
C7    C     C_R   0.903163 0.374116 0.091874 -0.057619
C8    C     C_R   0.901873 0.626945 0.091538 -0.089374
H5    H     H_    0.440009 0.849628 0.170649 0.133147
H6    H     H_    0.436953 0.148851 0.171537 0.110571
H7    H     H_    0.932273 0.363649 0.176196 0.127473
H8    H     H_    0.928878 0.632971 0.176690 0.104691
N5    N     N_R   0.450890 0.896450 0.057150 -0.039420
N6    N     N_R   0.450890 0.103550 0.057150 -0.042046
N7    N     N_R   0.950890 0.396450 0.057150 -0.038435
N8    N     N_R   0.950890 0.603550 0.057150 -0.043188
C9    C     C_R   0.495006 0.045825 0.265858 -0.092359
C10   C     C_R   0.495166 0.954819 0.265134 -0.092513
C11   C     C_R   0.046726 0.545283 0.303380 -0.115578
C12   C     C_R   0.046216 0.454460 0.302242 -0.111425
H9    H     H_    0.497019 0.087483 0.290946 0.106747
H10   H     H_    0.496914 0.913065 0.288360 0.110524
H11   H     H_    0.064574 0.587166 0.331438 0.132781
H12   H     H_    0.063570 0.412228 0.328585 0.136548
N9    N     N_R   0.525160 0.027960 0.206160 -0.042166
N10   N     N_R   0.525160 0.972040 0.206160 -0.039795
N11   N     N_R   0.025160 0.527960 0.206160 -0.046653
N12   N     N_R   0.025160 0.472040 0.206160 -0.046265
C13   C     C_R   0.245875 0.954079 0.695169 -0.148211
C14   C     C_R   0.244800 0.045634 0.694284 -0.146820
C15   C     C_R   0.745646 0.454092 0.695279 -0.143137
C16   C     C_R   0.744580 0.545660 0.694444 -0.145463
H13   H     H_    0.234524 0.911665 0.669724 0.104794
H14   H     H_    0.231444 0.087836 0.667313 0.095181
H15   H     H_    0.734091 0.411663 0.669879 0.107905
H16   H     H_    0.731092 0.587882 0.667564 0.098487
N13   N     N_R   0.317870 0.971120 0.792790 -0.038800
N14   N     N_R   0.317870 0.028880 0.792790 -0.039034
N15   N     N_R   0.817870 0.471120 0.792790 -0.038921
N16   N     N_R   0.817870 0.528880 0.792790 -0.039609
C17   C     C_R   0.316056 0.147362 0.996511 0.065107
C18   C     C_R   0.320197 0.854040 0.996363 0.028549
C19   C     C_R   0.811561 0.640343 0.998622 0.061141
C20   C     C_R   0.814579 0.361398 0.998945 0.015980
C21   C     C_R   0.467888 0.000581 0.295652 0.004366
C22   C     C_R   0.061698 0.499739 0.366458 0.013965
C23   C     C_R   0.199513 0.999719 0.631075 0.002874
C24   C     C_R   0.698987 0.499756 0.631400 0.002375
C25   C     C_R   0.449893 0.045567 0.696644 -0.077690
C26   C     C_R   0.449889 0.954499 0.695979 -0.107360
C27   C     C_R   0.018710 0.545044 0.751246 -0.083438
C28   C     C_R   0.019716 0.453563 0.752057 -0.118322
H17   H     H_    0.432798 0.087920 0.670950 0.083802
H18   H     H_    0.432874 0.912385 0.669217 0.104887
H19   H     H_    0.027422 0.587376 0.739592 0.103450
H20   H     H_    0.030516 0.410776 0.742657 0.106094
N17   N     N_R   0.473480 0.027920 0.793480 -0.039547
N18   N     N_R   0.473480 0.972080 0.793480 -0.041458
N19   N     N_R   0.973480 0.527920 0.793480 -0.046790
N20   N     N_R   0.973480 0.472080 0.793480 -0.041964
C29   C     C_R   0.768475 0.953638 0.244947 -0.114690
C30   C     C_R   0.768128 0.045255 0.245621 -0.069287
C31   C     C_R   0.268356 0.453611 0.244630 -0.123782
C32   C     C_R   0.267880 0.545279 0.244659 -0.064538
H21   H     H_    0.790900 0.911586 0.258192 0.165971
H22   H     H_    0.790702 0.087013 0.262489 0.144527
H23   H     H_    0.290665 0.411506 0.257802 0.165033
H24   H     H_    0.290027 0.587164 0.259904 0.142108
N21   N     N_R   0.681610 0.971120 0.207570 -0.036786
N22   N     N_R   0.681610 0.028880 0.207570 -0.038318
N23   N     N_R   0.181610 0.471120 0.207570 -0.037320
N24   N     N_R   0.181610 0.528880 0.207570 -0.036752
C33   C     C_R   0.656351 0.148095 0.091494 0.337938
C34   C     C_R   0.643624 0.846873 0.091633 0.328922
C35   C     C_R   0.151863 0.649645 0.092121 0.356281
C36   C     C_R   0.142779 0.346726 0.091795 0.333058
N25   N     N_R   0.605410 0.102620 0.056870 -0.089301
N26   N     N_R   0.605410 0.897380 0.056870 -0.092068
N27   N     N_R   0.105410 0.602620 0.056870 -0.086516
N28   N     N_R   0.105410 0.397380 0.056870 -0.090918
C37   C     C_R   0.556285 0.846915 0.910043 -0.137660
C38   C     C_R   0.570438 0.146334 0.908076 -0.119899
C39   C     C_R   0.054371 0.346445 0.910361 -0.167951
C40   C     C_R   0.062346 0.649955 0.909271 -0.132218
H25   H     H_    0.513469 0.835762 0.824425 0.171350
H26   H     H_    0.533454 0.158692 0.823005 0.119852
H27   H     H_    0.009735 0.334723 0.825143 0.172644
H28   H     H_    0.022378 0.663820 0.824841 0.113818
N29   N     N_R   0.549680 0.896430 0.944180 -0.073351
N30   N     N_R   0.549680 0.103570 0.944180 -0.066029
N31   N     N_R   0.049680 0.396430 0.944180 -0.071433
N32   N     N_R   0.049680 0.603570 0.944180 -0.060270
Ni1   Ni    Ni4+2 0.433410 0.064680 0.868830 0.207278
Ni2   Ni    Ni4+2 0.433410 0.935320 0.868830 0.227489
Ni3   Ni    Ni4+2 0.933410 0.564680 0.868830 0.211599
Ni4   Ni    Ni4+2 0.933410 0.435320 0.868830 0.233577
Ni5   Ni    Ni4+2 0.565650 0.934380 0.131170 0.305598
Ni6   Ni    Ni4+2 0.565650 0.065620 0.131170 0.300585
Ni7   Ni    Ni4+2 0.065650 0.434380 0.131170 0.295699
Ni8   Ni    Ni4+2 0.065650 0.565620 0.131170 0.292438
C41   C     C_R   0.431702 0.000110 0.631942 0.036678
C42   C     C_R   0.050673 0.498900 0.726090 0.044065
C43   C     C_R   0.824797 0.999081 0.270532 -0.051871
C44   C     C_R   0.324606 0.499077 0.269892 -0.050170
C45   C     C_R   0.638127 0.174495 0.000038 -0.045828
C46   C     C_R   0.610321 0.812589 0.000603 -0.075299
C47   C     C_R   0.127167 0.678807 0.000927 -0.062100
C48   C     C_R   0.108066 0.312343 0.000863 -0.071554
C49   C     C_3   0.036670 0.001754 0.567303 -0.382892
C50   C     C_3   0.082065 0.049584 0.454834 -0.404728
C51   C     C_3   0.535891 0.501719 0.567160 -0.385993
C52   C     C_3   0.581650 0.549709 0.455236 -0.400190
H29   H     H_    0.050832 0.966068 0.621212 0.166290
H30   H     H_    0.129660 0.048411 0.427435 0.166291
H31   H     H_    0.550029 0.466040 0.621071 0.164848
H32   H     H_    0.629341 0.548606 0.427986 0.166161
H33   H     H_    0.049318 0.039646 0.616210 0.174036
H34   H     H_    0.094572 0.088680 0.499980 0.165483
H35   H     H_    0.548307 0.539620 0.615956 0.172664
H36   H     H_    0.594064 0.588767 0.500464 0.165700
C53   C     C_3   0.933902 0.001149 0.468343 -0.367830
C54   C     C_3   0.977870 0.049322 0.354258 -0.355755
C55   C     C_3   0.433195 0.501005 0.467885 -0.369603
C56   C     C_3   0.477558 0.549495 0.354500 -0.362193
H37   H     H_    0.897113 0.038538 0.470579 0.183145
H38   H     H_    0.944384 0.088528 0.354386 0.175955
H39   H     H_    0.396104 0.538275 0.469993 0.180761
H40   H     H_    0.443976 0.588612 0.354869 0.175050
H41   H     H_    0.898818 0.964985 0.474405 0.177279
H42   H     H_    0.973962 0.047982 0.277148 0.182852
H43   H     H_    0.398182 0.464723 0.473685 0.174667
H44   H     H_    0.473804 0.548385 0.277480 0.180079
H45   H     H_    0.095480 0.909218 0.509151 0.164123
H46   H     H_    0.130841 0.944148 0.433281 0.166567
H47   H     H_    0.594837 0.409300 0.509221 0.164362
H48   H     H_    0.630821 0.444201 0.433940 0.168146
H49   H     H_    0.946132 0.908763 0.363197 0.178999
H50   H     H_    0.975334 0.944626 0.282462 0.170843
H51   H     H_    0.445886 0.408831 0.362386 0.178394
H52   H     H_    0.475667 0.444996 0.282508 0.169575
C57   C     C_3   0.082949 0.946601 0.460208 -0.392560
C58   C     C_3   0.582618 0.446689 0.460411 -0.388588
C59   C     C_3   0.102920 0.999438 0.529536 0.360633
C60   C     C_3   0.602399 0.499493 0.529761 0.359350
C61   C     C_3   0.926926 0.998952 0.359857 0.340754
C62   C     C_3   0.426605 0.499001 0.359592 0.346278
C63   C     C_3   0.978974 0.946498 0.359380 -0.379277
C64   C     C_3   0.478859 0.446654 0.359155 -0.382421
C65   C     C_R   0.276329 0.760584 0.955802 -0.259289
C66   C     C_R   0.155375 0.190818 0.895723 -0.285218
C67   C     C_R   0.785989 0.265377 0.966678 -0.255632
C68   C     C_R   0.652288 0.685839 0.897080 -0.279083
H53   H     H_    0.322280 0.755881 0.928785 0.197965
H54   H     H_    0.138084 0.175549 0.817961 0.163929
H55   H     H_    0.836567 0.263415 0.946004 0.196930
H56   H     H_    0.633562 0.669169 0.819605 0.162476
C69   C     C_R   0.745448 0.217972 0.968986 0.347380
C70   C     C_R   0.593612 0.726008 0.896737 0.357631
C71   C     C_R   0.232642 0.715671 0.960997 0.347805
C72   C     C_R   0.092551 0.227127 0.896388 0.351954
C73   C     C_R   0.682165 0.222288 0.998807 -0.004554
C74   C     C_R   0.624709 0.752309 0.997090 0.005962
C75   C     C_R   0.175691 0.723707 0.999226 -0.004812
C76   C     C_R   0.121875 0.252248 0.997034 0.015370
C77   C     C_R   0.659926 0.272426 0.025821 -0.105016
C78   C     C_R   0.689916 0.723568 0.094500 -0.130227
C79   C     C_R   0.162989 0.774840 0.032169 -0.095057
C80   C     C_R   0.189703 0.224263 0.094071 -0.130580
H57   H     H_    0.610414 0.274771 0.047941 0.146138
H58   H     H_    0.701169 0.733594 0.171285 0.199476
H59   H     H_    0.118009 0.780027 0.060317 0.151206
H60   H     H_    0.200263 0.233029 0.171027 0.198653
C81   C     C_R   0.210094 0.819044 0.030320 -0.169242
C82   C     C_R   0.251057 0.187115 0.094010 -0.169029
C83   C     C_R   0.702938 0.319408 0.025691 -0.159070
C84   C     C_R   0.747451 0.683083 0.095185 -0.168720
H61   H     H_    0.203699 0.858877 0.058583 0.133443
H62   H     H_    0.309058 0.170042 0.171637 0.124072
H63   H     H_    0.688129 0.358471 0.048504 0.132737
H64   H     H_    0.804316 0.665813 0.173242 0.129891
C85   C     C_R   0.265819 0.811106 0.991980 0.070643
C86   C     C_R   0.240229 0.175457 0.995305 0.089630
C87   C     C_R   0.765263 0.315199 0.995870 0.075980
C88   C     C_R   0.735530 0.668898 0.996907 0.087451
C89   C     C_R   0.391686 0.950953 0.465659 -0.154056
C90   C     C_R   0.390800 0.050360 0.467146 -0.152243
C91   C     C_R   0.103575 0.448837 0.625350 -0.155940
C92   C     C_R   0.106033 0.548098 0.629361 -0.106625
H65   H     H_    0.389157 0.911788 0.497060 0.130478
H66   H     H_    0.387276 0.089458 0.499463 0.117623
H67   H     H_    0.100776 0.409670 0.656555 0.124246
H68   H     H_    0.105690 0.587116 0.664181 0.148633
C93   C     C_R   0.404091 0.951101 0.382340 -0.152594
C94   C     C_R   0.403662 0.050511 0.384179 -0.142854
C95   C     C_R   0.103816 0.449119 0.532818 -0.151705
C96   C     C_R   0.105768 0.548449 0.536408 -0.154600
H69   H     H_    0.408767 0.912032 0.350756 0.122161
H70   H     H_    0.408233 0.089620 0.354175 0.111115
H71   H     H_    0.101660 0.410039 0.496723 0.126110
H72   H     H_    0.105062 0.587687 0.502898 0.132985
C97   C     C_R   0.421950 0.000789 0.351602 0.137564
C98   C     C_R   0.095069 0.499087 0.481592 0.127772
C99   C     C_R   0.397320 0.000498 0.517198 0.112140
C100  C     C_R   0.093722 0.498481 0.666072 0.124273
N33   N     N_R   0.770725 0.166316 0.943814 0.236983
O1    O     O_R   0.782742 0.122300 0.999456 -0.403530
O2    O     O_R   0.793708 0.164599 0.874809 -0.350976
N34   N     N_R   0.502197 0.737436 0.796937 0.224162
O3    O     O_R   0.430171 0.747670 0.800758 -0.392242
O4    O     O_R   0.487494 0.729912 0.701700 -0.393270
N35   N     N_R   0.248602 0.662602 0.930519 0.230481
O5    O     O_R   0.264502 0.619580 0.990230 -0.413438
O6    O     O_R   0.260589 0.658503 0.852271 -0.385744
N36   N     N_R   0.999503 0.236340 0.797406 0.226943
O7    O     O_R   0.928303 0.245761 0.803147 -0.376974
O8    O     O_R   0.983182 0.228405 0.701441 -0.390035
N37   N     N_R   0.696301 0.172296 0.197540 0.211260
O9    O     O_R   0.762025 0.208849 0.235899 -0.391151
O10   O     O_R   0.669920 0.155944 0.258523 -0.418130
N38   N     N_R   0.683928 0.829147 0.201757 0.204611
O11   O     O_R   0.640308 0.840940 0.247036 -0.428193
O12   O     O_R   0.772937 0.814625 0.264614 -0.456286
N39   N     N_R   0.191750 0.672066 0.199539 0.210793
O13   O     O_R   0.254337 0.710534 0.238151 -0.396314
O14   O     O_R   0.168014 0.652588 0.261085 -0.432329
N40   N     N_R   0.181632 0.328934 0.201492 0.205857
O15   O     O_R   0.135540 0.339230 0.244300 -0.438315
O16   O     O_R   0.270675 0.314704 0.266062 -0.458094

loop_
_geom_bond_atom_site_label_1
_geom_bond_atom_site_label_2
_geom_bond_distance
_ccdc_geom_bond_type
C26   H18   1.080220 S    
C35   N27   1.330683 A    
C32   C44   1.384048 A    
C30   N22   1.327497 A    
C26   C41   1.381488 A    
C47   C75   1.402360 S    
N18   Ni2   1.870618 S    
C29   N21   1.329604 A    
N11   N12   1.363295 A    
C8    C19   1.397924 A    
N17   Ni1   1.846609 S    
C92   H68   1.080631 S    
C65   C71   1.371000 A    
N38   O12   1.301907 A    
C11   C22   1.383382 A    
N19   Ni3   1.846609 S    
C54   H38   1.109470 S    
N13   N14   1.408153 A    
C7    H7    1.080899 S    
C52   H32   1.112706 S    
N4    N7    1.402743 A    
C36   C48   1.397887 A    
C54   H42   1.112681 S    
C33   N37   1.434066 S    
C4    C20   1.377891 A    
C13   H13   1.079297 S    
C1    H1    1.077716 S    
C36   N40   1.430504 S    
C68   H56   1.080146 S    
H46   C57   1.112895 S    
N34   O4    1.301510 A    
C14   H14   1.079702 S    
C3    H3    1.077574 S    
C55   H39   1.113944 S    
C66   C86   1.403249 A    
C50   H30   1.112910 S    
C35   C47   1.368727 A    
N1    N6    1.402780 A    
C89   C99   1.399154 A    
C6    C17   1.393917 A    
C91   C95   1.383013 A    
C90   C94   1.379092 A    
N3    N8    1.402780 A    
C40   H28   1.081398 S    
C27   C42   1.386396 A    
C89   C93   1.378904 A    
C39   C48   1.385026 A    
C48   C76   1.485888 S    
C46   C74   1.491440 S    
C82   H62   1.081704 S    
C38   C45   1.369376 A    
C71   N35   1.441251 S    
C25   H17   1.079807 S    
C18   C85   1.397458 S    
N26   N29   1.370314 A    
C49   H29   1.114348 S    
H48   C58   1.112714 S    
N25   N30   1.370294 A    
C2    C18   1.368101 A    
C27   N19   1.332943 A    
C90   C99   1.401472 A    
C81   C85   1.388904 A    
C10   N10   1.329306 A    
H47   C58   1.110784 S    
C25   C41   1.377408 A    
N27   Ni8   1.856777 S    
C96   H72   1.080586 S    
H49   C63   1.110039 S    
H52   C64   1.112672 S    
C16   C24   1.382522 A    
C1    C17   1.383624 A    
C30   H22   1.071621 S    
C56   C62   1.556350 S    
C84   C88   1.397469 A    
C95   C98   1.403312 A    
C29   H21   1.068350 S    
N11   Ni8   1.882418 S    
C68   C70   1.396543 A    
C92   C96   1.384230 A    
C49   C53   1.518474 S    
C4    N4    1.323280 A    
C78   H58   1.070953 S    
C62   C64   1.553188 S    
N29   Ni2   1.884006 S    
C24   C60   1.469816 S    
C4    H4    1.080631 S    
C79   C81   1.374394 A    
C34   N26   1.344772 A    
C7    N7    1.330117 A    
N31   Ni4   1.884006 S    
C8    N8    1.338481 A    
N1    Ni1   1.846552 S    
C58   C64   1.538850 S    
N12   Ni7   1.857893 S    
C9    H9    1.072829 S    
C2    H2    1.080582 S    
N40   O16   1.301718 A    
C93   C97   1.401402 A    
N38   O11   1.300274 A    
C26   N18   1.330730 A    
C33   N25   1.331174 A    
C38   H26   1.081752 S    
C91   H67   1.080783 S    
N33   O2    1.301637 A    
N2    N5    1.402743 A    
C69   C73   1.404654 A    
N14   Ni1   1.863381 S    
C52   C60   1.553277 S    
H50   C63   1.112655 S    
C93   H69   1.080639 S    
H45   C57   1.110684 S    
N19   N20   1.361345 A    
C67   C87   1.395686 A    
C12   H12   1.079257 S    
C12   N12   1.331228 A    
C1    N1    1.330393 A    
N34   O3    1.301966 A    
C34   C46   1.400647 A    
C49   C59   1.544920 S    
C30   C43   1.383596 A    
C78   C84   1.385800 A    
N35   O5    1.301430 A    
N28   Ni7   1.832689 S    
C12   C22   1.378162 A    
C71   C75   1.407659 A    
C17   C86   1.461650 S    
C11   N11   1.336573 A    
N3    Ni3   1.846552 S    
N33   O1    1.301463 A    
N16   Ni3   1.863381 S    
C75   C79   1.395093 A    
N32   Ni3   1.910216 S    
C31   N23   1.329092 A    
C84   H64   1.081303 S    
C37   N29   1.333847 A    
C20   C87   1.411170 S    
C92   C100  1.402778 A    
C80   C82   1.384329 A    
C50   C54   1.540464 S    
C58   C60   1.556518 S    
C83   H63   1.083493 S    
N35   O6    1.301498 A    
C80   H60   1.072391 S    
C51   C55   1.519163 S    
N15   N16   1.408153 A    
C22   C98   1.460736 S    
C8    H8    1.078856 S    
C3    N3    1.332318 A    
N7    Ni7   1.879933 S    
C31   C44   1.388385 A    
C9    N9    1.333844 A    
N9    N10   1.363295 A    
N23   Ni7   1.879731 S    
C32   H24   1.072628 S    
N39   O14   1.300914 A    
C15   C24   1.377175 A    
C7    C20   1.384834 A    
C23   C59   1.469318 S    
H51   C64   1.110003 S    
C43   C61   1.475038 S    
C28   N20   1.335254 A    
N8    Ni8   1.854242 S    
C69   N33   1.441870 S    
C31   H23   1.069127 S    
C10   H10   1.072942 S    
C11   H11   1.079994 S    
C79   H59   1.084041 S    
C66   C72   1.394960 A    
C53   H37   1.113928 S    
N26   Ni5   1.832689 S    
C61   C63   1.553473 S    
N40   O15   1.299985 A    
C94   C97   1.399245 A    
C13   N13   1.323408 A    
N25   Ni6   1.856777 S    
C2    N2    1.318656 A    
C10   C21   1.376441 A    
C65   H53   1.085365 S    
C72   N36   1.437158 S    
C40   N32   1.323842 A    
C14   C23   1.382577 A    
C15   N15   1.323646 A    
N27   N32   1.370294 A    
C74   C78   1.402887 A    
C72   C76   1.412713 A    
C51   C60   1.544789 S    
C16   N16   1.329138 A    
C56   H40   1.109537 S    
C37   C46   1.389384 A    
N36   O8    1.301527 A    
C81   H61   1.083820 S    
N15   Ni4   1.838981 S    
N37   O9    1.300641 A    
C52   C56   1.540059 S    
N10   Ni5   1.857893 S    
C6    H6    1.074474 S    
C55   C62   1.552515 S    
C42   C100  1.460482 S    
N9    Ni6   1.882418 S    
N20   Ni4   1.870618 S    
C96   C98   1.401184 A    
C9    C21   1.381050 A    
C83   C87   1.388527 A    
C45   C73   1.411052 S    
C52   H36   1.110972 S    
N4    Ni4   1.871354 S    
C51   H31   1.114324 S    
C56   H44   1.112684 S    
N30   Ni1   1.910216 S    
C50   H34   1.110938 S    
N24   Ni8   1.854829 S    
C27   H19   1.076181 S    
C5    H5    1.077962 S    
C28   H20   1.078329 S    
C6    N6    1.339250 A    
C57   C59   1.556500 S    
C57   C63   1.539204 S    
C91   C100  1.400055 A    
C32   N24   1.327242 A    
N6    Ni6   1.854242 S    
C5    N5    1.329321 A    
C53   C61   1.551956 S    
C29   C43   1.387951 A    
C90   H66   1.080296 S    
C36   N28   1.344707 A    
C34   N38   1.430775 S    
C28   C42   1.390009 A    
C89   H65   1.080671 S    
N2    Ni2   1.871354 S    
N21   Ni5   1.879731 S    
C5    C18   1.378461 A    
N37   O10   1.301023 A    
C70   C74   1.414417 A    
C3    C19   1.388759 A    
N22   Ni6   1.854829 S    
C54   C61   1.556778 S    
C67   H55   1.085279 S    
C35   N39   1.434078 S    
C37   H25   1.076018 S    
C50   C59   1.553131 S    
C40   C47   1.362323 A    
C65   C85   1.390400 A    
C14   N14   1.329097 A    
N28   N31   1.370314 A    
C55   H43   1.114040 S    
N13   Ni2   1.838981 S    
C66   H54   1.079986 S    
C68   C88   1.403724 A    
C39   H27   1.075738 S    
N23   N24   1.408153 A    
C13   C23   1.377016 A    
C67   C69   1.374902 A    
C16   H16   1.079808 S    
C53   H41   1.114049 S    
C77   C83   1.379087 A    
C21   C97   1.449611 S    
N17   N18   1.361345 A    
C94   H70   1.081040 S    
C15   H15   1.079487 S    
C33   C45   1.373615 A    
N39   O13   1.300478 A    
C73   C77   1.398996 A    
N21   N22   1.408153 A    
C44   C62   1.474706 S    
C95   H71   1.079975 S    
C82   C86   1.399034 A    
C39   N31   1.333068 A    
C77   H57   1.083989 S    
C41   C99   1.450256 S    
C49   H33   1.114394 S    
N36   O7    1.301987 A    
C38   N30   1.325581 A    
N5    Ni5   1.879933 S    
C19   C88   1.466056 S    
C76   C80   1.400462 A    
C70   N34   1.436338 S    
C25   N17   1.327065 A    
C51   H35   1.114368 S    
