data_mof_unit_64250.cif
_audit_creation_date              2013-03-05T16:43:28-0500
_audit_creation_method            fapswitch 2.2
_symmetry_space_group_name_H-M    P1
_symmetry_Int_Tables_number       1
_space_group_crystal_system       triclinic
_cell_length_a                    16.503882
_cell_length_b                    16.949267
_cell_length_c                    17.74818
_cell_angle_alpha                 88.301343
_cell_angle_beta                  89.464722
_cell_angle_gamma                 94.912684
_cell_volume                      4943.91141266

loop_
_atom_site_label
_atom_site_type_symbol
_atom_site_description
_atom_site_fract_x
_atom_site_fract_y
_atom_site_fract_z
_atom_type_partial_charge
O1    O     O_R   0.432070 0.499990 0.608760 -0.533272
O2    O     O_R   0.567930 0.500010 0.391240 -0.533114
O3    O     O_R   0.567880 0.500000 0.608730 -0.568200
O4    O     O_R   0.432120 0.500000 0.391270 -0.568608
C1    C     C_R   0.499643 0.500154 0.644509 0.954408
C2    C     C_R   0.500356 0.499874 0.355492 0.955080
O5    O     O_R   0.424660 0.386070 0.500710 -0.535597
O6    O     O_R   0.575340 0.613930 0.499290 -0.535634
O7    O     O_R   0.560480 0.386080 0.500680 -0.586202
O8    O     O_R   0.439520 0.613920 0.499320 -0.585922
C3    C     C_R   0.489262 0.348456 0.499643 0.944770
C4    C     C_R   0.510737 0.651544 0.500374 0.945306
Cu1   Cu    Cu3+1 0.419580 0.500000 0.500020 1.112590
Cu2   Cu    Cu3+1 0.580420 0.500000 0.499980 1.112753
C5    C     C_R   0.481807 0.261354 0.501044 -0.207178
C6    C     C_R   0.518190 0.738647 0.499021 -0.207137
C7    C     C_R   0.539442 0.222006 0.541462 -0.235233
C8    C     C_R   0.460552 0.778017 0.458630 -0.234968
C9    C     C_R   0.532443 0.139662 0.550241 0.284510
C10   C     C_R   0.467554 0.860363 0.449886 0.284390
C11   C     C_R   0.469068 0.095121 0.513346 0.154949
C12   C     C_R   0.530924 0.904885 0.486805 0.154958
C13   C     C_R   0.409505 0.133893 0.473795 0.195646
C14   C     C_R   0.590477 0.866094 0.526350 0.195664
C15   C     C_R   0.416075 0.217382 0.466928 0.238190
C16   C     C_R   0.583913 0.782601 0.533172 0.238125
N1    N     N_2   0.467023 0.011494 0.510914 -0.108568
N2    N     N_2   0.532977 0.988512 0.489255 -0.108581
H1    H     H_    0.411504 0.744096 0.430862 0.243284
H2    H     H_    0.588485 0.255946 0.569220 0.243146
C17   C     C_R   0.454316 0.551981 0.152635 0.240905
C18   C     C_R   0.545141 0.447723 0.847420 0.240556
C19   C     C_R   0.452768 0.550832 0.231747 0.222474
C20   C     C_R   0.547048 0.449163 0.768307 0.222956
C21   C     C_R   0.501190 0.500054 0.272574 -0.303887
C22   C     C_R   0.498758 0.500007 0.727429 -0.303955
C23   C     C_R   0.551497 0.450787 0.233916 0.235908
C24   C     C_R   0.448360 0.549227 0.766035 0.236272
C25   C     C_R   0.553305 0.452591 0.154586 0.235414
C26   C     C_R   0.446319 0.547282 0.845362 0.235187
C27   C     C_R   0.504290 0.502864 0.114461 -0.213031
C28   C     C_R   0.495107 0.496836 0.885543 -0.212855
C29   C     C_1   0.501179 0.500741 0.033724 0.217523
C30   C     C_1   0.498095 0.498932 0.966288 0.217656
C31   C     C_R   0.176670 0.548757 0.447270 0.241573
C32   C     C_R   0.823314 0.451092 0.552603 0.241586
C33   C     C_R   0.262425 0.549378 0.451457 0.007676
C34   C     C_R   0.737562 0.450483 0.548411 0.008365
H3    H     H_    0.300479 0.589051 0.414614 0.210521
H4    H     H_    0.699498 0.410692 0.585131 0.210650
N3    N     N_R   0.298780 0.499980 0.500030 -0.251985
N4    N     N_R   0.701220 0.500020 0.499970 -0.252063
C35   C     C_R   0.251595 0.448615 0.547044 0.477450
C36   C     C_R   0.748415 0.551464 0.453037 0.477253
C37   C     C_R   0.165195 0.444376 0.544494 -0.245235
C38   C     C_R   0.834817 0.555673 0.455575 -0.245169
C39   C     C_R   0.126588 0.496422 0.495327 -0.063738
C40   C     C_R   0.873410 0.503525 0.504651 -0.063868
C41   C     C_1   0.037083 0.499229 0.498176 0.209308
C42   C     C_1   0.962914 0.500705 0.501801 0.209295
N5    N     N_R   0.289584 0.397841 0.599215 0.115075
O9    O     O_R   0.297495 0.418932 0.668823 -0.320394
O10   O     O_R   0.291623 0.323375 0.584283 -0.306509
N6    N     N_R   0.710434 0.602310 0.400927 0.115097
O11   O     O_R   0.702443 0.581269 0.331311 -0.320164
O12   O     O_R   0.708482 0.676773 0.415908 -0.306513
C43   C     C_2   0.117139 0.384108 0.593192 0.578747
H5    H     H_    0.141034 0.364658 0.646677 0.143637
O13   O     O_2   0.052010 0.352854 0.572691 -0.446333
C44   C     C_2   0.882886 0.615995 0.406941 0.578868
H6    H     H_    0.858957 0.635580 0.353517 0.143630
O14   O     O_2   0.948074 0.647133 0.427426 -0.446483
N7    N     N_R   0.412235 0.897929 0.401131 0.190245
O15   O     O_R   0.438066 0.959251 0.358985 -0.229661
O16   O     O_R   0.339193 0.864896 0.390907 -0.209326
N8    N     N_R   0.587771 0.102120 0.599005 0.190263
O17   O     O_R   0.561953 0.040803 0.641163 -0.229606
O18   O     O_R   0.660810 0.135166 0.609217 -0.209268
N9    N     N_R   0.344844 0.087988 0.437230 0.201523
O19   O     O_R   0.328168 0.103006 0.367008 -0.178493
O20   O     O_R   0.304551 0.028832 0.473111 -0.214533
N10   N     N_R   0.655120 0.911981 0.562955 0.201529
O21   O     O_R   0.671754 0.896940 0.633184 -0.178504
O22   O     O_R   0.695434 0.971147 0.527109 -0.214504
N11   N     N_R   0.357134 0.256874 0.424175 0.179853
O23   O     O_R   0.279769 0.240731 0.437683 -0.219746
O24   O     O_R   0.380535 0.306164 0.369054 -0.291265
N12   N     N_R   0.642845 0.743089 0.575918 0.179865
O25   O     O_R   0.720215 0.759281 0.562467 -0.219665
O26   O     O_R   0.619431 0.693748 0.630994 -0.291128
N13   N     N_R   0.407552 0.605559 0.110958 0.184041
O27   O     O_R   0.444033 0.660241 0.066637 -0.233926
O28   O     O_R   0.328630 0.594045 0.110512 -0.180416
N14   N     N_R   0.591586 0.393862 0.889127 0.183770
O29   O     O_R   0.554892 0.339832 0.934009 -0.234624
O30   O     O_R   0.670598 0.404104 0.888557 -0.179551
N15   N     N_R   0.407256 0.606050 0.270323 0.155049
O31   O     O_R   0.444608 0.659211 0.311970 -0.351678
O32   O     O_R   0.328592 0.603180 0.264313 -0.236812
N16   N     N_R   0.592808 0.394157 0.729750 0.155688
O33   O     O_R   0.555604 0.340421 0.688629 -0.350652
O34   O     O_R   0.671622 0.398269 0.734723 -0.238376
N17   N     N_R   0.600742 0.398769 0.274949 0.178851
O35   O     O_R   0.678587 0.401268 0.261583 -0.224635
O36   O     O_R   0.567427 0.346731 0.323735 -0.308873
N18   N     N_R   0.399262 0.601344 0.724950 0.178900
O37   O     O_R   0.321399 0.598934 0.738191 -0.224670
O38   O     O_R   0.432725 0.653352 0.676214 -0.308978
N19   N     N_R   0.603089 0.401587 0.114898 0.183834
O39   O     O_R   0.598917 0.326100 0.131758 -0.189183
O40   O     O_R   0.653652 0.430693 0.062495 -0.233826
N20   N     N_R   0.396523 0.598315 0.885000 0.183632
O41   O     O_R   0.400866 0.673829 0.868236 -0.189398
O42   O     O_R   0.345772 0.569207 0.937250 -0.233282
N21   N     N_R   0.142027 0.600199 0.392848 0.172085
O43   O     O_R   0.078252 0.574941 0.355120 -0.264466
O44   O     O_R   0.180750 0.667806 0.372839 -0.219475
N22   N     N_R   0.857942 0.399536 0.606929 0.172212
O45   O     O_R   0.921641 0.424752 0.644781 -0.264263
O46   O     O_R   0.819241 0.331865 0.626762 -0.219508

loop_
_geom_bond_atom_site_label_1
_geom_bond_atom_site_label_2
_geom_bond_distance
_ccdc_geom_bond_type
C18   N14   1.435008 S    
C27   C29   1.435748 S    
N7    O15   1.301376 A    
O7    Cu2   1.930376 S    
N20   O42   1.300967 A    
N15   O31   1.300441 A    
C33   H3    1.080783 S    
N11   O23   1.301225 A    
O5    C3    1.288537 A    
C31   C39   1.419128 A    
C36   N6    1.430753 S    
O1    C1    1.288049 A    
N8    O18   1.301576 A    
C9    N8    1.438528 S    
C9    C11   1.414055 A    
C14   C16   1.411507 A    
N19   O40   1.300973 A    
C39   C41   1.482449 S    
N18   O37   1.301170 A    
C40   C42   1.482449 S    
N21   O43   1.300946 A    
C1    C22   1.471536 S    
C38   C44   1.488523 S    
C2    C21   1.471500 S    
C32   N22   1.437260 S    
C8    C10   1.394506 A    
C31   C33   1.417092 A    
O4    Cu1   1.939255 S    
N5    O10   1.300501 A    
C14   N10   1.437350 S    
N22   O45   1.300942 A    
C19   C21   1.412813 A    
Cu1   N3    1.993640 S    
C3    C5    1.470350 S    
Cu2   N4    1.993638 S    
C4    C6    1.470379 S    
N21   O44   1.301463 A    
C20   N16   1.434091 S    
C17   C19   1.403606 A    
C44   H6    1.084433 S    
C20   C22   1.412640 A    
C34   H4    1.080717 S    
C11   N1    1.416874 S    
C41   C42   1.227604 T    
C12   N2    1.416875 S    
Cu1   Cu2   2.654478 S    
C32   C40   1.419103 A    
C7    H2    1.083158 S    
N7    O16   1.301576 A    
O2    C2    1.288083 A    
C28   C30   1.435770 S    
N16   O34   1.300586 A    
N20   O41   1.301208 A    
N15   O32   1.300502 A    
N4    C36   1.374522 A    
C25   N19   1.437184 S    
C32   C34   1.417053 A    
C35   C37   1.422803 A    
C6    C16   1.414060 A    
C36   C38   1.422843 A    
N11   O24   1.301300 A    
C43   H5    1.084430 S    
N8    O17   1.301377 A    
O4    C2    1.287856 A    
N13   O27   1.300997 A    
N9    O20   1.301185 A    
C33   N3    1.362751 A    
C43   O13   1.220484 D    
C18   C20   1.403605 A    
C24   N18   1.436687 S    
C29   C30   1.199608 T    
N13   O28   1.300557 A    
C31   N21   1.437301 S    
C34   N4    1.362703 A    
O6    C4    1.288545 A    
C15   N11   1.437092 S    
N14   O29   1.301020 A    
N17   O36   1.301047 A    
C8    H1    1.083147 S    
N14   O30   1.300595 A    
O7    C3    1.288880 A    
O3    Cu2   1.939257 S    
O8    C4    1.288887 A    
C16   N12   1.437107 S    
C10   C12   1.414047 A    
N10   O22   1.301184 A    
C37   C39   1.416568 A    
C12   C14   1.409647 A    
O1    Cu1   1.942825 S    
C35   N5    1.430755 S    
C22   C24   1.413983 A    
N17   O35   1.301158 A    
C23   N17   1.436661 S    
C5    C7    1.398989 A    
O6    Cu2   1.939691 S    
C17   C27   1.404604 A    
C21   C23   1.414018 A    
N12   O26   1.301299 A    
O3    C1    1.287926 A    
O8    Cu1   1.930373 S    
C37   C43   1.488485 S    
C17   N13   1.434703 S    
C13   N9    1.437358 S    
N6    O11   1.300889 A    
C11   C13   1.409651 A    
C23   C25   1.407367 A    
N19   O39   1.301194 A    
C24   C26   1.407347 A    
C26   N20   1.437177 S    
N18   O38   1.301045 A    
C26   C28   1.407289 A    
N16   O33   1.300452 A    
C7    C9    1.394520 A    
C38   C40   1.416591 A    
C10   N7    1.438526 S    
C19   N15   1.434453 S    
C13   C15   1.411492 A    
N5    O9    1.300892 A    
O2    Cu2   1.942825 S    
N22   O46   1.301467 A    
C5    C15   1.414039 A    
N9    O19   1.301334 A    
O5    Cu1   1.939691 S    
N12   O25   1.301224 A    
C25   C27   1.407283 A    
C6    C8    1.398988 A    
N10   O21   1.301335 A    
N1    N2    1.248203 D    
C18   C28   1.404752 A    
C44   O14   1.220488 D    
N3    C35   1.374515 A    
N6    O12   1.300501 A    
