data_mof_unit_60591.cif
_audit_creation_date              2012-12-10T17:52:53-0500
_audit_creation_method            fapswitch 2.2
_symmetry_space_group_name_H-M    P1
_symmetry_Int_Tables_number       1
_space_group_crystal_system       triclinic
_cell_length_a                    18.677602
_cell_length_b                    18.652611
_cell_length_c                    18.776194
_cell_angle_alpha                 109.539886
_cell_angle_beta                  109.275812
_cell_angle_gamma                 109.285246
_cell_volume                      5054.85892042

loop_
_atom_site_label
_atom_site_type_symbol
_atom_type_description
_atom_site_fract_x
_atom_site_fract_y
_atom_site_fract_z
_atom_type_partial_charge
C1    C     C_R   0.120502 0.120518 0.500065 0.867826
C2    C     C_R   0.302001 0.336604 0.573456 0.404815
C3    C     C_R   0.237571 0.272132 0.572517 -0.174495
C4    C     C_R   0.120208 0.999816 0.619377 0.954778
C5    C     C_R   0.187200 0.187337 0.500494 -0.109609
C6    C     C_R   0.750465 0.921003 0.235814 -0.206895
C7    C     C_R   0.686031 0.919695 0.171297 0.373418
C8    C     C_R   0.685810 0.998305 0.184845 -0.095301
C9    C     C_R   0.748652 0.077009 0.262192 -0.230720
C10   C     C_R   0.811577 0.077499 0.327279 -0.161911
C11   C     C_R   0.812674 0.999599 0.313678 -0.089165
C12   C     C_R   0.265924 0.080980 0.746825 -0.058258
C13   C     C_R   0.808361 0.732151 0.478547 -0.112965
C14   C     C_R   0.745005 0.669165 0.479987 -0.228611
C15   C     C_R   0.685704 0.687279 0.501164 -0.099680
C16   C     C_R   0.879624 0.879635 0.500038 0.914665
C17   C     C_R   0.689773 0.768597 0.522562 0.384044
C18   C     C_R   0.754311 0.832019 0.522551 -0.205693
C19   C     C_R   0.813032 0.813524 0.500099 -0.102202
C20   C     C_R   0.500678 0.880004 0.880636 0.869684
C21   C     C_R   0.379592 0.002583 0.882215 1.007994
C22   C     C_R   0.501927 0.120141 0.122321 0.898728
C23   C     C_R   0.188814 0.001170 0.683649 -0.220573
C24   C     C_R   0.620087 0.999308 0.119541 0.877537
C25   C     C_R   0.500245 0.620798 0.620224 0.939435
C26   C     C_R   0.380134 0.380339 0.500320 0.915158
C27   C     C_R   0.500422 0.380086 0.380203 0.835793
C28   C     C_R   0.879524 0.000083 0.379850 0.880236
C29   C     C_R   0.619941 0.620531 0.500457 0.915559
C30   C     C_R   0.580512 0.809882 0.834032 0.240009
C31   C     C_R   0.578504 0.746133 0.766781 -0.145687
C32   C     C_R   0.501281 0.687990 0.686849 -0.052825
C33   C     C_R   0.425190 0.692695 0.671776 -0.118975
C34   C     C_R   0.174845 0.923006 0.684254 0.334122
C35   C     C_R   0.425965 0.755587 0.737126 -0.168104
C36   C     C_R   0.502925 0.814102 0.816868 -0.075527
C37   C     C_R   0.581030 0.260183 0.256952 -0.169973
C38   C     C_R   0.580674 0.323757 0.321065 -0.164544
C39   C     C_R   0.500993 0.313852 0.314820 -0.002157
C40   C     C_R   0.285662 0.156758 0.738310 -0.193316
C41   C     C_R   0.421788 0.240426 0.246123 -0.175314
C42   C     C_R   0.422281 0.175592 0.183549 -0.109313
C43   C     C_R   0.501852 0.186118 0.188791 0.017778
C44   C     C_R   0.357110 0.237356 0.805959 0.390881
C45   C     C_R   0.239165 0.923953 0.748508 0.317912
C46   C     C_R   0.405882 0.244546 0.884540 -0.197625
C47   C     C_R   0.387671 0.170244 0.893690 0.364359
C48   C     C_R   0.323409 0.085388 0.820890 -0.028753
C49   C     C_3   0.723085 0.843561 0.945162 -0.690873
C50   C     C_R   0.312431 0.004971 0.818335 -0.255265
C51   C     C_R   0.200409 0.166951 0.428773 -0.152735
C52   C     C_R   0.263818 0.231472 0.428965 -0.239981
C53   C     C_R   0.314498 0.315451 0.501279 -0.104206
Cl1   Cl    Cl    0.076020 0.823194 0.604851 -0.534049
Cl2   Cl    Cl    0.608867 0.819549 0.073841 -0.594576
Cl3   Cl    Cl    0.617471 0.793907 0.552569 -0.598828
Cl4   Cl    Cl    0.380740 0.330969 0.795044 -0.536352
Cl5   Cl    Cl    0.430270 0.191479 0.001037 -0.632748
Cl6   Cl    Cl    0.227659 0.821693 0.737107 -0.524667
Cl7   Cl    Cl    0.363882 0.443322 0.664081 -0.532425
H1    H     H_    0.227270 0.288109 0.628005 0.215060
H2    H     H_    0.365209 0.647217 0.610107 0.175017
H3    H     H_    0.366898 0.759573 0.725287 0.196967
H4    H     H_    0.642600 0.267988 0.260942 0.144480
H5    H     H_    0.641923 0.381086 0.374441 0.145703
H6    H     H_    0.360197 0.232935 0.241856 0.143123
H7    H     H_    0.360907 0.118372 0.130267 0.161335
H8    H     H_    0.455820 0.308730 0.939908 0.210557
H9    H     H_    0.161271 0.101731 0.372488 0.170394
H10   H     H_    0.274037 0.215980 0.373375 0.149066
H11   H     H_    0.651201 0.904052 0.967406 0.247222
H12   H     H_    0.751519 0.860711 0.225635 0.188360
H13   H     H_    0.774136 0.892595 0.013959 0.240791
H14   H     H_    0.756090 0.841376 0.905628 0.233709
H15   H     H_    0.691932 0.778890 0.940577 0.271037
H16   H     H_    0.748039 0.137506 0.272455 0.156411
H17   H     H_    0.860098 0.138560 0.387315 0.166168
H18   H     H_    0.854230 0.717919 0.461874 0.196201
H19   H     H_    0.741378 0.606078 0.463614 0.159328
H20   H     H_    0.758144 0.895203 0.539227 0.189588
H21   H     H_    0.246232 0.153923 0.679231 0.160766
H22   H     H_    0.636567 0.741249 0.775561 0.160442
N1    N     N_2   0.658671 0.869642 0.917233 -0.295742
O1    O     O_R   0.091590 0.143330 0.551700 -0.626976
O2    O     O_R   0.551730 0.591680 0.643420 -0.611046
O3    O     O_R   0.356670 0.408480 0.448390 -0.626418
O4    O     O_R   0.091620 0.039900 0.448280 -0.625779
O5    O     O_R   0.460120 0.408460 0.551810 -0.583802
O6    O     O_R   0.448270 0.408490 0.356760 -0.617297
O7    O     O_R   0.551720 0.408480 0.460170 -0.627105
O8    O     O_R   0.539880 0.591710 0.448370 -0.580452
O9    O     O_R   0.643330 0.591700 0.551790 -0.627338
O10   O     O_R   0.091610 0.051730 0.643330 -0.616441
O11   O     O_R   0.091640 0.948310 0.539920 -0.581009
O12   O     O_R   0.551760 0.960180 0.908450 -0.627317
O13   O     O_R   0.908380 0.960100 0.551720 -0.620667
O14   O     O_R   0.908410 0.856670 0.448300 -0.609061
O15   O     O_R   0.908360 0.051690 0.460080 -0.620505
O16   O     O_R   0.908390 0.948270 0.356670 -0.625256
O17   O     O_R   0.448330 0.856720 0.908450 -0.569910
O18   O     O_R   0.356660 0.948290 0.908410 -0.572756
O19   O     O_R   0.460090 0.051750 0.908420 -0.597678
O20   O     O_R   0.448250 0.039900 0.091630 -0.639916
O21   O     O_R   0.551680 0.143360 0.091630 -0.581002
O22   O     O_R   0.539910 0.948330 0.091670 -0.577775
O23   O     O_R   0.643340 0.051790 0.091670 -0.641521
O24   O     O_R   0.448280 0.591700 0.540000 -0.606791
Zn1   Zn    Zn3+2 0.999980 0.069060 0.569050 1.011485
Zn2   Zn    Zn3+2 0.000020 0.930940 0.430950 1.022866
Zn3   Zn    Zn3+2 0.430940 0.930960 0.000040 1.086048
Zn4   Zn    Zn3+2 0.569060 0.069120 0.000040 1.028925
Zn5   Zn    Zn3+2 0.430920 0.500100 0.431040 1.038140
Zn6   Zn    Zn3+2 0.569080 0.500080 0.569140 1.030535

loop_
_geom_bond_atom_site_label_1
_geom_bond_atom_site_label_2
_ccdc_geom_bond_type
C1    O4    A    
O22   Zn3   S    
O17   Zn3   S    
O24   Zn5   S    
C35   C36   A    
C7    Cl2   S    
C12   C48   A    
O15   Zn1   S    
C7    C8    A    
C39   C41   A    
C1    O1    A    
C6    H12   S    
O6    Zn5   S    
C31   H22   S    
O20   Zn3   S    
C1    C5    S    
C11   C28   S    
O10   Zn1   S    
C30   C31   A    
C2    Cl7   S    
C16   O14   A    
O16   Zn2   S    
O5    Zn6   S    
C22   O21   A    
C27   O7    A    
C18   C19   A    
C41   C42   A    
O7    Zn6   S    
C30   N1    S    
C8    C24   S    
C46   C47   A    
C47   C48   A    
C27   C39   S    
C8    C9    A    
C20   O17   A    
C49   H15   S    
C9    H16   S    
C9    C10   A    
C21   O18   A    
C25   C32   S    
C48   C50   A    
O13   Zn1   S    
C13   C14   A    
O19   Zn4   S    
C21   C50   S    
C10   H17   S    
C44   C46   A    
C15   C29   S    
H11   N1    S    
O23   Zn4   S    
C3    H1    S    
C16   O13   A    
C13   C19   A    
C51   C52   A    
C6    C11   A    
C4    C23   S    
C33   H2    S    
O18   Zn3   S    
C22   O20   A    
O8    Zn5   S    
C12   C40   A    
O3    Zn5   S    
C46   H8    S    
C37   C38   A    
O14   Zn2   S    
C22   C43   S    
C12   C23   A    
C38   H5    S    
C40   C44   A    
C44   Cl4   S    
C26   O3    A    
C23   C34   A    
C25   O2    A    
C17   C18   A    
C34   C45   A    
C14   H19   S    
C17   Cl3   S    
C41   H6    S    
C4    O11   A    
C21   O19   A    
C28   O16   A    
C18   H20   S    
C20   O12   A    
C34   Cl1   S    
C42   H7    S    
C49   H13   S    
C37   C43   A    
C24   O23   A    
C42   C43   A    
C26   C53   S    
C29   O8    A    
C37   H4    S    
C52   C53   A    
C25   O24   A    
O9    Zn6   S    
C28   O15   A    
C15   C17   A    
C13   H18   S    
C45   Cl6   S    
C49   H14   S    
C40   H21   S    
C31   C32   A    
C3    C5    A    
C2    C53   A    
O21   Zn4   S    
C6    C7    A    
O4    Zn2   S    
O11   Zn2   S    
C30   C36   A    
C32   C33   A    
C49   N1    S    
O2    Zn6   S    
C2    C3    A    
O12   Zn4   S    
C47   Cl5   S    
C38   C39   A    
C45   C50   A    
C16   C19   S    
C33   C35   A    
C27   O6    A    
C52   H10   S    
C10   C11   A    
C4    O10   A    
C20   C36   S    
O1    Zn1   S    
C26   O5    A    
C14   C15   A    
C5    C51   A    
C35   H3    S    
C24   O22   A    
C51   H9    S    
C29   O9    A    
