data_mof_unit_54023.cif
_audit_creation_date              2012-12-10T17:50:12-0500
_audit_creation_method            fapswitch 2.2
_symmetry_space_group_name_H-M    P1
_symmetry_Int_Tables_number       1
_space_group_crystal_system       triclinic
_cell_length_a                    10.603527
_cell_length_b                    14.719861
_cell_length_c                    14.737337
_cell_angle_alpha                 64.97607
_cell_angle_beta                  104.320796
_cell_angle_gamma                 103.198948
_cell_volume                      1999.40406322

loop_
_atom_site_label
_atom_site_type_symbol
_atom_type_description
_atom_site_fract_x
_atom_site_fract_y
_atom_site_fract_z
_atom_type_partial_charge
C1    C     C_R   0.475849 0.119610 0.312169 0.790907
C2    C     C_R   0.523193 0.880326 0.687855 0.785194
C3    C     C_R   0.486326 0.291507 0.178365 -0.170597
C4    C     C_R   0.515176 0.708063 0.821049 -0.166597
C5    C     C_R   0.477459 0.360023 0.076809 0.043384
C6    C     C_R   0.523034 0.639116 0.922356 0.043197
C7    C     C_R   0.414734 0.321834 0.000749 -0.005605
C8    C     C_R   0.583122 0.677108 0.998905 -0.004732
C9    C     C_R   0.521176 0.465663 0.049926 -0.177868
C10   C     C_R   0.480645 0.533423 0.948706 -0.176637
C11   C     C_R   0.395819 0.493119 0.878383 0.340015
C12   C     C_R   0.606737 0.506080 0.119921 0.340099
C13   C     C_R   0.375136 0.388885 0.901463 0.318704
C14   C     C_R   0.625212 0.610121 0.097658 0.317587
C15   C     C_R   0.730608 0.291208 0.660094 -0.419191
C16   C     C_R   0.276907 0.712808 0.333434 -0.411246
C17   C     C_R   0.691808 0.205299 0.635186 0.679923
C18   C     C_R   0.311815 0.796169 0.361952 0.670257
C19   C     C_R   0.515166 0.283798 0.511026 -0.082087
C20   C     C_R   0.481483 0.714464 0.491634 -0.076549
C21   C     C_R   0.549355 0.371624 0.534436 -0.024181
C22   C     C_R   0.449200 0.627673 0.466446 -0.022564
C23   C     C_R   0.259439 0.999393 0.500859 0.777876
C24   C     C_R   0.740718 0.999885 0.500394 0.783953
C25   C     C_R   0.658701 0.372681 0.611698 0.107637
C26   C     C_R   0.343788 0.628719 0.385819 0.103958
C27   C     C_R   0.479424 0.457546 0.484951 0.091022
C28   C     C_R   0.518884 0.541631 0.516087 0.088720
C29   C     C_R   0.628078 0.537632 0.594398 -0.256387
C30   C     C_R   0.372262 0.462628 0.404926 -0.252702
C31   C     C_R   0.696736 0.455250 0.640416 -0.191651
C32   C     C_R   0.306569 0.546633 0.356374 -0.191606
C33   C     C_3   0.010144 0.916003 0.489108 -0.151004
C34   C     C_3   0.990206 0.082412 0.514141 -0.122320
C35   C     C_3   0.928182 0.000132 0.412307 -0.180014
C36   C     C_3   0.072328 0.998313 0.590797 -0.162733
C37   C     C_3   0.877831 0.999957 0.501171 0.031720
C38   C     C_3   0.122560 0.998540 0.501776 0.024474
C39   C     C_3   0.957552 0.915980 0.577948 -0.163729
C40   C     C_3   0.042746 0.082545 0.425173 -0.184541
C41   C     C_R   0.457849 0.187078 0.204334 -0.084480
C42   C     C_R   0.539558 0.812484 0.795651 -0.079136
C43   C     C_R   0.384606 0.216466 0.026813 -0.160675
C44   C     C_R   0.608100 0.782414 0.973648 -0.151131
C45   C     C_R   0.409579 0.149489 0.127756 -0.205982
C46   C     C_R   0.581596 0.849558 0.872866 -0.221640
Cu1   Cu    Cu3+1 0.465750 0.918270 0.475680 0.967549
Cu2   Cu    Cu3+1 0.534250 0.081730 0.524320 0.970615
H1    H     H_    0.866181 0.000806 0.339347 0.128947
H2    H     H_    0.134485 0.997586 0.663724 0.126221
H3    H     H_    0.560298 0.720342 0.551731 0.144066
H4    H     H_    0.432668 0.275942 0.454047 0.144834
H5    H     H_    0.816999 0.296092 0.715938 0.155586
H6    H     H_    0.199480 0.713990 0.269559 0.156983
H7    H     H_    0.664220 0.597629 0.621706 0.132329
H8    H     H_    0.337423 0.403258 0.376627 0.131984
H9    H     H_    0.020551 0.846907 0.480378 0.129381
H10   H     H_    0.979293 0.150582 0.524411 0.158224
H11   H     H_    0.919376 0.847894 0.640326 0.120538
H12   H     H_    0.080796 0.150660 0.362758 0.124540
H13   H     H_    0.497067 0.681398 0.760682 0.205489
H14   H     H_    0.508364 0.318541 0.238712 0.207753
H15   H     H_    0.599392 0.930122 0.855219 0.145429
H16   H     H_    0.385574 0.068795 0.146083 0.182930
H17   H     H_    0.339832 0.185468 0.969588 0.170982
H18   H     H_    0.649394 0.813209 0.031412 0.165415
H19   H     H_    0.780614 0.456075 0.699798 0.140554
H20   H     H_    0.225651 0.547443 0.294511 0.141121
N1    N     N_R   0.585750 0.204560 0.560800 -0.211858
N2    N     N_R   0.414250 0.795440 0.439200 -0.212466
O1    O     O_R   0.454850 0.022100 0.338110 -0.533942
O2    O     O_R   0.545150 0.977900 0.661890 -0.554454
O3    O     O_R   0.512700 0.160150 0.379180 -0.597995
O4    O     O_R   0.487300 0.839850 0.620820 -0.598082
O5    O     O_R   0.287930 0.931000 0.479440 -0.565119
O6    O     O_R   0.712070 0.069000 0.520560 -0.535392
O7    O     O_R   0.345780 0.069050 0.520520 -0.594608
O8    O     O_R   0.654220 0.930950 0.479480 -0.596383
O9    O     O_3   0.255026 0.884264 0.306335 -0.564896
C47   C     C_3   0.115810 0.865919 0.287147 0.042763
H21   H     H_    0.078820 0.915151 0.311603 0.172524
H22   H     H_    0.072108 0.786805 0.329810 0.122062
C48   C     C_3   0.066075 0.896685 0.173393 -0.831697
H23   H     H_    0.101769 0.851012 0.143874 0.242058
H24   H     H_    0.956898 0.884762 0.158515 0.216244
H25   H     H_    0.101375 0.978020 0.132327 0.247738
O10   O     O_3   0.764082 0.124664 0.675674 -0.557470
C49   C     C_3   0.826199 0.101361 0.778123 0.024412
H26   H     H_    0.812420 0.017715 0.818007 0.172563
H27   H     H_    0.783038 0.130045 0.820863 0.112076
C50   C     C_3   0.973881 0.136259 0.783849 -0.821375
H28   H     H_    0.994965 0.219246 0.741957 0.254914
H29   H     H_    0.022108 0.116692 0.864464 0.216607
H30   H     H_    0.016108 0.097886 0.749936 0.244131
O11   O     O_3   0.294952 0.351989 0.831349 -0.574283
C51   C     C_3   0.371482 0.354136 0.764424 0.098290
H31   H     H_    0.459307 0.314805 0.806672 0.120056
H32   H     H_    0.404001 0.433601 0.714813 0.188473
C52   C     C_3   0.288083 0.299551 0.697554 -0.791906
H33   H     H_    0.202172 0.339114 0.651159 0.254719
H34   H     H_    0.347108 0.297801 0.646100 0.209871
H35   H     H_    0.252927 0.220356 0.745575 0.239403
O12   O     O_3   0.706947 0.647318 0.167056 -0.573149
C53   C     C_3   0.633516 0.641918 0.237425 0.102058
H36   H     H_    0.600052 0.561700 0.284614 0.186568
H37   H     H_    0.546489 0.682814 0.198096 0.122866
C54   C     C_3   0.720681 0.691839 0.307359 -0.785645
H38   H     H_    0.758155 0.771428 0.261941 0.232230
H39   H     H_    0.663729 0.691931 0.361015 0.211153
H40   H     H_    0.805307 0.649859 0.351393 0.251260
O13   O     O_3   0.329396 0.553502 0.786555 -0.582626
C55   C     C_3   0.214366 0.572766 0.803167 0.104607
H41   H     H_    0.237300 0.607666 0.860394 0.133374
H42   H     H_    0.144798 0.501374 0.829245 0.156435
C56   C     C_3   0.147520 0.646395 0.703752 -0.796709
H43   H     H_    0.056229 0.661839 0.715366 0.185920
H44   H     H_    0.214334 0.718915 0.676670 0.253889
H45   H     H_    0.121772 0.613578 0.645013 0.253673
O14   O     O_3   0.676044 0.446125 0.210475 -0.581682
C57   C     C_3   0.788939 0.426922 0.190813 0.101807
H46   H     H_    0.857425 0.498508 0.162368 0.155568
H47   H     H_    0.762802 0.391048 0.134242 0.133348
C58   C     C_3   0.859444 0.354469 0.289144 -0.788186
H48   H     H_    0.793651 0.281828 0.318599 0.252723
H49   H     H_    0.949025 0.338986 0.275081 0.184216
H50   H     H_    0.888609 0.388346 0.347128 0.256809

loop_
_geom_bond_atom_site_label_1
_geom_bond_atom_site_label_2
_ccdc_geom_bond_type
C18   N2    A    
C38   C40   S    
O10   C49   S    
C17   N1    A    
C40   H12   S    
C34   C37   S    
Cu2   O6    S    
C44   H18   S    
O11   C51   S    
Cu2   N1    S    
C53   H37   S    
C58   H48   S    
C31   H19   S    
C1    O1    A    
C13   O11   S    
C48   H23   S    
C34   C40   S    
C15   H5    S    
C28   C29   A    
C35   C37   S    
C20   H3    S    
C58   H49   S    
C56   H43   S    
C51   C52   S    
C42   C46   A    
C55   H41   S    
C19   H4    S    
C52   H33   S    
C44   C46   A    
C18   O9    S    
C56   H44   S    
C51   H32   S    
C35   H1    S    
C33   H9    S    
C54   H38   S    
C7    C43   A    
C9    C10   A    
C2    O4    A    
C57   C58   S    
C32   H20   S    
C21   C27   A    
C22   C28   A    
C27   C30   A    
C29   C31   A    
C54   H39   S    
C20   N2    A    
Cu2   O2    S    
C47   C48   S    
C2    O2    A    
Cu2   O3    S    
C55   H42   S    
C53   H36   S    
C57   H47   S    
C16   C26   A    
C11   O13   S    
C47   H22   S    
C50   H28   S    
C5    C7    A    
C26   C32   A    
C24   O6    A    
C58   H50   S    
C6    C8    A    
C29   H7    S    
C30   H8    S    
C4    H13   S    
Cu2   O7    S    
Cu1   N2    S    
C5    C9    A    
C50   H29   S    
C12   O14   S    
Cu1   Cu2   S    
C49   C50   S    
C43   H17   S    
C56   H45   S    
C39   H11   S    
C51   H31   S    
C52   H35   S    
C24   C37   S    
C33   C39   S    
C23   O7    A    
C43   C45   A    
Cu1   O1    S    
C4    C6    A    
C52   H34   S    
C12   C14   A    
C54   H40   S    
C19   N1    A    
C20   C22   A    
O12   C53   S    
C36   H2    S    
C57   H46   S    
C3    H14   S    
C24   O8    A    
C15   C17   A    
C21   C25   A    
C3    C41   A    
C8    C14   A    
O13   C55   S    
C48   H24   S    
C17   O10   S    
C25   C31   A    
C36   C39   S    
C8    C44   A    
Cu1   O4    S    
C23   O5    A    
C47   H21   S    
C3    C5    A    
C6    C10   A    
C1    C41   S    
O14   C57   S    
C23   C38   S    
C45   H16   S    
C33   C38   S    
C46   H15   S    
C1    O3    A    
C36   C38   S    
C49   H27   S    
Cu1   O5    S    
C37   C39   S    
C50   H30   S    
C30   C32   A    
C11   C13   A    
C14   O12   S    
C4    C42   A    
C2    C42   S    
C33   C35   S    
C35   C40   S    
C34   C36   S    
C53   C54   S    
C9    C12   A    
C16   H6    S    
C15   C25   A    
C10   C11   A    
O9    C47   S    
C7    C13   A    
C48   H25   S    
C49   H26   S    
C16   C18   A    
C22   C26   A    
C27   C28   A    
C34   H10   S    
C41   C45   A    
Cu1   O8    S    
C55   C56   S    
C19   C21   A    
