data_mof_unit_21902.cif
_audit_creation_date              2012-12-10T18:20:00-0500
_audit_creation_method            fapswitch 2.2
_symmetry_space_group_name_H-M    P1
_symmetry_Int_Tables_number       1
_space_group_crystal_system       triclinic
_cell_length_a                    10.611249
_cell_length_b                    10.609634
_cell_length_c                    9.486941
_cell_angle_alpha                 89.623589
_cell_angle_beta                  90.382009
_cell_angle_gamma                 90.208591
_cell_volume                      1068.00005032

loop_
_atom_site_label
_atom_site_type_symbol
_atom_type_description
_atom_site_fract_x
_atom_site_fract_y
_atom_site_fract_z
_atom_type_partial_charge
C1    C     C_R   0.500584 0.259638 0.500489 0.777699
C2    C     C_R   0.499416 0.740362 0.499511 0.777697
C3    C     C_3   0.401813 0.957371 0.575547 -0.168091
C4    C     C_3   0.598187 0.042629 0.424453 -0.168091
C5    C     C_3   0.555697 0.598485 0.049038 0.023148
C6    C     C_3   0.444303 0.401515 0.950962 0.023136
C7    C     C_3   0.442472 0.597051 0.949431 0.041727
C8    C     C_3   0.557528 0.402949 0.050569 0.041722
C9    C     C_3   0.614526 0.501502 0.949704 -0.052700
C10   C     C_3   0.385474 0.498497 0.050296 -0.052691
C11   C     C_R   0.259630 0.499893 0.499515 0.797332
C12   C     C_R   0.740370 0.500107 0.500485 0.797335
C13   C     C_3   0.042168 0.395064 0.564485 -0.152177
C14   C     C_3   0.957832 0.604936 0.435515 -0.152171
C15   C     C_3   0.956846 0.397880 0.431711 -0.171933
C16   C     C_3   0.043154 0.602120 0.568289 -0.171937
C17   C     C_3   0.877470 0.500096 0.501396 -0.001949
C18   C     C_3   0.122530 0.499904 0.498604 -0.001950
C19   C     C_3   0.960517 0.497279 0.634306 -0.102865
C20   C     C_3   0.039483 0.502721 0.365694 -0.102861
C21   C     C_3   0.510767 0.039304 0.633876 -0.127874
C22   C     C_3   0.489233 0.960696 0.366124 -0.127873
C23   C     C_3   0.608062 0.957126 0.556674 -0.170315
C24   C     C_3   0.391938 0.042874 0.443326 -0.170311
C25   C     C_3   0.499188 0.877448 0.498477 0.020636
C26   C     C_3   0.500811 0.122551 0.501523 0.020636
Cu1   Cu    Cu3+1 0.500030 0.499990 0.643150 0.977428
Cu2   Cu    Cu3+1 0.499970 0.500010 0.356850 0.977437
H1    H     H_    0.918261 0.314364 0.375989 0.166014
H2    H     H_    0.081739 0.685636 0.624011 0.166007
H3    H     H_    0.079718 0.309070 0.616872 0.175776
H4    H     H_    0.920282 0.690929 0.383128 0.175776
H5    H     H_    0.925739 0.495048 0.744410 0.158900
H6    H     H_    0.074261 0.504952 0.255590 0.158901
H7    H     H_    0.696443 0.918796 0.602962 0.134412
H8    H     H_    0.303557 0.081204 0.397038 0.134412
H9    H     H_    0.521075 0.073148 0.743660 0.130290
H10   H     H_    0.478925 0.926851 0.256339 0.130292
H11   H     H_    0.321277 0.919531 0.637012 0.149353
H12   H     H_    0.678723 0.080469 0.362988 0.149356
H13   H     H_    0.710676 0.502971 0.904317 0.153675
H14   H     H_    0.289324 0.497028 0.095683 0.153677
N1    N     N_3   0.500090 0.499970 0.858290 -0.203865
N2    N     N_3   0.499910 0.500030 0.141710 -0.203862
O1    O     O_R   0.500060 0.316850 0.620870 -0.571090
O2    O     O_R   0.499940 0.683150 0.379130 -0.571088
O3    O     O_R   0.500000 0.316860 0.379090 -0.606564
O4    O     O_R   0.500000 0.683140 0.620910 -0.606570
O5    O     O_R   0.316880 0.499960 0.620870 -0.516376
O6    O     O_R   0.683120 0.500040 0.379130 -0.516368
O7    O     O_R   0.316830 0.499970 0.379090 -0.608833
O8    O     O_R   0.683170 0.500030 0.620910 -0.608834
C27   C     C_2   0.375139 0.709889 0.891431 0.376982
H15   H     H_    0.428500 0.788268 0.848265 0.050446
O9    O     O_2   0.260373 0.715204 0.894754 -0.556824
C28   C     C_2   0.624861 0.290112 0.108572 0.377000
H16   H     H_    0.571499 0.211727 0.151725 0.050430
O10   O     O_2   0.739629 0.284809 0.105276 -0.556822
C29   C     C_2   0.622912 0.712153 0.104317 0.413314
H17   H     H_    0.585718 0.805343 0.082889 -0.002800
O11   O     O_2   0.720366 0.700637 0.171982 -0.532886
C30   C     C_2   0.377088 0.287847 0.895683 0.413314
H18   H     H_    0.414282 0.194656 0.917111 -0.002801
O12   O     O_2   0.279634 0.299362 0.828018 -0.532886

loop_
_geom_bond_atom_site_label_1
_geom_bond_atom_site_label_2
_ccdc_geom_bond_type
Cu1   O4    S    
C12   C17   S    
C7    C10   S    
C4    C26   S    
C21   C26   S    
Cu2   O3    S    
C5    C9    S    
C30   H18   S    
C11   O5    A    
C14   C16   S    
C7    N1    S    
C9    H13   S    
C10   H14   S    
C4    C22   S    
C28   H16   S    
C12   O8    A    
C18   C20   S    
C12   O6    A    
C13   C15   S    
C1    O1    A    
C6    C30   S    
C21   C23   S    
C30   O12   D    
C8    C9    S    
C3    H11   S    
C29   H17   S    
C11   C18   S    
C27   H15   S    
C2    O2    A    
Cu1   O5    S    
C8    C28   S    
C14   C17   S    
Cu2   O2    S    
C3    C24   S    
C24   H8    S    
Cu2   O6    S    
C13   C18   S    
Cu2   N2    S    
C16   C19   S    
C16   C18   S    
C17   C19   S    
C5    N2    S    
C28   O10   D    
C15   H1    S    
C2    C25   S    
C23   H7    S    
C6    N1    S    
C27   O9    D    
C1    C26   S    
Cu2   O7    S    
C22   C24   S    
C3    C21   S    
C9    N1    S    
Cu1   O1    S    
C7    C27   S    
C16   H2    S    
C20   H6    S    
C22   H10   S    
C8    N2    S    
C3    C25   S    
C23   C25   S    
C11   O7    A    
Cu1   O8    S    
C21   H9    S    
C14   C20   S    
C19   H5    S    
C29   O11   D    
C14   H4    S    
Cu1   Cu2   S    
C5    C7    S    
Cu1   N1    S    
C5    C29   S    
C1    O3    A    
C13   C19   S    
C6    C8    S    
C6    C10   S    
C2    O4    A    
C4    C23   S    
C15   C17   S    
C10   N2    S    
C13   H3    S    
C4    H12   S    
C24   C26   S    
C15   C20   S    
C22   C25   S    
