data_mof_unit_30780.cif
_audit_creation_date              2012-12-11T17:20:20-0500
_audit_creation_method            fapswitch 2.2
_symmetry_space_group_name_H-M    P1
_symmetry_Int_Tables_number       1
_space_group_crystal_system       triclinic
_cell_length_a                    8.545166
_cell_length_b                    16.26998
_cell_length_c                    22.836817
_cell_angle_alpha                 96.393962
_cell_angle_beta                  90.266994
_cell_angle_gamma                 93.041921
_cell_volume                      3150.62127246

loop_
_atom_site_label
_atom_site_type_symbol
_atom_type_description
_atom_site_fract_x
_atom_site_fract_y
_atom_site_fract_z
_atom_type_partial_charge
Ba1   Ba    Ba6+2 0.848660 0.538140 0.472240 1.737315
Ba2   Ba    Ba6+2 0.341160 0.461930 0.527770 1.881122
C1    C     C_3   0.680227 0.814452 0.363614 0.485495
C2    C     C_R   0.042609 0.575982 0.944199 -0.041397
C3    C     C_R   0.994554 0.570507 0.884343 0.639347
C4    C     C_3   0.069553 0.717163 0.316063 0.268167
C5    C     C_R   0.001234 0.422713 0.875629 0.767618
C6    C     C_R   0.040575 0.425377 0.936420 -0.231265
C7    C     C_R   0.064022 0.502903 0.970515 -0.080127
C8    C     C_R   0.067781 0.652933 0.978617 -0.051767
C9    C     C_R   0.114978 0.657380 0.037698 -0.023800
C10   C     C_R   0.134028 0.584972 0.064944 -0.010950
C11   C     C_R   0.105957 0.507465 0.031465 -0.075301
C12   C     C_3   0.590443 0.754811 0.317499 0.669518
C13   C     C_R   0.056352 0.352777 0.964291 0.666475
C14   C     C_R   0.093937 0.357645 0.024423 -0.059088
C15   C     C_R   0.119551 0.434605 0.058748 -0.102333
C16   C     C_3   0.032471 0.744128 0.256113 -0.189234
C17   C     C_R   0.158612 0.440287 0.119647 0.646157
C18   C     C_R   0.180396 0.588507 0.124870 0.644510
C19   C     C_2   0.789250 0.466502 0.770446 0.645875
C20   C     C_3   0.741289 0.469569 0.707020 -0.075514
C21   C     C_1   0.009405 0.507508 0.683094 -0.055543
C22   C     C_2   0.053846 0.511033 0.740008 -0.116468
C23   C     C_3   0.452079 0.256471 0.347358 0.613429
C24   C     C_2   0.938084 0.490609 0.787397 0.165914
C25   C     C_R   0.386042 0.554323 0.233223 0.588089
C26   C     C_R   0.429664 0.560175 0.293122 -0.023799
C27   C     C_R   0.182797 0.490629 0.316063 0.023297
C28   C     C_3   0.166286 0.739124 0.678076 0.771615
C29   C     C_R   0.133948 0.490570 0.256624 -0.144889
C30   C     C_R   0.235306 0.521925 0.214434 0.124438
C31   C     C_2   0.879008 0.464209 0.665598 -0.282935
C32   C     C_R   0.396193 0.734069 0.472153 -0.274954
C33   C     C_R   0.531384 0.760415 0.505128 0.066889
C34   C     C_3   0.397539 0.171424 0.310893 0.509655
C35   C     C_R   0.573373 0.844814 0.516897 -0.167222
C36   C     C_R   0.476536 0.904367 0.497666 0.353507
C37   C     C_R   0.333009 0.876901 0.469074 0.711873
C38   C     C_R   0.291732 0.791507 0.457398 -0.051507
C39   C     C_R   0.599990 0.155906 0.514574 -0.156470
C40   C     C_3   0.060886 0.808851 0.703077 0.556514
C41   C     C_R   0.657828 0.236229 0.508670 -0.004665
C42   C     C_R   0.700323 0.096391 0.531022 0.288412
C43   C     C_R   0.807216 0.262546 0.529667 -0.244078
C44   C     C_R   0.905045 0.207066 0.551712 -0.097420
C45   C     C_3   0.113070 0.175005 0.669271 0.525303
C46   C     C_R   0.855153 0.122524 0.548428 0.614763
C47   C     C_3   0.949514 0.279485 0.333398 0.570389
C48   C     C_3   0.961801 0.279443 0.266275 0.597742
C49   C     C_3   0.700080 0.640533 0.646380 0.824369
C50   C     C_3   0.736858 0.664773 0.712328 0.585781
C51   C     C_3   0.157774 0.086264 0.675965 0.595778
C52   C     C_3   0.643746 0.255618 0.679000 0.909390
C53   C     C_3   0.605356 0.166722 0.693059 0.907731
C54   C     C_R   0.324850 0.531925 0.334267 -0.239855
F1    F     F_    0.993792 0.793238 0.755948 -0.576164
F2    F     F_    0.491379 0.577206 0.192998 -0.632957
F3    F     F_    0.679748 0.449579 0.811082 -0.657302
F4    F     F_    0.233844 0.933186 0.453165 -0.563795
F5    F     F_    0.956448 0.065346 0.560529 -0.599963
F6    F     F_    0.105883 0.256137 0.245836 -0.629437
F7    F     F_    0.589426 0.575650 0.639924 -0.704090
F8    F     F_    0.700672 0.745566 0.730218 -0.579509
F9    F     F_    0.592099 0.881023 0.381750 -0.646320
F10   F     F_    0.204643 0.046529 0.622725 -0.592314
F11   F     F_    0.793343 0.281320 0.698568 -0.709662
F12   F     F_    0.701286 0.113137 0.661129 -0.727724
F13   F     F_    0.034608 0.276415 0.933808 -0.602497
H1    H     H_    0.481140 0.731035 0.337772 0.042853
H2    H     H_    0.670267 0.623901 0.740099 0.033928
H3    H     H_    0.347963 0.276122 0.372376 0.008755
H4    H     H_    0.276425 0.178553 0.296351 0.106659
H5    H     H_    0.790756 0.838521 0.345090 0.137458
H6    H     H_    0.135012 0.778959 0.239587 0.196399
H7    H     H_    0.987609 0.172386 0.656617 0.029171
H8    H     H_    0.055551 0.050553 0.692158 0.049393
H9    H     H_    0.254796 0.085529 0.708174 0.061407
H10   H     H_    0.637579 0.254900 0.630518 -0.304319
H11   H     H_    0.982184 0.666714 0.324048 0.059339
H12   H     H_    0.130276 0.868865 0.711365 0.071241
H13   H     H_    0.483207 0.148845 0.678813 -0.073973
H14   H     H_    0.103894 0.300456 0.044000 0.164788
H15   H     H_    0.134727 0.717990 0.062244 0.139167
H16   H     H_    0.052934 0.710240 0.959715 0.161908
H17   H     H_    0.176150 0.523234 0.752193 0.167188
H18   H     H_    0.018863 0.465777 0.242558 0.124782
H19   H     H_    0.360734 0.535266 0.380015 0.100172
H20   H     H_    0.189362 0.693479 0.315189 -0.003279
H21   H     H_    0.866919 0.432108 0.621424 0.094553
H22   H     H_    0.479600 0.139069 0.504032 0.196494
H23   H     H_    0.965453 0.816700 0.671242 0.051462
H24   H     H_    0.678779 0.863482 0.542509 0.150783
H25   H     H_    0.363107 0.668614 0.464085 0.077014
H26   H     H_    0.851555 0.324983 0.524886 0.049964
H27   H     H_    0.000816 0.688779 0.224620 0.112106
H28   H     H_    0.931607 0.784375 0.258912 0.166496
H29   H     H_    0.943957 0.055217 0.300263 0.410004
H30   H     H_    0.637819 0.905963 0.210360 0.403160
H31   H     H_    0.400795 0.372081 0.223887 0.391697
H32   H     H_    0.245077 0.010881 0.287081 0.368247
H33   H     H_    0.550212 0.189472 0.161708 0.370119
H34   H     H_    0.838759 0.305534 0.349543 0.008218
H35   H     H_    0.165841 0.350249 0.698680 0.320879
H36   H     H_    0.689214 0.232411 0.850143 0.396285
H37   H     H_    0.248099 0.666495 0.821415 0.365555
H38   H     H_    0.491086 0.815636 0.670690 0.410557
H39   H     H_    0.872724 0.236298 0.242917 0.119334
H40   H     H_    0.940920 0.341322 0.253859 -0.033073
H41   H     H_    0.806580 0.619434 0.623556 -0.159537
H42   H     H_    0.708529 0.781773 0.402052 -0.046746
H43   H     H_    0.861616 0.657343 0.722107 -0.007054
N1    N     N_R   0.983777 0.494895 0.849665 -0.439487
N2    N     N_R   0.189157 0.516798 0.152234 -0.407512
N3    N     N_2   0.519848 0.991158 0.505185 -0.115872
N4    N     N_2   0.653764 0.009997 0.526808 -0.119207
O1    O     O_2   0.899090 0.455560 0.360740 -0.465935
O2    O     O_2   0.200891 0.213477 0.516954 -0.352085
O3    O     O_3   0.213432 0.210619 0.628905 -0.610388
O4    O     O_3   0.139470 0.456390 0.431790 -0.465454
O5    O     O_3   0.555510 0.597400 0.529070 -0.416834
O6    O     O_2   0.384010 0.302440 0.472310 -0.443908
O7    O     O_3   0.582390 0.250195 0.384474 -0.617785
O8    O     O_2   0.416068 0.451223 0.705967 -0.408543
O9    O     O_3   0.533999 0.308660 0.705803 -0.555398
O10   O     O_2   0.957732 0.632851 0.863672 -0.495246
O11   O     O_2   0.979982 0.355988 0.845988 -0.367068
O12   O     O_3   0.642844 0.707984 0.621522 -0.568723
O13   O     O_2   0.167402 0.376973 0.143365 -0.524740
O14   O     O_2   0.213190 0.655718 0.152642 -0.544280
O15   O     O_3   0.652060 0.602710 0.395680 -0.499133
O16   O     O_2   0.749765 0.536749 0.291287 -0.397732
O17   O     O_3   0.078972 0.323217 0.362263 -0.641747
O18   O     O_3   0.690211 0.692412 0.295442 -0.641405
O19   O     O_2   0.805680 0.697590 0.527730 -0.463950
O20   O     O_3   0.061950 0.644310 0.424380 -0.529470
O21   O     O_2   0.967847 0.792438 0.467990 -0.393445
O22   O     O_2   0.068523 0.171858 0.400623 -0.215678
O23   O     O_3   0.059474 0.785005 0.359380 -0.562444
O24   O     O_2   0.794585 0.147451 0.374976 -0.262336
O25   O     O_3   0.995767 0.109244 0.293559 -0.469934
O26   O     O_2   0.482733 0.749753 0.205811 -0.191174
O27   O     O_2   0.397826 0.861735 0.277330 -0.213039
O28   O     O_3   0.683154 0.871864 0.238820 -0.492564
O29   O     O_2   0.543153 0.413599 0.345700 -0.348423
O30   O     O_2   0.641494 0.319428 0.266435 -0.345448
O31   O     O_3   0.351840 0.354579 0.260026 -0.489288
O32   O     O_2   0.345035 0.117683 0.416859 -0.246571
O33   O     O_2   0.536798 0.044329 0.355312 -0.113204
O34   O     O_2   0.290610 0.544470 0.639300 -0.345532
O35   O     O_3   0.241717 0.015286 0.330513 -0.370096
O36   O     O_2   0.671067 0.134683 0.257408 -0.252920
O37   O     O_2   0.437379 0.055858 0.217779 -0.248266
O38   O     O_3   0.476001 0.205983 0.193522 -0.418828
O39   O     O_2   0.016900 0.204237 0.781143 -0.122810
O40   O     O_2   0.293061 0.237358 0.763937 -0.239968
O41   O     O_3   0.091402 0.334416 0.729043 -0.451980
O42   O     O_2   0.479147 0.113535 0.791226 -0.234742
O43   O     O_2   0.759199 0.098653 0.777287 -0.190751
O44   O     O_3   0.664180 0.246027 0.810081 -0.399052
O45   O     O_3   0.050220 0.543670 0.568220 -0.452877
O46   O     O_2   0.401647 0.652126 0.718386 -0.286996
O47   O     O_2   0.372907 0.791876 0.766232 -0.214775
O48   O     O_3   0.173724 0.677013 0.790021 -0.476357
O49   O     O_2   0.326717 0.703955 0.585728 -0.372035
O50   O     O_2   0.168403 0.823173 0.584392 -0.325292
O51   O     O_3   0.426013 0.845601 0.645346 -0.485240
O52   O     O_3   0.537630 0.397360 0.604330 -0.454265
O53   O     O_3   0.068066 0.673478 0.649455 -0.700372
O54   O     O_3   0.634180 0.402670 0.470930 -0.449538
O55   O     O_3   0.127750 0.355750 0.575620 -0.503621
P1    P     P_3+3 0.070660 0.431690 0.369620 1.062262
P2    P     P_3+3 0.630590 0.685720 0.544880 1.160208
P3    P     P_3+3 0.096056 0.752525 0.428410 1.116522
P4    P     P_3+3 0.119040 0.568370 0.630390 1.138691
P5    P     P_3+3 0.107538 0.246278 0.571219 1.067036
P6    P     P_3+3 0.629175 0.596971 0.318846 1.078196
P7    P     P_3+3 0.563361 0.297804 0.457824 1.089598
P8    P     P_3+3 0.560406 0.406501 0.680933 1.159263
S1    S     S_3+6 0.950481 0.175082 0.352416 -0.024906
S2    S     S_3+6 0.532603 0.809920 0.258012 0.049632
S3    S     S_3+6 0.501774 0.338055 0.303799 -0.075709
S4    S     S_3+6 0.384422 0.086142 0.355100 0.113883
S5    S     S_3+6 0.500529 0.139910 0.244012 0.049980
S6    S     S_3+6 0.130938 0.237175 0.738650 0.028347
S7    S     S_3+6 0.626908 0.153974 0.769768 0.099227
S8    S     S_3+6 0.286165 0.714421 0.738359 -0.005032
S9    S     S_3+6 0.275095 0.779363 0.621628 -0.099155

loop_
_geom_bond_atom_site_label_1
_geom_bond_atom_site_label_2
_ccdc_geom_bond_type
Ba2   O34   S    
C38   P3    S    
C19   C24   D    
C41   P7    S    
C17   O13   D    
C16   H6    S    
Ba2   O52   S    
O25   S1    S    
C16   H27   S    
O44   S7    S    
H35   O41   S    
O48   S8    S    
O22   S1    D    
C53   F12   S    
O15   P6    S    
C5    C6    A    
C8    H16   S    
C43   C44   A    
Ba1   P2    S    
O12   P2    S    
O54   P7    S    
C32   C38   A    
C49   O12   S    
O19   P2    D    
O43   S7    D    
C33   C35   A    
O17   P1    S    
C22   C24   S    
C45   H7    S    
C19   F3    S    
C36   C37   A    
Ba2   P4    S    
C54   H19   S    
H36   O44   S    
C21   P4    S    
C50   H43   S    
H31   O31   S    
C13   C14   A    
Ba1   O54   S    
C40   F1    S    
O47   S8    D    
Ba1   Ba2   S    
C53   S7    S    
C4    O23   S    
C1    H5    S    
C7    C11   A    
O8    P8    D    
O24   S1    D    
C52   C53   S    
O5    P2    S    
C1    H42   S    
C6    C7    A    
C21   C31   D    
O38   S5    S    
C3    O10   D    
O9    P8    S    
C21   C22   D    
C34   S5    S    
C16   H28   S    
H37   O48   S    
O36   S5    D    
Ba1   O20   S    
C26   P6    S    
H33   O38   S    
Ba2   O55   S    
C45   C51   S    
C47   S1    S    
C45   O3    S    
O34   P4    D    
Ba1   O45   S    
O18   P6    S    
C19   C20   S    
C48   H39   S    
C39   C41   A    
C1    F9    S    
C40   H12   S    
O7    P7    S    
C13   F13   S    
O42   S7    D    
Ba2   O45   S    
H38   O51   S    
Ba2   O6    S    
C26   C54   A    
C4    C16   S    
C52   O9    S    
C44   C46   A    
O49   S9    D    
C29   H18   S    
O30   S3    D    
C49   C50   S    
C33   P2    S    
H30   O28   S    
C49   F7    S    
C50   F8    S    
C18   O14   D    
C37   C38   A    
C34   S4    S    
Ba2   O4    S    
O4    P1    S    
C52   F11   S    
C12   O18   S    
C17   N2    Am   
O40   S6    D    
O29   S3    D    
H32   O35   S    
C48   H40   S    
Ba1   O4    S    
C28   S9    S    
C51   H8    S    
C28   O53   S    
C35   C36   A    
O3    P5    S    
C23   O7    S    
C4    H11   S    
C29   C30   A    
O37   S5    D    
C32   C33   A    
C10   C18   A    
O53   P4    S    
C35   H24   S    
C23   H3    S    
Ba1   O1    S    
C53   H13   S    
C51   F10   S    
C41   C43   A    
C1    C12   S    
Ba2   O54   S    
C37   F4    S    
O31   S3    S    
C39   H22   S    
C49   H41   S    
H29   O25   S    
O39   S6    D    
C48   F6    S    
C39   C42   A    
C44   P5    S    
C45   S6    S    
C2    C8    A    
C43   H26   S    
O27   S2    D    
C12   S2    S    
C23   S3    S    
C52   H10   S    
Ba2   O5    S    
O6    P7    D    
C20   C31   S    
C47   O17   S    
O28   S2    S    
C3    N1    Am   
C25   C30   A    
C32   H25   S    
O50   S9    D    
O41   S6    S    
C20   P8    S    
Ba1   O15   S    
C25   F2    S    
C47   H34   S    
C9    C10   A    
O35   S4    S    
C27   C54   A    
C9    H15   S    
C6    C13   A    
C4    H20   S    
O55   P5    S    
O16   P6    D    
Ba1   P1    S    
O52   P8    S    
C11   C15   A    
C30   N2    S    
C28   S8    S    
C5    N1    Am   
C51   H9    S    
C24   N1    S    
O21   P3    D    
C27   C29   A    
C50   H2    S    
C31   H21   S    
C18   N2    Am   
C36   N3    S    
O1    P1    D    
C46   F5    S    
O46   S8    D    
O32   S4    D    
O45   P4    S    
O51   S9    S    
C15   C17   A    
C40   H23   S    
C14   H14   S    
C27   P1    S    
C12   H1    S    
Ba1   O5    S    
C8    C9    A    
C23   C34   S    
O2    P5    D    
O20   P3    S    
C42   C46   A    
C2    C3    A    
O26   S2    D    
C10   C11   A    
C42   N4    S    
C47   C48   S    
C25   C26   A    
O33   S4    D    
C28   C40   S    
O23   P3    S    
C5    O11   D    
C2    C7    A    
Ba1   O19   S    
C22   H17   S    
C34   H4    S    
N3    N4    D    
C14   C15   A    
