data_mof_unit_42424.cif
_audit_creation_date              2012-12-10T18:50:52-0500
_audit_creation_method            fapswitch 2.2
_symmetry_space_group_name_H-M    P1
_symmetry_Int_Tables_number       1
_space_group_crystal_system       triclinic
_cell_length_a                    10.622677
_cell_length_b                    9.879245
_cell_length_c                    15.734904
_cell_angle_alpha                 88.342338
_cell_angle_beta                  90.625885
_cell_angle_gamma                 91.615732
_cell_volume                      1649.85248346

loop_
_atom_site_label
_atom_site_type_symbol
_atom_type_description
_atom_site_fract_x
_atom_site_fract_y
_atom_site_fract_z
_atom_type_partial_charge
C1    C     C_R   0.260574 0.497982 0.499980 0.937608
C2    C     C_R   0.934052 0.522701 0.422192 -0.085777
C3    C     C_R   0.872148 0.507462 0.500480 -0.181187
C4    C     C_R   0.127833 0.492354 0.499490 -0.205928
C5    C     C_R   0.584159 0.072039 0.548743 -0.122436
C6    C     C_R   0.582528 0.928507 0.549992 -0.106840
C7    C     C_R   0.499977 0.501888 0.338320 0.965940
C8    C     C_R   0.418485 0.927179 0.448317 0.207492
C9    C     C_R   0.412688 0.071690 0.452634 0.212643
C10   C     C_R   0.739366 0.502028 0.499879 0.914921
C11   C     C_R   0.499741 0.498088 0.661604 0.971252
C12   C     C_3   0.630077 0.516370 0.951868 -0.393195
C13   C     C_3   0.422106 0.628138 0.043213 -0.207477
C14   C     C_3   0.420059 0.371523 0.052945 -0.241047
C15   C     C_3   0.435814 0.357050 0.954761 -0.038608
C16   C     C_3   0.409264 0.612031 0.944813 -0.040511
C17   C     C_1   0.498518 0.493325 0.750286 -0.129080
C18   C     C_3   0.492808 0.503186 0.082514 0.079018
C19   C     C_3   0.494019 0.493570 0.916785 0.174218
C20   C     C_3   0.391138 0.858411 0.303029 -0.615388
C21   C     C_3   0.194660 0.135715 0.452685 -0.650223
C22   C     C_2   0.447858 0.243364 0.105431 1.021915
C23   C     C_3   0.630139 0.503338 0.049527 -0.347963
C24   C     C_2   0.478453 0.764971 0.068357 0.983628
C25   C     C_3   0.476388 0.163552 0.860723 -0.714942
C26   C     C_3   0.340595 0.783139 0.836384 -0.723849
C27   C     C_2   0.137418 0.455789 0.659069 0.921930
C28   C     C_2   0.134239 0.529105 0.339888 0.926989
C29   C     C_2   0.864891 0.468500 0.659507 0.936576
C30   C     C_2   0.861698 0.542370 0.341392 0.938419
C31   C     C_1   0.496691 0.490901 0.825499 -0.050520
C32   C     C_1   0.494658 0.507622 0.174128 -0.066379
C33   C     C_1   0.497198 0.506306 0.249433 -0.118825
C34   C     C_R   0.065806 0.476228 0.577864 -0.090390
C35   C     C_R   0.064429 0.514011 0.421492 -0.106575
C36   C     C_R   0.935451 0.485291 0.578393 -0.080922
H1    H     H_    0.309417 0.579389 0.932293 0.133754
H2    H     H_    0.648686 0.874557 0.590210 0.173532
H3    H     H_    0.248353 0.868419 0.391551 0.231198
H4    H     H_    0.364781 0.953319 0.268966 0.249347
H5    H     H_    0.349509 0.771829 0.268158 0.257383
H6    H     H_    0.495373 0.850829 0.302635 0.245093
H7    H     H_    0.307188 0.126347 0.346022 0.249034
H8    H     H_    0.131587 0.212170 0.423553 0.261348
H9    H     H_    0.206312 0.156358 0.521425 0.263100
H10   H     H_    0.148195 0.034765 0.446421 0.199884
H11   H     H_    0.575505 0.111756 0.151049 0.350149
H12   H     H_    0.339260 0.342282 0.927326 0.144007
H13   H     H_    0.624323 0.900198 0.062819 0.354319
H14   H     H_    0.604351 0.242225 0.950736 0.266879
H15   H     H_    0.521826 0.063730 0.864997 0.244303
H16   H     H_    0.510262 0.218031 0.802436 0.242981
H17   H     H_    0.372893 0.145299 0.856517 0.252873
H18   H     H_    0.526285 0.760418 0.879534 0.261179
H19   H     H_    0.366862 0.885400 0.810201 0.238655
H20   H     H_    0.247411 0.788629 0.867259 0.259770
H21   H     H_    0.334012 0.711962 0.783166 0.247186
H22   H     H_    0.169550 0.514223 0.779320 0.331875
H23   H     H_    0.324580 0.623553 0.069053 0.116099
H24   H     H_    0.159717 0.633720 0.229139 0.343549
H25   H     H_    0.831557 0.356015 0.766307 0.338345
H26   H     H_    0.741360 0.657263 0.272858 0.334466
H27   H     H_    0.317971 0.388675 0.063085 0.123107
H28   H     H_    0.688713 0.586311 0.077091 0.224224
H29   H     H_    0.677011 0.408714 0.069789 0.234216
H30   H     H_    0.668203 0.618100 0.932215 0.220828
H31   H     H_    0.696113 0.443466 0.925486 0.174251
H32   H     H_    0.651795 0.126375 0.587835 0.164269
N1    N     N_R   0.499970 0.857200 0.499980 -0.097963
N2    N     N_R   0.499970 0.142800 0.499980 -0.099409
N3    N     N_2   0.343653 0.853998 0.388959 -0.287176
N4    N     N_2   0.315167 0.143232 0.410064 -0.254411
N5    N     N_2   0.509895 0.239348 0.935383 -0.270094
N6    N     N_2   0.434750 0.739912 0.897809 -0.278395
O1    O     O_R   0.316750 0.614620 0.499990 -0.621941
O2    O     O_R   0.570524 0.196721 0.113594 -0.817196
O3    O     O_2   0.414804 0.841732 0.108315 -0.631639
O4    O     O_R   0.599681 0.806230 0.043145 -0.823192
O5    O     O_2   0.213332 0.365311 0.666154 -0.635756
O6    O     O_R   0.116433 0.539089 0.727556 -0.793115
O7    O     O_2   0.212392 0.446335 0.321997 -0.637388
O8    O     O_R   0.108642 0.636537 0.283090 -0.780916
O9    O     O_2   0.790021 0.553652 0.679191 -0.645742
O10   O     O_R   0.885077 0.355946 0.713336 -0.788947
O11   O     O_2   0.872243 0.462871 0.283909 -0.609292
O12   O     O_R   0.316750 0.385380 0.499990 -0.561647
O13   O     O_R   0.783129 0.652875 0.331075 -0.778959
O14   O     O_R   0.499990 0.614720 0.377140 -0.602007
O15   O     O_R   0.499990 0.385280 0.377140 -0.584311
O16   O     O_R   0.683220 0.614710 0.500000 -0.565969
O17   O     O_R   0.683220 0.385290 0.500000 -0.638736
O18   O     O_R   0.499980 0.614620 0.622860 -0.616546
O19   O     O_R   0.499980 0.385380 0.622860 -0.609364
O20   O     O_2   0.361612 0.181486 0.141588 -0.602474
Zn1   Zn    Zn3+2 0.499980 0.653120 0.500000 1.010704
Zn2   Zn    Zn3+2 0.499980 0.346880 0.500000 1.016192

loop_
_geom_bond_atom_site_label_1
_geom_bond_atom_site_label_2
_ccdc_geom_bond_type
C2    C35   A    
C6    N1    A    
H7    N4    S    
C7    C33   S    
C14   C18   S    
C9    N4    S    
C22   O2    S    
C19   C31   S    
C26   H19   S    
C20   H5    S    
O1    Zn1   S    
O16   Zn1   S    
C15   C19   S    
C29   C36   S    
C8    N1    A    
C13   C18   S    
C16   N6    S    
C25   H17   S    
H11   O2    S    
C29   O9    D    
C27   O5    D    
C5    C6    A    
C20   H4    S    
C7    O15   A    
H13   O4    S    
O17   Zn2   S    
H18   N6    S    
H24   O8    S    
C11   O18   A    
C28   C35   S    
C8    C9    A    
C6    H2    S    
C20   N3    S    
C25   N5    S    
H22   O6    S    
C16   H1    S    
C11   O19   A    
C4    C35   A    
C22   O20   D    
C15   H12   S    
C5    H32   S    
C21   H9    S    
C27   C34   S    
C12   H31   S    
C4    C34   A    
C21   N4    S    
C28   O8    S    
C18   C23   S    
C1    O1    A    
C9    N2    A    
C29   O10   S    
C27   O6    S    
H14   N5    S    
C12   H30   S    
O18   Zn1   S    
C13   C24   S    
N2    Zn2   S    
C25   H15   S    
C5    N2    A    
C21   H8    S    
C7    O14   A    
C12   C23   S    
C30   O11   D    
O12   Zn2   S    
C24   O4    S    
C23   H28   S    
C15   N5    S    
C10   O17   A    
O19   Zn2   S    
C17   C31   T    
C18   C32   S    
C21   H10   S    
C1    O12   A    
C11   C17   S    
C8    N3    S    
C28   O7    D    
N1    Zn1   S    
H25   O10   S    
C26   H20   S    
C20   H6    S    
C13   H23   S    
H26   O13   S    
C2    C30   S    
C1    C4    S    
C32   C33   T    
C23   H29   S    
O15   Zn2   S    
C2    C3    A    
C25   H16   S    
C3    C10   S    
C14   C22   S    
C3    C36   A    
C16   C19   S    
C14   H27   S    
C12   C19   S    
C26   N6    S    
C34   C36   A    
C26   H21   S    
O14   Zn1   S    
C24   O3    D    
C10   O16   A    
C13   C16   S    
H3    N3    S    
C14   C15   S    
C30   O13   S    
