data_mof_unit_44107.cif
_audit_creation_date              2012-12-11T14:48:17-0500
_audit_creation_method            fapswitch 2.2
_symmetry_space_group_name_H-M    P1
_symmetry_Int_Tables_number       1
_space_group_crystal_system       triclinic
_cell_length_a                    8.335668
_cell_length_b                    15.09001
_cell_length_c                    22.749301
_cell_angle_alpha                 96.647692
_cell_angle_beta                  89.034366
_cell_angle_gamma                 99.759358
_cell_volume                      2801.14545956

loop_
_atom_site_label
_atom_site_type_symbol
_atom_type_description
_atom_site_fract_x
_atom_site_fract_y
_atom_site_fract_z
_atom_type_partial_charge
Ba1   Ba    Ba6+2 0.857590 0.542650 0.472590 1.746966
Ba2   Ba    Ba6+2 0.332250 0.457420 0.527420 1.734629
C1    C     C_3   0.546571 0.799406 0.271607 -0.382691
C2    C     C_R   0.114684 0.579058 0.940660 -0.024490
C3    C     C_R   0.064638 0.575910 0.881236 0.643087
C4    C     C_3   0.130529 0.728034 0.314114 0.325234
C5    C     C_R   0.973037 0.415495 0.876559 0.675032
C6    C     C_R   0.017913 0.416761 0.936459 -0.024524
C7    C     C_R   0.088384 0.499236 0.968691 -0.044045
C8    C     C_R   0.188464 0.660501 0.973000 -0.039356
C9    C     C_R   0.233919 0.662917 0.032094 -0.048980
C10   C     C_R   0.205839 0.584117 0.061030 -0.012465
C11   C     C_R   0.132613 0.501994 0.029235 -0.042581
C12   C     C_3   0.656601 0.779906 0.319806 0.282586
C13   C     C_R   0.992419 0.337720 0.965140 -0.022607
C14   C     C_R   0.033803 0.340711 0.024824 -0.038311
C15   C     C_R   0.103760 0.422669 0.057700 -0.034451
C16   C     C_3   0.110820 0.749163 0.251076 -0.269763
C17   C     C_R   0.146024 0.426985 0.118220 0.629911
C18   C     C_R   0.249240 0.585962 0.121044 0.577508
C19   C     C_2   0.771648 0.477511 0.775452 0.387624
C20   C     C_3   0.722758 0.483234 0.711183 -0.117284
C21   C     C_1   0.009549 0.518862 0.687150 0.009155
C22   C     C_2   0.056882 0.518294 0.742467 -0.177253
C23   C     C_3   0.459292 0.327832 0.346435 0.248193
C24   C     C_2   0.934343 0.494303 0.789813 0.143215
C25   C     C_R   0.419475 0.549481 0.231754 -0.050494
C26   C     C_R   0.459700 0.557849 0.291936 -0.018472
C27   C     C_R   0.189849 0.481788 0.314327 -0.000620
C28   C     C_3   0.083152 0.744214 0.654865 0.619375
C29   C     C_R   0.144990 0.478697 0.254326 -0.134488
C30   C     C_R   0.260002 0.512223 0.212122 0.228212
C31   C     C_2   0.863964 0.477354 0.669377 -0.309886
C32   C     C_R   0.755061 0.233810 0.517560 -0.223453
C33   C     C_R   0.837958 0.174785 0.542155 -0.008678
C34   C     C_3   0.378949 0.291450 0.286595 0.377201
C35   C     C_R   0.775312 0.081767 0.536700 -0.082152
C36   C     C_R   0.629012 0.046072 0.504655 0.025982
C37   C     C_R   0.552318 0.108289 0.477874 -0.023949
C38   C     C_R   0.614009 0.200708 0.485071 0.077795
C39   C     C_R   0.409060 0.912306 0.467760 -0.050871
C40   C     C_3   0.045317 0.748655 0.721256 -0.319610
C41   C     C_R   0.347929 0.819737 0.458853 0.039140
C42   C     C_R   0.580939 0.788247 0.509237 0.085034
C43   C     C_R   0.642691 0.881177 0.518623 -0.029298
C44   C     C_R   0.560063 0.945725 0.496969 0.050819
C45   C     C_3   0.078992 0.243837 0.685868 0.304913
C46   C     C_R   0.435360 0.757899 0.478488 -0.209824
C47   C     C_3   0.898761 0.258244 0.327608 0.148461
C48   C     C_3   0.962658 0.237091 0.264963 -0.312799
C49   C     C_3   0.652779 0.659979 0.654585 0.345214
C50   C     C_3   0.579265 0.686574 0.714379 -0.313998
C51   C     C_2   0.774691 0.864733 0.339806 0.942452
C52   C     C_2   0.828105 0.169270 0.350583 0.882946
C53   C     C_2   0.485693 0.174930 0.636578 0.814980
C54   C     C_3   0.142644 0.212886 0.741714 0.368211
C55   C     C_3   0.590960 0.240555 0.680913 0.317069
C56   C     C_3   0.650868 0.190662 0.728348 -0.232667
C57   C     C_R   0.344587 0.525313 0.332738 -0.291372
H1    H     H_    0.159789 0.765110 0.747517 0.147500
H2    H     H_    0.619465 0.824162 0.233641 0.175535
H3    H     H_    0.666784 0.739159 0.740831 0.119637
H4    H     H_    0.549846 0.626865 0.739030 0.132461
H5    H     H_    0.465938 0.713839 0.708280 0.134382
H6    H     H_    0.580077 0.760740 0.358474 -0.068570
H7    H     H_    0.473234 0.851199 0.289802 0.102242
H8    H     H_    0.366560 0.357156 0.374396 -0.033703
H9    H     H_    0.564323 0.382422 0.341524 0.060157
H10   H     H_    0.300392 0.225599 0.290795 0.053235
H11   H     H_    0.302624 0.338697 0.273749 -0.075015
H12   H     H_    0.968883 0.801248 0.734227 0.147553
H13   H     H_    0.464006 0.736677 0.254701 0.122677
H14   H     H_    0.093652 0.685235 0.220826 0.101116
H15   H     H_    0.156738 0.308851 0.678493 0.033707
H16   H     H_    0.952785 0.255867 0.692723 -0.083576
H17   H     H_    0.148479 0.268031 0.778835 0.025516
H18   H     H_    0.266746 0.198422 0.733433 0.074081
H19   H     H_    0.699314 0.274011 0.657699 -0.176589
H20   H     H_    0.720400 0.139085 0.707557 0.143722
H21   H     H_    0.546988 0.156632 0.753288 0.170082
H22   H     H_    0.028263 0.674015 0.322863 0.104468
H23   H     H_    0.976478 0.683886 0.732791 0.038705
H24   H     H_    0.730064 0.239779 0.760006 0.182561
H25   H     H_    0.010648 0.278366 0.045189 0.146000
H26   H     H_    0.938661 0.273227 0.941638 0.160426
H27   H     H_    0.290128 0.727176 0.055256 0.136468
H28   H     H_    0.511638 0.572960 0.200407 0.112971
H29   H     H_    0.211010 0.722944 0.952733 0.139025
H30   H     H_    0.183771 0.540057 0.754633 0.157241
H31   H     H_    0.022219 0.449439 0.240358 0.121946
H32   H     H_    0.378645 0.529816 0.378805 0.075056
H33   H     H_    0.246825 0.702483 0.317868 -0.080429
H34   H     H_    0.798382 0.297229 0.326089 0.114082
H35   H     H_    0.848688 0.433938 0.627600 0.072606
H36   H     H_    0.332581 0.956093 0.453045 0.070259
H37   H     H_    0.845436 0.039339 0.556566 0.119525
H38   H     H_    0.754625 0.900795 0.543205 0.109765
H39   H     H_    0.446344 0.087612 0.450125 0.065835
H40   H     H_    0.385497 0.686410 0.472673 0.057138
H41   H     H_    0.805221 0.305245 0.521092 0.052421
H42   H     H_    0.002612 0.781521 0.247080 0.183633
H43   H     H_    0.218721 0.795704 0.237358 0.140294
H44   H     H_    0.974872 0.716762 0.627680 0.018002
H45   H     H_    0.029347 0.298764 0.248531 0.125939
H46   H     H_    0.868675 0.955230 0.407728 0.350667
H47   H     H_    0.009236 0.171849 0.410547 0.305435
H48   H     H_    0.745499 0.348751 0.197910 0.359634
H49   H     H_    0.874105 0.991272 0.722426 0.373350
H50   H     H_    0.382982 0.046346 0.608739 0.367752
H51   H     H_    0.372946 0.492653 0.842540 0.346849
H52   H     H_    0.351013 0.899052 0.697823 0.341586
H53   H     H_    0.861442 0.209151 0.233852 0.192701
H54   H     H_    0.043306 0.185649 0.263857 0.113259
H55   H     H_    0.767499 0.636496 0.662031 -0.137654
H56   H     H_    0.572380 0.602120 0.631237 0.086435
N1    N     N_R   0.991755 0.495023 0.850180 -0.415069
N2    N     N_R   0.216451 0.508341 0.149700 -0.427323
O1    O     O_2   0.888680 0.450300 0.360330 -0.461236
O2    O     O_2   0.157483 0.177709 0.526851 -0.414907
O3    O     O_3   0.088456 0.178434 0.637365 -0.535463
O4    O     O_3   0.129270 0.451230 0.431380 -0.452084
O5    O     O_3   0.578310 0.608920 0.529980 -0.510085
O6    O     O_2   0.337770 0.279070 0.470480 -0.423139
O7    O     O_3   0.510017 0.256241 0.371236 -0.639281
O8    O     O_2   0.381771 0.444398 0.703025 -0.448537
O9    O     O_3   0.498127 0.301982 0.709764 -0.598394
O10   O     O_2   0.083785 0.645469 0.857381 -0.578535
O11   O     O_2   0.916000 0.343794 0.848022 -0.558094
O12   O     O_3   0.682910 0.736326 0.623725 -0.616634
O13   O     O_2   0.122263 0.357906 0.142548 -0.565901
O14   O     O_2   0.315776 0.657173 0.147844 -0.618723
O15   O     O_3   0.676100 0.614850 0.396630 -0.484444
O16   O     O_2   0.785477 0.545590 0.293573 -0.456651
O17   O     O_3   0.026272 0.304381 0.365325 -0.673806
O18   O     O_3   0.745902 0.712579 0.296399 -0.627845
O19   O     O_2   0.851930 0.720960 0.529560 -0.435916
O20   O     O_3   0.095720 0.661380 0.425720 -0.506942
O21   O     O_2   0.014371 0.821911 0.461921 -0.413753
O22   O     O_2   0.863313 0.903608 0.304009 -0.570390
O23   O     O_3   0.127837 0.806197 0.353974 -0.590785
O24   O     O_R   0.783352 0.898865 0.399439 -0.771818
O25   O     O_2   0.703524 0.124767 0.328240 -0.519537
O26   O     O_R   0.902104 0.134698 0.395740 -0.758107
O27   O     O_2   0.564316 0.183985 0.226302 -0.253435
O28   O     O_2   0.434729 0.281516 0.170272 -0.238381
O29   O     O_3   0.684521 0.356817 0.235351 -0.568610
O30   O     O_2   0.138580 0.062543 0.794070 -0.216941
O31   O     O_2   0.897762 0.135151 0.807447 -0.285671
O32   O     O_3   0.939234 0.043473 0.705517 -0.454697
O33   O     O_2   0.425957 0.203646 0.595708 -0.574585
O34   O     O_2   0.301020 0.549730 0.639710 -0.468749
O35   O     O_R   0.455718 0.082024 0.641603 -0.728700
O36   O     O_2   0.561952 0.367293 0.835816 -0.257247
O37   O     O_2   0.684138 0.511580 0.890481 -0.289723
O38   O     O_3   0.459664 0.513442 0.814511 -0.533260
O39   O     O_2   0.261674 0.855012 0.584677 -0.345177
O40   O     O_2   0.004166 0.896279 0.621116 -0.259766
O41   O     O_3   0.247707 0.922285 0.694397 -0.430134
O42   O     O_3   0.060450 0.548840 0.568630 -0.473766
O43   O     O_3   0.513610 0.385220 0.603380 -0.450332
O44   O     O_3   0.207401 0.693794 0.639590 -0.633615
O45   O     O_3   0.611400 0.391150 0.470030 -0.485709
O46   O     O_3   0.093990 0.338690 0.574280 -0.490607
P1    P     P_3+3 0.054670 0.423610 0.368990 0.990641
P2    P     P_3+3 0.674060 0.707690 0.546600 1.045028
P3    P     P_3+3 0.145858 0.778370 0.425989 1.020961
P4    P     P_3+3 0.135040 0.576460 0.631020 0.985327
P5    P     P_3+3 0.042509 0.219564 0.571638 1.046247
P6    P     P_3+3 0.664898 0.607085 0.319244 0.964379
P7    P     P_3+3 0.518430 0.279523 0.448412 1.000361
P8    P     P_3+3 0.534167 0.405613 0.680822 1.041105
S1    S     S_3+6 0.518099 0.276080 0.227492 -0.062654
S2    S     S_3+6 0.026271 0.111549 0.764170 -0.012078
S3    S     S_3+6 0.619024 0.466227 0.831343 -0.047583
S4    S     S_3+6 0.149362 0.856786 0.636767 -0.028838

loop_
_geom_bond_atom_site_label_1
_geom_bond_atom_site_label_2
_ccdc_geom_bond_type
C6    C7    A    
C47   O17   S    
O39   S4    D    
C48   H45   S    
C54   H17   S    
O29   S1    S    
C23   H8    S    
C30   N2    S    
C19   C24   D    
Ba1   O15   S    
C31   H35   S    
Ba2   O45   S    
C38   P7    S    
C49   O12   S    
C53   O35   S    
C43   C44   A    
C42   C43   A    
O1    P1    D    
C32   C38   A    
C33   C35   A    
H52   O41   S    
C22   C24   S    
C32   C33   A    
H46   O24   S    
C36   C37   A    
O34   P4    D    
C41   P3    S    
O19   P2    D    
C9    H27   S    
C13   C14   A    
C14   H25   S    
C42   P2    S    
Ba1   Ba2   S    
C16   H43   S    
C46   H40   S    
O16   P6    D    
Ba1   O5    S    
O20   P3    S    
C7    C11   A    
O9    P8    S    
O43   P8    S    
C27   C57   A    
Ba1   P1    S    
O42   P4    S    
C14   C15   A    
C21   C31   D    
C40   H23   S    
C28   H44   S    
C32   H41   S    
C21   C22   D    
H51   O38   S    
C5    O11   D    
Ba1   O19   S    
C41   C46   A    
O32   S2    S    
C20   P8    S    
C56   H21   S    
C13   H26   S    
C17   O13   D    
C1    H2    S    
C52   O26   S    
O28   S1    D    
C4    H22   S    
C19   C20   S    
C22   H30   S    
C39   C41   A    
C27   P1    S    
C10   C18   A    
C23   H9    S    
C18   N2    Am   
C34   H11   S    
Ba1   O4    S    
Ba2   O5    S    
O23   P3    S    
C4    C16   S    
C34   S1    S    
C49   H55   S    
O37   S3    D    
C49   C50   S    
Ba1   O42   S    
H50   O35   S    
H47   O26   S    
C50   H5    S    
C40   H1    S    
C55   O9    S    
H48   O29   S    
Ba2   O42   S    
C37   H39   S    
Ba2   O6    S    
O4    P1    S    
O36   S3    D    
C49   H56   S    
C54   H18   S    
C35   H37   S    
C16   H42   S    
C5    N1    Am   
C35   C36   A    
Ba2   O4    S    
O41   S4    S    
C29   C30   A    
O45   P7    S    
Ba1   P2    S    
C39   C44   A    
C29   H31   S    
C8    H29   S    
C3    O10   D    
C48   H53   S    
C33   P5    S    
C57   H32   S    
C25   H28   S    
O44   P4    S    
C1    C12   S    
C56   H20   S    
O40   S4    D    
C21   P4    S    
O38   S3    S    
C45   O3    S    
C52   O25   D    
Ba1   O45   S    
C19   S3    S    
C16   H14   S    
C53   C55   S    
C3    N1    Am   
C1    H7    S    
O15   P6    S    
C18   O14   D    
C2    C8    A    
C28   S4    S    
C37   C38   A    
Ba1   O20   S    
C34   H10   S    
O3    P5    S    
C53   O33   D    
C26   C57   A    
Ba2   O34   S    
C20   C31   S    
C25   C30   A    
C51   O22   D    
C55   H19   S    
C45   H15   S    
C2    C3    A    
C50   H4    S    
Ba2   O46   S    
C9    C10   A    
O30   S2    D    
O12   P2    S    
C6    C13   A    
O27   S1    D    
O31   S2    D    
C11   C15   A    
C54   S2    S    
O21   P3    D    
C48   H54   S    
O46   P5    S    
C45   H16   S    
C27   C29   A    
C43   H38   S    
C56   H24   S    
C55   C56   S    
C39   H36   S    
C4    H33   S    
Ba2   P4    S    
C40   H12   S    
C15   C17   A    
C12   H6    S    
O17   P1    S    
C1    H13   S    
C51   O24   S    
Ba1   O1    S    
O18   P6    S    
C4    O23   S    
O8    P8    D    
C23   O7    S    
C24   N1    S    
C36   C44   S    
O6    P7    D    
C5    C6    A    
C8    C9    A    
C23   C34   S    
H49   O32   S    
C42   C46   A    
C26   P6    S    
C12   C51   S    
O7    P7    S    
C10   C11   A    
C17   N2    Am   
Ba2   O43   S    
C47   C48   S    
C12   O18   S    
C25   C26   A    
O5    P2    S    
C28   C40   S    
C50   H3    S    
C28   O44   S    
C47   H34   S    
C2    C7    A    
O2    P5    D    
C47   C52   S    
C45   C54   S    
