data_mof_unit_54157.cif
_audit_creation_date              2012-12-11T15:16:42-0500
_audit_creation_method            fapswitch 2.2
_symmetry_space_group_name_H-M    P1
_symmetry_Int_Tables_number       1
_space_group_crystal_system       triclinic
_cell_length_a                    25.391105
_cell_length_b                    7.200646
_cell_length_c                    21.857767
_cell_angle_alpha                 90.069272
_cell_angle_beta                  109.965859
_cell_angle_gamma                 89.952329
_cell_volume                      3756.110952

loop_
_atom_site_label
_atom_site_type_symbol
_atom_type_description
_atom_site_fract_x
_atom_site_fract_y
_atom_site_fract_z
_atom_type_partial_charge
O1    O     O_R   0.554350 0.505270 0.581390 -0.525829
O2    O     O_R   0.445650 0.005270 0.418610 -0.526237
O3    O     O_R   0.553380 0.177580 0.454800 -0.522207
O4    O     O_R   0.446620 0.677580 0.545200 -0.519462
C1    C     C_R   0.566692 0.344945 0.438885 0.827092
C2    C     C_R   0.433190 0.845293 0.561039 0.834505
O5    O     O_R   0.560970 0.175640 0.583140 -0.535291
O6    O     O_R   0.439030 0.675640 0.416860 -0.535307
O7    O     O_R   0.453290 0.004120 0.547860 -0.492260
O8    O     O_R   0.546710 0.504120 0.452140 -0.495357
C3    C     C_R   0.578376 0.344962 0.606109 0.854594
C4    C     C_R   0.421609 0.844884 0.393935 0.852378
O9    O     O_3   0.464660 0.338800 0.488280 -0.350657
O10   O     O_3   0.535340 0.838800 0.511720 -0.355351
V1    V     V_3+5 0.506560 0.064420 0.502170 1.744273
V2    V     V_3+5 0.493440 0.564420 0.497830 1.744867
C5    C     C_R   0.143045 0.908794 0.290166 0.308285
C6    C     C_R   0.856950 0.403886 0.709918 0.308716
C7    C     C_R   0.119943 0.937013 0.172819 -0.246846
C8    C     C_R   0.880066 0.436529 0.827174 -0.246454
C9    C     C_R   0.390605 0.786408 0.276129 0.226649
C10   C     C_R   0.609342 0.289416 0.724127 0.228246
C11   C     C_R   0.349240 0.752565 0.214956 0.198610
C12   C     C_R   0.650640 0.257229 0.785466 0.197220
C13   C     C_R   0.292301 0.770062 0.207528 0.435541
C14   C     C_R   0.707594 0.273847 0.792940 0.434890
C15   C     C_R   0.276211 0.862032 0.255829 -0.012604
C16   C     C_R   0.723762 0.363345 0.744343 -0.011787
C17   C     C_R   0.317769 0.894248 0.318723 -0.233588
C18   C     C_R   0.682257 0.394074 0.681317 -0.233999
C19   C     C_R   0.218443 0.906741 0.244587 0.013008
C20   C     C_R   0.781557 0.406911 0.755467 0.013402
C21   C     C_R   0.200781 0.927371 0.298828 -0.249959
C22   C     C_R   0.799257 0.424517 0.701177 -0.250152
C23   C     C_R   0.241388 0.971631 0.359787 0.459326
C24   C     C_R   0.758722 0.467780 0.640085 0.458457
C25   C     C_R   0.298739 0.963763 0.368523 0.351402
C26   C     C_R   0.701363 0.461434 0.631372 0.346100
C27   C     C_R   0.178113 0.937767 0.181432 0.352158
C28   C     C_R   0.821897 0.439549 0.818509 0.351614
C29   C     C_R   0.102641 0.913361 0.226806 0.296888
C30   C     C_R   0.897336 0.409251 0.773292 0.299092
C31   C     C_R   0.375697 0.851072 0.328819 -0.130379
C32   C     C_R   0.624303 0.351724 0.671255 -0.132145
C33   C     C_R   0.096292 0.784585 0.853162 0.306722
C34   C     C_R   0.901477 0.281333 0.144625 0.310634
C35   C     C_R   0.129788 0.774101 0.812980 0.258823
C36   C     C_R   0.867435 0.270852 0.184202 0.254514
C37   C     C_R   0.170171 0.911911 0.816698 -0.189297
C38   C     C_R   0.828744 0.413004 0.182272 -0.190511
C39   C     C_R   0.176650 0.062272 0.860047 0.368967
C40   C     C_R   0.824248 0.567285 0.141230 0.367737
C41   C     C_R   0.144647 0.070639 0.901986 0.213788
C42   C     C_R   0.856341 0.575208 0.099376 0.214781
C43   C     C_R   0.103039 0.934054 0.897606 -0.247148
C44   C     C_R   0.896534 0.434567 0.102100 -0.248159
N1    N     N_R   0.214361 0.050604 0.742544 -0.169047
N2    N     N_R   0.788327 0.544393 0.261281 -0.172593
N3    N     N_R   0.247521 0.040805 0.706722 -0.182022
N4    N     N_R   0.755179 0.533294 0.297122 -0.195867
C45   C     C_R   0.274116 0.879981 0.702278 0.646131
C46   C     C_R   0.724359 0.378019 0.295826 0.498611
N5    N     N_R   0.265860 0.728851 0.735063 -0.200321
N6    N     N_R   0.728050 0.234223 0.257199 -0.229392
N7    N     N_R   0.232694 0.738652 0.770943 -0.206192
N8    N     N_R   0.761327 0.245169 0.221505 -0.212229
C47   C     C_R   0.206268 0.899757 0.775481 0.642438
C48   C     C_R   0.792141 0.400421 0.222784 0.657126
C49   C     C_R   0.314020 0.717259 0.625681 0.301598
C50   C     C_R   0.687187 0.219979 0.376508 0.382641
C51   C     C_R   0.350772 0.713066 0.589048 0.280003
C52   C     C_R   0.649150 0.213348 0.410776 0.392184
C53   C     C_R   0.390611 0.857492 0.595480 -0.241390
C54   C     C_R   0.608809 0.355979 0.404013 -0.354424
C55   C     C_R   0.388080 0.015787 0.633825 0.294399
C56   C     C_R   0.610317 0.511136 0.364371 0.386209
C57   C     C_R   0.349206 0.023288 0.667472 0.282138
C58   C     C_R   0.646280 0.514741 0.327753 0.359142
C59   C     C_R   0.313325 0.872490 0.664607 -0.142836
C60   C     C_R   0.685339 0.369595 0.333518 -0.303016
O11   O     O_R   0.953220 0.285790 0.047790 -0.503879
O12   O     O_R   0.046780 0.785790 0.952210 -0.505328
O13   O     O_R   0.939020 0.617570 0.916840 -0.540426
O14   O     O_R   0.060980 0.117570 0.083160 -0.540340
C61   C     C_R   0.924025 0.448107 0.892501 0.768611
C62   C     C_R   0.075970 0.948200 0.107499 0.768596
O15   O     O_R   0.946600 0.615450 0.045180 -0.537365
O16   O     O_R   0.053400 0.115450 0.954820 -0.537675
O17   O     O_R   0.054370 0.786770 0.081410 -0.527075
O18   O     O_R   0.945630 0.286770 0.918590 -0.526757
C63   C     C_R   0.934374 0.446634 0.062055 0.752894
C64   C     C_R   0.065519 0.946478 0.937901 0.753279
O19   O     O_3   0.035300 0.454160 0.011680 -0.375500
O20   O     O_3   0.964700 0.954160 0.988320 -0.374524
V3    V     V_3+5 0.993450 0.728620 0.997830 1.586819
V4    V     V_3+5 0.006550 0.228620 0.002170 1.587404
O21   O     O_3   0.045731 0.898455 0.215451 -0.611146
H1    H     H_    0.037955 0.916916 0.256344 0.368412
O22   O     O_3   0.954198 0.391568 0.784762 -0.612586
H2    H     H_    0.962063 0.406926 0.743811 0.368254
Cl1   Cl    Cl    0.117138 0.597682 0.752969 -0.494691
Cl2   Cl    Cl    0.876956 0.087704 0.241193 -0.512732
O23   O     O_3   0.216805 0.194769 0.862461 -0.590735
H3    H     H_    0.214726 0.298649 0.891222 0.362363
O24   O     O_3   0.785787 0.704126 0.140807 -0.593284
H4    H     H_    0.789315 0.810121 0.113696 0.363866
O25   O     O_3   0.156298 0.210863 0.947802 -0.623828
H5    H     H_    0.152530 0.160269 0.988167 0.297936
O26   O     O_3   0.846097 0.718977 0.055140 -0.623837
H6    H     H_    0.848108 0.668986 0.013791 0.298500
O27   O     O_3   0.276093 0.576256 0.622109 -0.571171
H7    H     H_    0.287488 0.462110 0.604787 0.370032
O28   O     O_3   0.726379 0.078835 0.387897 -0.543285
H8    H     H_    0.758253 0.118915 0.374884 0.347337
Cl3   Cl    Cl    0.340888 0.538119 0.528912 -0.497311
Cl4   Cl    Cl    0.658469 0.031568 0.467991 -0.414917
Cl5   Cl    Cl    0.433862 0.206752 0.642381 -0.565385
Cl6   Cl    Cl    0.567292 0.708450 0.357148 -0.477050
O29   O     O_3   0.346993 0.172155 0.706724 -0.594427
H9    H     H_    0.362955 0.284568 0.694059 0.358884
O30   O     O_3   0.641420 0.663409 0.286128 -0.561615
H10   H     H_    0.652530 0.624006 0.248891 0.322949
O31   O     O_3   0.226491 0.043985 0.410107 -0.544462
H11   H     H_    0.193974 0.127579 0.390918 0.351057
O32   O     O_3   0.773718 0.537743 0.589570 -0.542782
H12   H     H_    0.806440 0.620611 0.608534 0.352886
Cl7   Cl    Cl    0.121952 0.847300 0.356967 -0.482323
Cl8   Cl    Cl    0.877905 0.338811 0.643285 -0.484648
O33   O     O_3   0.197128 0.985073 0.131194 -0.603863
H13   H     H_    0.165306 0.004289 0.090392 0.264093
O34   O     O_3   0.802920 0.490078 0.868532 -0.604410
H14   H     H_    0.834759 0.512065 0.909119 0.264753
O35   O     O_3   0.446211 0.746475 0.287045 -0.607256
H15   H     H_    0.448523 0.640740 0.259022 0.326764
O36   O     O_3   0.553738 0.250358 0.713316 -0.605310
H16   H     H_    0.551379 0.145726 0.741665 0.329374
O37   O     O_3   0.251654 0.685469 0.155724 -0.609006
H17   H     H_    0.269156 0.609614 0.130043 0.349289
O38   O     O_3   0.748186 0.190761 0.845145 -0.609243
H18   H     H_    0.730633 0.116400 0.871073 0.348857
O39   O     O_3   0.363113 0.697899 0.161757 -0.632456
H19   H     H_    0.399915 0.752298 0.165512 0.328479
O40   O     O_3   0.636675 0.205128 0.838808 -0.632940
H20   H     H_    0.599881 0.260240 0.834798 0.327595
Cl9   Cl    Cl    0.342983 0.066967 0.440717 -0.552337
Cl10  Cl    Cl    0.657234 0.564090 0.559071 -0.553649
O41   O     O_3   0.054867 0.654822 0.848103 -0.593968
H21   H     H_    0.063305 0.537977 0.829550 0.360878
O42   O     O_3   0.941583 0.147494 0.148332 -0.593079
H22   H     H_    0.932488 0.031094 0.166440 0.362851

loop_
_geom_bond_atom_site_label_1
_geom_bond_atom_site_label_2
_ccdc_geom_bond_type
O14   C62   A    
N8    C48   A    
N5    N7    A    
O4    V2    S    
C35   Cl1   S    
O15   C63   A    
C15   C17   A    
O27   H7    S    
O1    C3    A    
C7    C62   S    
O2    C4    A    
C2    O7    A    
O16   V4    S    
O21   H1    S    
O31   H11   S    
C35   C37   A    
O5    C3    A    
C54   C56   A    
C46   C60   S    
C23   C25   A    
C12   C14   A    
O28   H8    S    
C4    C31   S    
C6    C30   A    
C8    C28   A    
C58   C60   A    
N1    N3    A    
C12   O40   S    
C39   O23   S    
O40   H20   S    
O12   C64   A    
C18   C26   A    
N4    C46   A    
O14   V4    S    
C33   C35   A    
C1    C54   S    
C49   C51   A    
C58   O30   S    
C26   Cl10  S    
C46   N6    A    
O41   H21   S    
C6    Cl8   S    
C9    C31   A    
C44   C63   S    
C10   C32   A    
C24   O32   S    
C16   C18   A    
N7    C47   A    
O15   V3    S    
C38   C40   A    
O25   H5    S    
C19   C21   A    
C22   C24   A    
C36   C38   A    
C36   Cl2   S    
O6    V2    S    
C17   C31   A    
C53   C55   A    
C18   C32   A    
C5    C21   A    
N1    C47   A    
C9    O35   S    
C55   Cl5   S    
C40   C42   A    
C34   C36   A    
C41   C43   A    
C50   O28   S    
C61   O18   A    
C42   C44   A    
N3    C45   A    
C15   C19   A    
O16   C64   A    
O36   H16   S    
C52   C54   A    
C14   O38   S    
O26   H6    S    
C51   C53   A    
O11   V4    S    
C5    Cl7   S    
C27   O33   S    
C37   C39   A    
C50   C60   A    
C56   Cl6   S    
C42   O26   S    
C39   C41   A    
C20   C22   A    
O17   V3    S    
C13   O37   S    
C43   C64   S    
C6    C22   A    
C41   O25   S    
O22   H2    S    
C16   C20   A    
O6    C4    A    
O13   V3    S    
C8    C61   S    
C34   O42   S    
C45   N5    A    
C57   C59   A    
C51   Cl3   S    
C3    C32   S    
O1    V2    S    
O29   H9    S    
O2    V1    S    
C55   C57   A    
O30   H10   S    
C7    C27   A    
O4    C2    A    
O13   C61   A    
C28   O34   S    
C40   O24   S    
O19   V4    S    
C9    C11   A    
O35   H15   S    
C29   O21   S    
C49   C59   A    
C34   C44   A    
O34   H14   S    
O3    C1    A    
O3    V1    S    
C2    C53   S    
O33   H13   S    
O37   H17   S    
N2    C48   A    
O12   V3    S    
C37   C47   S    
C33   O41   S    
C56   C58   A    
C57   O29   S    
C62   O17   A    
C8    C30   A    
O38   H18   S    
O18   V4    S    
C13   C15   A    
O24   H4    S    
C52   Cl4   S    
C14   C16   A    
C10   O36   S    
C23   O31   S    
O7    V1    S    
C1    O8    A    
O8    V2    S    
O39   H19   S    
C30   O22   S    
C24   C26   A    
C49   O27   S    
O32   H12   S    
C38   C48   S    
C45   C59   S    
O5    V1    S    
C21   C23   A    
C19   C27   A    
C10   C12   A    
C20   C28   A    
O20   V3    S    
C5    C29   A    
O11   C63   A    
C11   C13   A    
C33   C43   A    
O9    V2    S    
C17   C25   A    
O23   H3    S    
O10   V1    S    
C11   O39   S    
C50   C52   A    
C25   Cl9   S    
O42   H22   S    
N2    N4    A    
C7    C29   A    
N6    N8    A    
