data_mof_unit_30566.cif
_audit_creation_date              2012-12-10T18:31:58-0500
_audit_creation_method            fapswitch 2.2
_symmetry_space_group_name_H-M    P1
_symmetry_Int_Tables_number       1
_space_group_crystal_system       triclinic
_cell_length_a                    10.660922
_cell_length_b                    15.011601
_cell_length_c                    15.663298
_cell_angle_alpha                 82.516179
_cell_angle_beta                  89.389909
_cell_angle_gamma                 104.470124
_cell_volume                      2404.08475292

loop_
_atom_site_label
_atom_site_type_symbol
_atom_type_description
_atom_site_fract_x
_atom_site_fract_y
_atom_site_fract_z
_atom_type_partial_charge
C1    C     C_R   0.480307 0.441955 0.661679 0.872861
C2    C     C_R   0.504015 0.449166 0.898360 0.070477
C3    C     C_R   0.477935 0.353122 0.931252 0.113585
C4    C     C_R   0.741749 0.499281 0.501820 0.859642
C5    C     C_R   0.534813 0.518334 0.954346 0.011006
C6    C     C_R   0.520787 0.489164 0.044163 0.043566
C7    C     C_R   0.477845 0.393379 0.075344 -0.228582
C8    C     C_R   0.464354 0.326025 0.020724 -0.029561
C9    C     C_R   0.578081 0.615734 0.925291 -0.008909
C10   C     C_R   0.571089 0.679560 0.981042 -0.246372
C11   C     C_R   0.548905 0.650746 0.069399 0.076134
C12   C     C_3   0.120580 0.496084 0.505019 0.086560
C13   C     C_R   0.542955 0.556987 0.101170 0.046637
C14   C     C_R   0.542967 0.714170 0.127680 0.010305
C15   C     C_R   0.532221 0.683379 0.216046 -0.237673
C16   C     C_R   0.522273 0.558139 0.338582 0.891904
C17   C     C_R   0.562684 0.534966 0.188799 -0.067601
C18   C     C_R   0.724805 0.852074 0.609078 -0.280761
C19   C     C_R   0.687809 0.761760 0.590246 0.041281
C20   C     C_R   0.497089 0.788625 0.527703 -0.051708
C21   C     C_R   0.539379 0.884505 0.532698 -0.004526
C22   C     C_R   0.649055 0.913291 0.581711 0.148488
C23   C     C_3   0.092082 0.550739 0.419639 -0.398096
C24   C     C_R   0.476280 0.951703 0.493040 0.011160
C25   C     C_R   0.509029 0.043418 0.518113 0.025373
C26   C     C_R   0.601553 0.061768 0.583516 -0.010362
C27   C     C_R   0.677631 0.000631 0.607484 -0.233854
C28   C     C_R   0.257659 0.498019 0.503135 0.861881
C29   C     C_R   0.386035 0.932469 0.427044 -0.016413
C30   C     C_R   0.318222 0.996230 0.396083 -0.217675
C31   C     C_R   0.348755 0.085823 0.418053 0.090349
C32   C     C_R   0.449372 0.112051 0.475714 -0.012222
C33   C     C_R   0.286452 0.151741 0.377702 -0.121893
C34   C     C_3   0.085331 0.541862 0.582236 -0.430231
C35   C     C_R   0.327682 0.243611 0.393583 0.070974
C36   C     C_R   0.490302 0.207436 0.484154 -0.059513
C37   C     C_3   0.893579 0.394001 0.505992 -0.109709
C38   C     C_3   0.036501 0.394459 0.515336 -0.425248
C39   C     C_3   0.951233 0.558058 0.422366 -0.513642
C40   C     C_3   0.938656 0.535599 0.585650 0.370028
C41   C     C_3   0.877984 0.496425 0.503655 0.049216
C42   C     C_1   0.846355 0.349464 0.429347 0.193393
C43   C     C_1   0.427930 0.229478 0.058646 0.170413
C44   C     C_1   0.631258 0.464564 0.216098 0.176134
C45   C     C_R   0.473376 0.407905 0.753723 -0.071103
C46   C     C_1   0.649371 0.654289 0.844597 0.142892
C47   C     C_1   0.542747 0.809628 0.098962 0.164464
C48   C     C_1   0.270301 0.313372 0.349615 0.247242
C49   C     C_1   0.614733 0.135801 0.635774 0.114698
C50   C     C_1   0.368476 0.853895 0.379888 0.134722
C51   C     C_1   0.181970 0.126579 0.319489 0.151377
C52   C     C_3   0.840280 0.524637 0.721697 -0.295400
C53   C     C_R   0.540804 0.593413 0.246801 -0.130574
C54   C     C_R   0.457726 0.286592 0.873484 -0.179999
C55   C     C_R   0.458420 0.314263 0.785057 -0.162041
C56   C     C_R   0.487430 0.472825 0.811029 -0.255364
H1    H     H_    0.139865 0.616295 0.575196 0.149513
H2    H     H_    0.451144 0.369617 0.142847 0.166102
H3    H     H_    0.754196 0.018625 0.652186 0.152876
H4    H     H_    0.575721 0.237058 0.516190 0.156052
H5    H     H_    0.246946 0.977059 0.348391 0.165325
H6    H     H_    0.811726 0.873923 0.644193 0.150846
H7    H     H_    0.748158 0.714645 0.607402 0.134304
H8    H     H_    0.403214 0.756951 0.506169 0.145429
H9    H     H_    0.049403 0.358211 0.580113 0.177568
H10   H     H_    0.068337 0.354815 0.467531 0.195669
H11   H     H_    0.903880 0.536342 0.362780 0.202319
H12   H     H_    0.949523 0.631747 0.423578 0.185287
H13   H     H_    0.108833 0.514849 0.364325 0.202587
H14   H     H_    0.927438 0.608024 0.584124 0.069111
H15   H     H_    0.113993 0.507509 0.643655 0.190718
H16   H     H_    0.762631 0.556752 0.696311 0.188604
H17   H     H_    0.923921 0.578239 0.740516 0.163884
H18   H     H_    0.799717 0.475495 0.780347 0.209061
H19   H     H_    0.158156 0.621863 0.408976 0.194408
H20   H     H_    0.521339 0.730346 0.260789 0.192668
H21   H     H_    0.594117 0.752890 0.955972 0.163184
H22   H     H_    0.440339 0.213107 0.896175 0.156211
H23   H     H_    0.443723 0.262451 0.741702 0.176618
H24   H     H_    0.480267 0.541772 0.786814 0.178675
H25   H     H_    0.836781 0.349054 0.562697 0.179130
N1    N     N_R   0.573860 0.731700 0.552730 -0.108435
N2    N     N_1   0.352784 0.791442 0.341513 -0.226791
N3    N     N_1   0.098839 0.106687 0.273141 -0.175539
N4    N     N_R   0.426060 0.268290 0.447230 -0.131250
N5    N     N_1   0.810186 0.313352 0.370115 -0.165900
N6    N     N_1   0.398777 0.152312 0.089155 -0.176985
N7    N     N_1   0.686081 0.408499 0.237196 -0.171169
N8    N     N_1   0.707883 0.686443 0.780675 -0.250379
N9    N     N_1   0.542522 0.886061 0.076058 -0.179603
N10   N     N_1   0.223875 0.368523 0.313416 -0.219796
N11   N     N_1   0.626825 0.194655 0.678307 -0.207271
O1    O     O_R   0.462770 0.383110 0.605620 -0.613195
O2    O     O_R   0.510160 0.531900 0.639510 -0.624303
O3    O     O_R   0.661510 0.425600 0.483070 -0.620358
O4    O     O_R   0.708900 0.574390 0.516960 -0.646385
O5    O     O_R   0.489840 0.468100 0.360490 -0.604499
O6    O     O_R   0.537230 0.616890 0.394380 -0.607659
O7    O     O_R   0.291100 0.425610 0.483040 -0.627789
O8    O     O_R   0.338490 0.574400 0.516930 -0.630746
O9    O     O_3   0.879303 0.474880 0.660518 -0.616461
Zn1   Zn    Zn3+2 0.468350 0.400660 0.477370 0.965877
Zn2   Zn    Zn3+2 0.531650 0.599340 0.522630 0.944757

loop_
_geom_bond_atom_site_label_1
_geom_bond_atom_site_label_2
_ccdc_geom_bond_type
C20   N1    A    
C11   C13   A    
C39   H12   S    
C23   H13   S    
C8    C43   S    
C16   O6    A    
C7    C8    A    
C39   C41   S    
C46   N8    T    
C12   C23   S    
C26   C27   A    
C37   C38   S    
C40   H14   S    
C12   C28   S    
C34   C40   S    
C32   C36   A    
C52   H18   S    
C30   C31   A    
C3    C54   A    
C16   O5    A    
C4    C41   S    
O6    Zn2   S    
C15   C53   A    
C18   C19   A    
C37   C42   S    
C16   C53   S    
C33   C35   A    
C40   O9    S    
C4    O4    A    
C38   H10   S    
C45   C56   A    
C19   H7    S    
C1    O2    A    
C48   N10   T    
C34   H1    S    
N1    Zn2   S    
C31   C33   A    
C42   N5    T    
C19   N1    A    
C9    C10   A    
C7    H2    S    
O5    Zn1   S    
O3    Zn1   S    
C28   O8    A    
C25   C32   A    
C15   H20   S    
C9    C46   S    
C21   C22   A    
C12   C38   S    
C37   H25   S    
C35   C48   S    
C10   H21   S    
C50   N2    T    
C29   C50   S    
C52   O9    S    
C24   C25   A    
C3    C8    A    
C26   C49   S    
C18   H6    S    
C25   C26   A    
O8    Zn2   S    
C20   H8    S    
C5    C9    A    
C29   C30   A    
C52   H16   S    
C4    O3    A    
C55   H23   S    
C31   C32   A    
C38   H9    S    
C6    C7    A    
C28   O7    A    
C40   C41   S    
O2    Zn2   S    
C52   H17   S    
C22   C27   A    
C47   N9    T    
C30   H5    S    
C2    C5    A    
C49   N11   T    
C12   C34   S    
C17   C53   A    
C54   C55   A    
C18   C22   A    
C39   H11   S    
C23   H19   S    
C36   H4    S    
O1    Zn1   S    
C14   C47   S    
C36   N4    A    
C33   C51   S    
C56   H24   S    
C13   C17   A    
C43   N6    T    
C2    C3    A    
C17   C44   S    
C27   H3    S    
C6    C13   A    
C35   N4    A    
C1    C45   S    
C5    C6    A    
C23   C39   S    
C34   H15   S    
C11   C14   A    
C44   N7    T    
C37   C41   S    
C10   C11   A    
C24   C29   A    
O7    Zn1   S    
C20   C21   A    
C45   C55   A    
C1    O1    A    
C21   C24   A    
C14   C15   A    
C2    C56   A    
O4    Zn2   S    
C51   N3    T    
N4    Zn1   S    
C54   H22   S    
