data_mof_unit_19609.cif
_audit_creation_date              2013-03-05T15:52:18-0500
_audit_creation_method            fapswitch 2.2
_symmetry_space_group_name_H-M    P1
_symmetry_Int_Tables_number       1
_space_group_crystal_system       triclinic
_cell_length_a                    21.560044
_cell_length_b                    7.338926
_cell_length_c                    15.02008
_cell_angle_alpha                 90.057593
_cell_angle_beta                  72.955927
_cell_angle_gamma                 89.874142
_cell_volume                      2272.20098583

loop_
_atom_site_label
_atom_site_type_symbol
_atom_site_description
_atom_site_fract_x
_atom_site_fract_y
_atom_site_fract_z
_atom_type_partial_charge
O1    O     O_R   0.464160 0.506670 0.130070 -0.574568
O2    O     O_R   0.535840 0.006670 0.869930 -0.594608
O3    O     O_R   0.589710 0.179080 0.006710 -0.595890
O4    O     O_R   0.410290 0.679080 0.993290 -0.593627
C1    C     C_R   0.615360 0.344726 0.004199 0.996858
C2    C     C_R   0.384242 0.845234 0.997721 1.007232
O5    O     O_R   0.467940 0.177220 0.138010 -0.564557
O6    O     O_R   0.532060 0.677220 0.861990 -0.575309
O7    O     O_R   0.413200 0.002810 0.002170 -0.561099
O8    O     O_R   0.586800 0.502810 0.997830 -0.527206
C3    C     C_R   0.455007 0.345709 0.173486 0.968765
C4    C     C_R   0.543678 0.845911 0.826265 0.951260
O9    O     O_3   0.482180 0.337850 0.955280 -0.288614
O10   O     O_3   0.517820 0.837850 0.044720 -0.248587
V1    V     V_3+5 0.503310 0.064600 0.008300 1.271386
V2    V     V_3+5 0.496690 0.564600 0.991700 1.271720
C5    C     C_R   0.571992 0.857563 0.725250 -0.154861
C6    C     C_R   0.425332 0.356278 0.274149 -0.163308
C7    C     C_R   0.928106 0.860917 0.275298 -0.189609
C8    C     C_R   0.069665 0.359223 0.724369 -0.187096
C9    C     C_R   0.559657 0.903950 0.571090 0.425332
C10   C     C_R   0.436145 0.408497 0.428539 0.421739
C11   C     C_R   0.532566 0.883881 0.667687 -0.233555
C12   C     C_R   0.463796 0.390018 0.332190 -0.215874
C13   C     C_R   0.639195 0.860353 0.688126 -0.184358
C14   C     C_R   0.358012 0.345351 0.310667 -0.140546
C15   C     C_R   0.669099 0.872162 0.591330 0.103303
C16   C     C_R   0.327421 0.361856 0.407361 0.105897
C17   C     C_R   0.628176 0.884521 0.532027 -0.036931
C18   C     C_R   0.367746 0.386767 0.467005 -0.037887
C19   C     C_R   0.738247 0.866479 0.551580 0.025861
C20   C     C_R   0.258252 0.350999 0.446965 0.025923
C21   C     C_R   0.765169 0.873458 0.453198 0.076058
C22   C     C_R   0.230899 0.372399 0.544809 0.073622
C23   C     C_R   0.723210 0.860553 0.397387 -0.070655
C24   C     C_R   0.272394 0.375577 0.601436 -0.077215
C25   C     C_R   0.656438 0.867052 0.435684 -0.058761
C26   C     C_R   0.339081 0.380908 0.563598 -0.056449
C27   C     C_R   0.781624 0.850053 0.606075 -0.217644
C28   C     C_R   0.215225 0.316564 0.393304 -0.179379
C29   C     C_R   0.847846 0.820338 0.565187 0.363478
C30   C     C_R   0.149091 0.285598 0.435672 0.359952
C31   C     C_R   0.873655 0.819334 0.468076 -0.026643
C32   C     C_R   0.123316 0.298400 0.532584 -0.030721
C33   C     C_R   0.833694 0.871306 0.412675 -0.007547
C34   C     C_R   0.162533 0.367266 0.585352 -0.007735
C35   C     C_R   0.938548 0.769392 0.424636 -0.073943
C36   C     C_R   0.059296 0.244530 0.578535 -0.064151
C37   C     C_R   0.963815 0.777967 0.328203 -0.099824
C38   C     C_R   0.034727 0.262657 0.674783 -0.094705
C39   C     C_R   0.864336 0.919604 0.318863 0.289547
C40   C     C_R   0.131569 0.426235 0.677376 0.286241
H1    H     H_    0.627466 0.849302 0.388600 0.197535
H2    H     H_    0.367594 0.374084 0.611784 0.195129
H3    H     H_    0.012384 0.727586 0.295477 0.201757
H4    H     H_    0.987239 0.208127 0.710034 0.200666
H5    H     H_    0.480566 0.894129 0.698989 0.165529
H6    H     H_    0.515657 0.405998 0.301516 0.169353
H7    H     H_    0.666590 0.852592 0.737150 0.162433
H8    H     H_    0.331080 0.324919 0.261351 0.163652
H9    H     H_    0.741615 0.836448 0.323269 0.206263
H10   H     H_    0.253636 0.364802 0.676346 0.210674
H11   H     H_    0.765809 0.854762 0.680868 0.208602
H12   H     H_    0.231457 0.306636 0.318538 0.212755
H13   H     H_    0.969369 0.716963 0.464046 0.181403
H14   H     H_    0.029007 0.180088 0.541656 0.181644
C41   C     C_3   0.230636 0.722125 0.922767 0.283373
C42   C     C_3   0.774531 0.180241 0.052376 0.292200
H15   H     H_    0.230542 0.762646 0.851907 0.192984
H16   H     H_    0.763459 0.193437 0.128840 0.176388
C43   C     C_3   0.302458 0.721359 0.924060 -0.570081
C44   C     C_3   0.708300 0.163949 0.031881 -0.519094
H17   H     H_    0.334488 0.759620 0.853934 0.195031
H18   H     H_    0.672081 0.111304 0.095512 0.224033
H19   H     H_    0.317076 0.581302 0.937161 0.264961
H20   H     H_    0.711425 0.064037 0.974996 0.282027
H21   H     H_    0.276516 0.648070 0.099486 0.177277
H22   H     H_    0.719747 0.308493 0.856220 0.128034
C45   C     C_3   0.193333 0.818112 0.097480 0.434413
C46   C     C_3   0.805474 0.373585 0.901865 0.414956
C47   C     C_3   0.223773 0.047879 0.960822 0.086786
C48   C     C_3   0.769625 0.511200 0.068252 0.067211
C49   C     C_3   0.188758 0.861033 0.995661 -0.475191
C50   C     C_3   0.811237 0.356686 0.005124 -0.469483
H23   H     H_    0.195752 0.156014 0.006258 0.220764
H24   H     H_    0.782125 0.634764 0.029051 0.230988
C51   C     C_3   0.313371 0.856028 0.998551 -0.260093
C52   C     C_3   0.685770 0.353964 0.005480 -0.274215
C53   C     C_3   0.266749 0.795778 0.094468 0.119935
C54   C     C_3   0.731869 0.403081 0.906526 0.098390
C55   C     C_3   0.294283 0.049384 0.971134 0.158445
C56   C     C_3   0.695512 0.487042 0.081776 0.121650
H25   H     H_    0.330827 0.083997 0.904487 0.156947
H26   H     H_    0.671365 0.421376 0.149681 0.151125
O11   O     O_R   0.913210 0.208550 0.002110 -0.552025
O12   O     O_R   0.086790 0.708550 0.997890 -0.547592
O13   O     O_R   0.032060 0.539960 0.861980 -0.554207
O14   O     O_R   0.967940 0.039960 0.138020 -0.556951
C57   C     C_R   0.043845 0.372298 0.825960 1.042993
C58   C     C_R   0.955841 0.872504 0.173968 1.068392
O15   O     O_R   0.910290 0.538020 0.993280 -0.540174
O16   O     O_R   0.089710 0.038020 0.006720 -0.556404
O17   O     O_R   0.964160 0.712340 0.130090 -0.570376
O18   O     O_R   0.035840 0.212340 0.869910 -0.573246
C59   C     C_R   0.883330 0.368976 0.002387 1.047808
C60   C     C_R   0.116697 0.869610 0.997651 1.065785
O19   O     O_3   0.017820 0.379210 0.044690 -0.265986
O20   O     O_3   0.982180 0.879210 0.955310 -0.255256
V3    V     V_3+5 0.996690 0.652500 0.991710 1.385153
V4    V     V_3+5 0.003310 0.152500 0.008290 1.375138
Br1   Br    Br    0.197817 0.479482 0.926381 -0.438662
Br2   Br    Br    0.819678 0.952198 0.034154 -0.358673
Br3   Br    Br    0.150120 0.588125 0.148988 -0.366675
Br4   Br    Br    0.833247 0.144205 0.831503 -0.395357
N1    N     N_R   0.224307 0.087459 0.863269 0.247169
O21   O     O_R   0.170178 0.110700 0.843032 -0.366504
O22   O     O_R   0.277828 0.089527 0.794668 -0.407760
N2    N     N_R   0.783595 0.532275 0.158423 0.248682
O23   O     O_R   0.831843 0.632751 0.163921 -0.369283
O24   O     O_R   0.744562 0.468854 0.235447 -0.369880
Br5   Br    Br    0.827830 0.106947 0.259876 -0.474226
Br6   Br    Br    0.163626 0.637873 0.725688 -0.484455
Br7   Br    Br    0.306032 0.253031 0.049511 -0.457327
Br8   Br    Br    0.653064 0.724969 0.097828 -0.459922
N3    N     N_R   0.159063 0.961867 0.162436 0.261874
O25   O     O_R   0.187243 0.113219 0.172492 -0.283505
O26   O     O_R   0.096372 0.953548 0.197543 -0.394988
N4    N     N_R   0.848470 0.518201 0.848303 0.260147
O27   O     O_R   0.841859 0.687600 0.874383 -0.271494
O28   O     O_R   0.899255 0.475481 0.779787 -0.357550
Br9   Br    Br    0.289575 0.884899 0.204162 -0.437614
Br10  Br    Br    0.711616 0.639686 0.861729 -0.470778
Br11  Br    Br    0.902351 0.799661 0.645303 -0.378651
Br12  Br    Br    0.093855 0.243847 0.358182 -0.375883
N5    N     N_R   0.517362 0.952931 0.515717 0.248990
O29   O     O_R   0.454771 0.937032 0.550357 -0.344971
O30   O     O_R   0.539129 0.046665 0.439540 -0.380211
N6    N     N_R   0.478009 0.456514 0.484521 0.243717
O31   O     O_R   0.540104 0.425440 0.453459 -0.346382
O32   O     O_R   0.457262 0.561786 0.556876 -0.390745

loop_
_geom_bond_atom_site_label_1
_geom_bond_atom_site_label_2
_geom_bond_distance
_ccdc_geom_bond_type
O18   V4    2.038007 S    
C3    C6    1.460776 S    
C41   C49   1.570799 S    
O14   V4    2.048284 S    
C51   C55   1.565424 S    
C15   C17   1.428497 A    
C21   C33   1.423437 A    
O1    C3    1.336698 A    
C46   C50   1.596743 S    
O2    C4    1.335373 A    
N4    O27   1.298013 A    
C2    O7    1.326306 A    
C29   Br11  1.918473 S    
N5    O29   1.301767 A    
C27   C29   1.395547 A    
H22   C54   1.112039 S    
O5    C3    1.341916 A    
H21   C53   1.110668 S    
C5    C11   1.392050 A    
C6    C12   1.390432 A    
C35   H13   1.081622 S    
C23   C25   1.385579 A    
C56   Br8   1.951258 S    
C33   C39   1.415584 A    
O15   V3    2.039014 S    
N1    O21   1.300231 A    
C34   C40   1.414239 A    
C48   C56   1.561080 S    
O20   V3    1.806888 S    
C18   C26   1.401187 A    
C11   H5    1.083608 S    
C42   Br2   1.912850 S    
N2    O23   1.298546 A    
C8    C38   1.398043 A    
O11   C59   1.340249 A    
O13   C57   1.337160 A    
C1    C52   1.525435 S    
C40   Br6   1.926945 S    
C52   C56   1.565553 S    
C16   C18   1.431366 A    
N1    O22   1.302526 A    
C51   C53   1.560685 S    
C6    C14   1.395637 A    
C4    C5    1.462712 S    
C19   C21   1.421488 A    
C22   C34   1.420889 A    
C22   C24   1.403729 A    
C44   H20   1.112202 S    
C54   Br10  1.956996 S    
C36   C38   1.392342 A    
C57   O18   1.333909 A    
C45   N3    1.477416 S    
O6    V2    2.048270 S    
C55   Br7   1.963831 S    
C29   C31   1.400502 A    
C30   C32   1.400646 A    
C24   H10   1.081363 S    
C44   C52   1.564901 S    
C32   C34   1.411537 A    
O15   C59   1.361089 A    
C43   H19   1.109006 S    
C15   C19   1.434812 A    
C42   C50   1.576046 S    
C16   C20   1.436922 A    
C44   H18   1.112229 S    
C43   H17   1.113643 S    
C46   N4    1.483852 S    
C48   H24   1.072735 S    
C9    C17   1.427493 A    
C58   O17   1.332812 A    
C38   H4    1.083148 S    
C2    C51   1.526255 S    
C42   C44   1.551267 S    
C41   H15   1.105950 S    
C20   C22   1.422426 A    
O4    V2    2.035540 S    
C53   Br9   1.964489 S    
C55   H25   1.107444 S    
O13   V3    2.045351 S    
C7    C37   1.397241 A    
C26   H2    1.079355 S    
O6    C4    1.344345 A    
C47   N1    1.490794 S    
C56   H26   1.111027 S    
C50   C59   1.545617 S    
C23   H9    1.080939 S    
O1    V2    2.034867 S    
O2    V1    2.033352 S    
C31   C33   1.414098 A    
N6    O32   1.299950 A    
C43   C51   1.561122 S    
C41   Br1   1.912555 S    
C52   C54   1.569560 S    
C48   C50   1.576232 S    
C45   Br3   1.975462 S    
N3    O25   1.296980 A    
C39   Br5   1.923871 S    
O19   V4    1.807142 S    
C10   C12   1.400560 A    
O16   V4    2.035619 S    
O4    C2    1.334788 A    
C13   C15   1.409945 A    
C48   N2    1.479155 S    
C24   C26   1.383127 A    
O3    V1    2.038932 S    
N5    O30   1.300323 A    
O12   C60   1.347188 A    
C10   C18   1.426777 A    
C46   Br4   1.982510 S    
C28   C30   1.399818 A    
O3    C1    1.332635 A    
O11   V4    2.013363 S    
N4    O28   1.301344 A    
C47   C49   1.580656 S    
C7    C58   1.465669 S    
C35   C37   1.391572 A    
C27   H11   1.074603 S    
O12   V3    2.015068 S    
C10   N6    1.446236 S    
C14   C16   1.413074 A    
C28   H12   1.076212 S    
C49   C60   1.546285 S    
O17   V3    2.036442 S    
C30   Br12  1.918386 S    
C5    C13   1.391830 A    
C9    C11   1.404260 A    
O7    V1    2.024141 S    
C25   H1    1.080025 S    
C1    O8    1.328882 A    
C8    C40   1.404520 A    
C37   H3    1.082149 S    
C45   C49   1.592821 S    
C8    C57   1.465948 S    
C14   H8    1.077314 S    
O5    V1    2.045334 S    
C21   C23   1.405290 A    
C19   C27   1.416895 A    
O16   C60   1.354506 A    
C41   C43   1.554297 S    
C20   C28   1.418794 A    
C46   C54   1.582224 S    
O14   C58   1.337937 A    
N2    O24   1.302060 A    
C45   C53   1.578355 S    
N6    O31   1.301646 A    
C47   C55   1.572641 S    
C7    C39   1.404794 A    
C12   H6    1.083945 S    
O9    V2    1.807519 S    
C17   C25   1.401473 A    
N3    O26   1.300489 A    
C42   H16   1.106504 S    
O10   V1    1.807264 S    
O8    V2    2.022265 S    
C13   H7    1.072017 S    
C36   H14   1.081578 S    
C31   C35   1.407004 A    
C9    N5    1.447850 S    
C47   H23   1.102553 S    
C32   C36   1.407943 A    
