data_mof_unit_65599.cif
_audit_creation_date              2013-03-05T16:26:44-0500
_audit_creation_method            fapswitch 2.2
_symmetry_space_group_name_H-M    P1
_symmetry_Int_Tables_number       1
_space_group_crystal_system       triclinic
_cell_length_a                    19.256924
_cell_length_b                    18.34584
_cell_length_c                    27.632975
_cell_angle_alpha                 89.851602
_cell_angle_beta                  89.27098
_cell_angle_gamma                 89.694661
_cell_volume                      9761.34038875

loop_
_atom_site_label
_atom_site_type_symbol
_atom_site_description
_atom_site_fract_x
_atom_site_fract_y
_atom_site_fract_z
_atom_type_partial_charge
O1    O     O_R   0.398130 0.560830 0.500010 -0.589853
O2    O     O_R   0.601870 0.439170 0.499990 -0.592849
O3    O     O_R   0.601870 0.560830 0.499990 -0.603291
O4    O     O_R   0.398130 0.439170 0.500010 -0.603878
C1    C     C_R   0.365513 0.500262 0.499786 0.934067
C2    C     C_R   0.634400 0.499772 0.500096 0.936387
O5    O     O_R   0.500010 0.560810 0.428750 -0.615953
O6    O     O_R   0.499990 0.439190 0.571250 -0.614651
O7    O     O_R   0.499990 0.560810 0.571250 -0.618268
O8    O     O_R   0.500010 0.439190 0.428750 -0.616734
C3    C     C_R   0.497817 0.500064 0.405979 0.939526
C4    C     C_R   0.501549 0.499970 0.594070 0.938054
Zn1   Zn    Zn3+2 0.500000 0.581210 0.500000 1.007151
Zn2   Zn    Zn3+2 0.500000 0.418790 0.500000 1.006874
C5    C     C_R   0.431989 0.470101 0.178020 0.559627
C6    C     C_R   0.522569 0.561175 0.822354 0.568629
O9    O     O_2   0.383744 0.432526 0.203540 -0.521169
O10   O     O_2   0.559260 0.611094 0.796900 -0.520907
N1    N     N_R   0.484993 0.503374 0.201393 -0.350855
N2    N     N_R   0.489746 0.506284 0.798841 -0.351878
C7    C     C_R   0.534824 0.542450 0.177284 0.571116
C8    C     C_R   0.452577 0.453982 0.822858 0.564910
C9    C     C_R   0.533701 0.453662 0.276398 0.236128
C10   C     C_R   0.448092 0.548398 0.720183 0.232595
C11   C     C_R   0.536166 0.453738 0.326668 -0.253859
C12   C     C_R   0.452490 0.546711 0.670040 -0.254460
C13   C     C_R   0.443106 0.543970 0.329959 0.137143
C14   C     C_R   0.546103 0.457339 0.673929 0.140543
C15   C     C_R   0.441199 0.544183 0.279701 -0.135331
C16   C     C_R   0.541904 0.459532 0.724260 -0.135349
C17   C     C_R   0.486729 0.500041 0.252920 0.205799
C18   C     C_R   0.492984 0.504564 0.747315 0.208049
C19   C     C_R   0.478870 0.513663 0.101744 -0.084837
C20   C     C_R   0.479867 0.513032 0.898555 -0.083944
C21   C     C_R   0.427619 0.474893 0.127773 -0.053505
C22   C     C_R   0.517898 0.565988 0.872624 -0.053564
C23   C     C_R   0.371839 0.443895 0.103409 -0.136351
C24   C     C_R   0.548211 0.624149 0.897095 -0.132966
C25   C     C_R   0.534136 0.547499 0.126416 -0.091796
C26   C     C_R   0.447037 0.455326 0.873761 -0.091018
C27   C     C_R   0.492420 0.499974 0.353572 -0.121164
C28   C     C_R   0.500324 0.500631 0.646661 -0.121007
H1    H     H_    0.403914 0.578347 0.261187 0.176583
H2    H     H_    0.577158 0.426919 0.745662 0.174788
H3    H     H_    0.329371 0.419114 0.123454 0.215439
H4    H     H_    0.572702 0.668155 0.877139 0.215879
C29   C     C_R   0.432618 0.468692 0.975508 0.028162
C30   C     C_R   0.522507 0.561755 0.024791 0.026545
C31   C     C_R   0.514767 0.570422 0.974322 0.009570
C32   C     C_R   0.424135 0.477355 0.026056 0.010703
C33   C     C_R   0.475389 0.517665 0.949474 0.063648
C34   C     C_R   0.474907 0.517960 0.050851 0.063418
C35   C     C_R   0.405138 0.408722 0.951066 -0.207065
C36   C     C_R   0.580010 0.589648 0.049086 -0.208966
C37   C     C_R   0.411210 0.401512 0.901057 0.235396
C38   C     C_R   0.586373 0.583650 0.099045 0.237555
O11   O     O_2   0.420651 0.402176 0.797017 -0.496090
O12   O     O_2   0.583673 0.576763 0.203022 -0.494827
C39   C     C_R   0.368646 0.446165 0.053167 0.125566
C40   C     C_R   0.545689 0.627901 0.947338 0.125352
H5    H     H_    0.417961 0.580871 0.649273 0.201178
H6    H     H_    0.572657 0.418198 0.344709 0.200644
H7    H     H_    0.381958 0.364314 0.971106 0.191096
H8    H     H_    0.622950 0.612822 0.028944 0.190911
C41   C     C_R   0.252758 0.547027 0.530635 0.131339
C42   C     C_R   0.746501 0.456561 0.466397 0.128328
C43   C     C_R   0.744996 0.540834 0.534728 0.138142
C44   C     C_R   0.255041 0.456735 0.465779 0.142934
C45   C     C_R   0.180844 0.546852 0.529941 -0.153177
C46   C     C_R   0.818461 0.456795 0.466563 -0.153080
C47   C     C_R   0.817033 0.540510 0.534353 -0.153294
C48   C     C_R   0.182982 0.457271 0.465622 -0.152735
H9    H     H_    0.152675 0.581843 0.554935 0.187356
H10   H     H_    0.846346 0.424431 0.439904 0.187246
H11   H     H_    0.843835 0.572633 0.561033 0.186260
H12   H     H_    0.156427 0.422964 0.440036 0.186403
C49   C     C_R   0.145577 0.501820 0.497824 -0.004406
C50   C     C_R   0.854086 0.498874 0.500243 -0.004132
C51   C     C_R   0.290346 0.501120 0.498852 -0.138790
C52   C     C_R   0.709430 0.499115 0.500386 -0.138363
N3    N     N_R   0.034916 0.457670 0.467497 -0.154963
N4    N     N_R   0.964741 0.543146 0.530271 -0.155643
N5    N     N_R   0.966053 0.456846 0.468195 -0.155417
N6    N     N_R   0.033577 0.543982 0.529565 -0.155964
C53   C     C_R   0.929793 0.499524 0.499622 0.329703
C54   C     C_R   0.069856 0.501289 0.498170 0.330207
C55   C     C_R   0.472251 0.273695 0.462125 0.059193
C56   C     C_R   0.526180 0.726198 0.538488 0.059707
C57   C     C_R   0.527949 0.273052 0.537752 0.054305
C58   C     C_R   0.474051 0.727115 0.461624 0.055379
H13   H     H_    0.450354 0.303708 0.432218 0.161187
H14   H     H_    0.546899 0.696103 0.568782 0.161286
H15   H     H_    0.550007 0.302519 0.567524 0.163519
H16   H     H_    0.453749 0.697842 0.431192 0.162928
C59   C     C_R   0.471759 0.196999 0.461383 -0.230242
C60   C     C_R   0.526729 0.802906 0.539328 -0.229430
C61   C     C_R   0.528498 0.196387 0.538495 -0.230870
C62   C     C_R   0.473525 0.803766 0.460993 -0.231540
H17   H     H_    0.449259 0.169520 0.430758 0.173492
H18   H     H_    0.547901 0.830295 0.570456 0.173915
H19   H     H_    0.551100 0.168453 0.569098 0.174164
H20   H     H_    0.452487 0.831786 0.429879 0.173250
C63   C     C_R   0.500110 0.156815 0.499962 0.069853
C64   C     C_R   0.500106 0.843215 0.500206 0.070204
N7    N     N_R   0.500000 0.310560 0.500000 -0.102380
N8    N     N_R   0.500000 0.689440 0.500000 -0.101796
N9    N     N_R   0.526709 0.036228 0.537744 -0.154792
N10   N     N_R   0.473530 0.963806 0.462479 -0.155624
N11   N     N_R   0.473516 0.036680 0.462406 -0.155119
N12   N     N_R   0.526697 0.963346 0.537826 -0.154265
C65   C     C_R   0.500111 0.925244 0.500187 0.319342
C66   C     C_R   0.500117 0.074786 0.500034 0.319240
I1    I     I_    0.365269 0.605280 0.366984 -0.305770
I2    I     I_    0.626716 0.393394 0.642285 -0.303238
I3    I     I_    0.372442 0.616799 0.753360 -0.201861
I4    I     I_    0.600920 0.382513 0.237523 -0.204899
I5    I     I_    0.365601 0.304590 0.873448 -0.140289
I6    I     I_    0.679888 0.628828 0.126423 -0.134172
I7    I     I_    0.269692 0.418842 0.024460 -0.245264
I8    I     I_    0.573278 0.731447 0.976343 -0.249142
I9    I     I_    0.299090 0.616502 0.582375 -0.294918
I10   I     I_    0.698637 0.393256 0.411930 -0.295789
I11   I     I_    0.694313 0.602287 0.590155 -0.290052
I12   I     I_    0.305803 0.391229 0.412490 -0.290112

loop_
_geom_bond_atom_site_label_1
_geom_bond_atom_site_label_2
_geom_bond_distance
_ccdc_geom_bond_type
C16   C18   1.398227 A    
C56   C60   1.407628 A    
C41   C51   1.409173 A    
C55   H13   1.080732 S    
C46   C50   1.399405 A    
N9    C66   1.361750 A    
C45   C49   1.398751 A    
C48   H12   1.082797 S    
O3    C2    1.280516 A    
N1    C17   1.425799 S    
C44   I12   2.127940 S    
C8    O11   1.346154 S    
C19   C34   1.411332 A    
C30   C36   1.401961 A    
C20   C33   1.411352 A    
C19   C25   1.417923 A    
C31   C40   1.419096 A    
O1    C1    1.279381 A    
C32   C39   1.419290 A    
C6    N2    1.362491 A    
N1    C7    1.366454 A    
C12   H5    1.080546 S    
C10   C12   1.387515 A    
C37   I5    2.134435 S    
C59   H17   1.082547 S    
C13   C15   1.389725 A    
N10   N11   1.336930 A    
O7    Zn1   2.003147 S    
N12   C65   1.361484 A    
C4    C28   1.453229 S    
C9    I4    2.118294 S    
C5    N1    1.362726 A    
Zn2   N7    1.985568 S    
C56   H14   1.080989 S    
C31   C33   1.416957 A    
C55   C59   1.407345 A    
C46   H10   1.082778 S    
C32   C34   1.416951 A    
C42   I10   2.125889 S    
C45   H9    1.082777 S    
C41   I9    2.125715 S    
C1    C51   1.448048 S    
C43   C47   1.387095 A    
N3    C54   1.354708 A    
O3    Zn1   1.995052 S    
O6    C4    1.283115 A    
C29   C35   1.402068 A    
C44   C51   1.409278 A    
C15   H1    1.083044 S    
O4    Zn2   1.995056 S    
C16   H2    1.082905 S    
O2    C2    1.279071 A    
C5    C21   1.394611 A    
N3    N5    1.326156 A    
C59   C63   1.408718 A    
C58   H16   1.077676 S    
C29   C32   1.413512 A    
C35   C37   1.391912 A    
C36   C38   1.391504 A    
C58   N8    1.363070 A    
O8    Zn2   2.003150 S    
N11   C66   1.361400 A    
C11   C27   1.400559 A    
Zn1   N8    1.985568 S    
C29   C33   1.411595 A    
O6    Zn2   2.005051 S    
C62   H20   1.082567 S    
C57   C61   1.406557 A    
C63   C66   1.504879 S    
C9    C17   1.402462 A    
O5    C3    1.282372 A    
C10   C18   1.400742 A    
C48   C49   1.399928 A    
C56   N8    1.364183 A    
C13   C27   1.408520 A    
C2    C52   1.444959 S    
C25   C38   1.417376 A    
C55   N7    1.363845 A    
C30   C34   1.411515 A    
C44   C48   1.387683 A    
C26   C37   1.417667 A    
C8    C26   1.409549 A    
C23   C39   1.390974 A    
C61   C63   1.408067 A    
C14   I2    2.121801 S    
C24   C40   1.390477 A    
C13   I1    2.123099 S    
C50   C53   1.457890 S    
C30   C31   1.412916 A    
N5    C53   1.355363 A    
N2    C8    1.365794 A    
C49   C54   1.458147 S    
N4    N6    1.325646 A    
C60   C64   1.408680 A    
N9    N12   1.337079 A    
C20   C26   1.418365 A    
O1    Zn1   1.998970 S    
C23   H3    1.083255 S    
C22   C24   1.398903 A    
C12   C28   1.399976 A    
N2    C18   1.424815 S    
C5    O9    1.350277 S    
C39   I7    2.135959 S    
C21   C23   1.399067 A    
C38   I6    2.134480 S    
C7    C25   1.408680 A    
C43   C52   1.407593 A    
N6    C54   1.355134 A    
O4    C1    1.281895 A    
C43   I11   2.128050 S    
C64   C65   1.504876 S    
N4    C53   1.354400 A    
C42   C52   1.407829 A    
N10   C65   1.361665 A    
C14   C16   1.392770 A    
C7    O12   1.346331 S    
C15   C17   1.396860 A    
C6    C22   1.393868 A    
C47   H11   1.082776 S    
C35   H7    1.079316 S    
C42   C46   1.385820 A    
C36   H8    1.079413 S    
C41   C45   1.385237 A    
C60   H18   1.082544 S    
C14   C28   1.407850 A    
C19   C21   1.408564 A    
C58   C62   1.406268 A    
C40   I8    2.136058 S    
C20   C22   1.408647 A    
C11   H6    1.081575 S    
C9    C11   1.390525 A    
C57   H15   1.078497 S    
O2    Zn2   1.998967 S    
O7    C4    1.280944 A    
C24   H4    1.083250 S    
O8    C3    1.281189 A    
O5    Zn1   2.005054 S    
C10   I3    2.118938 S    
C6    O10   1.350402 S    
C3    C27   1.453224 S    
C57   N7    1.363117 A    
C62   C64   1.407838 A    
C47   C50   1.400651 A    
C61   H19   1.082564 S    
