data_mof_unit_32646.cif
_audit_creation_date              2012-12-10T20:42:44-0500
_audit_creation_method            fapswitch 2.2
_symmetry_space_group_name_H-M    P1
_symmetry_Int_Tables_number       1
_space_group_crystal_system       triclinic
_cell_length_a                    8.911643
_cell_length_b                    10.683963
_cell_length_c                    9.876974
_cell_angle_alpha                 89.938597
_cell_angle_beta                  90.019763
_cell_angle_gamma                 90.079313
_cell_volume                      940.401634129

loop_
_atom_site_label
_atom_site_type_symbol
_atom_type_description
_atom_site_fract_x
_atom_site_fract_y
_atom_site_fract_z
_atom_type_partial_charge
C1    C     C_R   0.504200 0.260008 0.500121 0.869022
C2    C     C_R   0.427855 0.407498 0.928826 0.211860
C3    C     C_3   0.264351 0.378051 0.923490 -0.502571
C4    C     C_R   0.218738 0.499939 0.499973 0.948143
C5    C     C_3   0.264749 0.377512 0.077201 -0.499491
C6    C     C_R   0.504299 0.739959 0.499951 0.904752
C7    C     C_R   0.781283 0.500049 0.500034 0.925443
C8    C     C_1   0.065416 0.499940 0.499988 -0.200134
C9    C     C_1   0.934622 0.499984 0.500040 -0.191807
C10   C     C_R   0.521951 0.063739 0.623208 0.059277
C11   C     C_R   0.526910 0.128616 0.501036 -0.070183
C12   C     C_R   0.559323 0.935441 0.380281 -0.221707
C13   C     C_R   0.559353 0.064933 0.380405 -0.221298
C14   C     C_R   0.526639 0.871381 0.500743 -0.093871
C15   C     C_R   0.521447 0.936009 0.622961 0.010686
C16   C     C_3   0.411548 0.929927 0.738122 0.293505
C17   C     C_3   0.412754 0.072356 0.737959 -0.551159
C18   C     C_R   0.428014 0.407404 0.071283 0.210899
C19   C     C_R   0.581837 0.584956 0.071857 -0.124043
C20   C     C_R   0.581820 0.584988 0.927955 -0.114965
H1    H     H_    0.574814 0.114098 0.285425 0.168729
H2    H     H_    0.645543 0.655174 0.873690 0.142791
H3    H     H_    0.196874 0.455535 0.879467 0.232126
H4    H     H_    0.237175 0.916865 0.616556 0.337393
H5    H     H_    0.242003 0.284375 0.879170 0.199464
H6    H     H_    0.197175 0.454485 0.121913 0.227591
H7    H     H_    0.243526 0.283386 0.121329 0.201635
H8    H     H_    0.574919 0.886572 0.285275 0.165632
H9    H     H_    0.459744 0.887398 0.831218 0.130792
H10   H     H_    0.304582 0.116017 0.707612 0.204583
H11   H     H_    0.465027 0.112783 0.830317 0.181060
H12   H     H_    0.645613 0.655098 0.126008 0.143260
N1    N     N_R   0.499010 0.499140 0.142800 -0.105666
N2    N     N_R   0.499010 0.499180 0.857150 -0.102967
O1    O     O_R   0.500020 0.316790 0.614690 -0.615465
O2    O     O_R   0.500000 0.316760 0.385350 -0.628391
O3    O     O_R   0.285350 0.500020 0.614650 -0.605183
O4    O     O_R   0.285340 0.499980 0.385310 -0.619112
O5    O     O_R   0.500000 0.683240 0.614650 -0.600973
O6    O     O_R   0.499980 0.683210 0.385310 -0.633679
O7    O     O_R   0.714660 0.500020 0.614690 -0.618522
O8    O     O_R   0.714650 0.499980 0.385350 -0.618642
O9    O     O_3   0.271613 0.877853 0.702467 -0.736243
Zn1   Zn    Zn3+2 0.500010 0.500020 0.653130 0.964430
Zn2   Zn    Zn3+2 0.499990 0.499980 0.346870 0.942999

loop_
_geom_bond_atom_site_label_1
_geom_bond_atom_site_label_2
_ccdc_geom_bond_type
O5    Zn1   S    
C17   H10   S    
C6    C14   S    
N1    Zn2   S    
C3    H3    S    
C19   C20   A    
C1    C11   S    
C4    C8    S    
C20   N2    A    
C2    N2    A    
O3    Zn1   S    
C14   C15   A    
C2    C3    S    
C13   H1    S    
O2    Zn2   S    
C4    O3    A    
O1    Zn1   S    
C11   C13   A    
C16   O9    S    
C12   H8    S    
C19   H12   S    
O7    Zn1   S    
C12   C14   A    
C10   C15   A    
C7    O7    A    
O6    Zn2   S    
C17   H11   S    
C18   N1    A    
C6    O6    A    
C2    C18   A    
C10   C11   A    
C10   C17   S    
C15   C16   S    
C3    H5    S    
N2    Zn1   S    
C12   C13   A    
C1    O1    A    
C19   N1    A    
C7    O8    A    
C4    O4    A    
C7    C9    S    
H4    O9    S    
C6    O5    A    
C8    C9    T    
O4    Zn2   S    
C5    C18   S    
C16   H9    S    
C5    H7    S    
C5    H6    S    
C1    O2    A    
C20   H2    S    
C16   C17   S    
C3    C5    S    
O8    Zn2   S    
