data_mof_unit_62292.cif
_audit_creation_date              2012-10-26T17:21:32-0400
_audit_creation_method            fapswitch 2.2
_symmetry_space_group_name_H-M    P1
_symmetry_Int_Tables_number       1
_space_group_crystal_system       triclinic
_cell_length_a                    38.680895
_cell_length_b                    21.713246
_cell_length_c                    21.738298
_cell_angle_alpha                 90.001092
_cell_angle_beta                  55.70071
_cell_angle_gamma                 89.999749
_cell_volume                      15082.8079597

loop_
_atom_site_label
_atom_site_type_symbol
_atom_type_description
_atom_site_fract_x
_atom_site_fract_y
_atom_site_fract_z
_atom_type_partial_charge
C1    C     C_R   0.999839 0.500016 0.381643 0.545110
C2    C     C_3   0.235972 0.554496 0.243730 -0.127944
C3    C     C_3   0.735839 0.989997 0.321583 0.134778
C4    C     C_1   0.874964 0.499976 0.625437 -0.015505
C5    C     C_1   0.125036 0.499972 0.374562 -0.015505
C6    C     C_1   0.374964 0.999976 0.625437 -0.015505
C7    C     C_1   0.625036 0.999972 0.374562 -0.015504
C8    C     C_1   0.625063 0.500232 0.874806 0.006263
C9    C     C_1   0.374937 0.500232 0.125194 0.006280
C10   C     C_1   0.125063 0.000233 0.874805 0.006262
C11   C     C_1   0.874937 0.000232 0.125194 0.006276
C12   C     C_3   0.763950 0.454991 0.773577 -0.108352
C13   C     C_3   0.264028 0.054697 0.755738 -0.127936
C14   C     C_3   0.236050 0.454621 0.226859 -0.108325
C15   C     C_3   0.263950 0.954990 0.773574 -0.108347
C16   C     C_3   0.736051 0.954793 0.226654 -0.108338
C17   C     C_3   0.791358 0.499739 0.708632 0.045272
C18   C     C_3   0.208643 0.499735 0.291366 0.045275
C19   C     C_3   0.291357 0.999741 0.708632 0.045273
C20   C     C_3   0.708642 0.999736 0.291367 0.045273
C21   C     C_3   0.735919 0.510025 0.821311 -0.123142
C22   C     C_3   0.264083 0.509458 0.178591 -0.123102
C23   C     C_3   0.235918 0.010022 0.821311 -0.123139
C24   C     C_3   0.735970 0.054589 0.243982 -0.127937
C25   C     C_3   0.764082 0.009722 0.178637 -0.123122
C26   C     C_3   0.919210 0.493264 0.395200 -0.372102
C27   C     C_3   0.080808 0.493744 0.604775 -0.372071
C28   C     C_3   0.419205 0.993407 0.395206 -0.372103
C29   C     C_3   0.580799 0.993491 0.604789 -0.372085
C30   C     C_3   0.720174 0.383610 0.737789 -0.363440
C31   C     C_3   0.279824 0.384017 0.263339 -0.363459
C32   C     C_3   0.220175 0.883612 0.737780 -0.363427
C33   C     C_3   0.779827 0.883825 0.262809 -0.363453
C34   C     C_3   0.079137 0.506624 0.237565 -0.393311
C35   C     C_3   0.736195 0.544636 0.725983 -0.091599
C36   C     C_3   0.920844 0.506161 0.762455 -0.393341
C37   C     C_3   0.579142 0.006483 0.237560 -0.393321
C38   C     C_3   0.420854 0.006411 0.762444 -0.393325
C39   C     C_3   0.263804 0.544998 0.273579 -0.091613
C40   C     C_3   0.236195 0.044639 0.725986 -0.091608
C41   C     C_3   0.763804 0.044829 0.273785 -0.091606
C42   C     C_1   0.837243 0.499883 0.663091 -0.026277
C43   C     C_1   0.162757 0.499879 0.336907 -0.026263
C44   C     C_1   0.337243 0.999884 0.663091 -0.026276
C45   C     C_R   0.000160 0.500017 0.618357 0.545117
C46   C     C_1   0.662757 0.999879 0.336908 -0.026268
C47   C     C_1   0.662792 0.500172 0.836973 -0.035152
C48   C     C_1   0.337209 0.500170 0.163026 -0.035135
C49   C     C_1   0.162792 0.000173 0.836972 -0.035153
C50   C     C_1   0.837208 0.000171 0.163026 -0.035139
C51   C     C_R   0.037951 0.503258 0.245024 -0.024363
C52   C     C_R   0.962040 0.503033 0.754985 -0.024356
C53   C     C_R   0.537954 0.003189 0.245022 -0.024361
C54   C     C_R   0.462045 0.003155 0.754980 -0.024358
C55   C     C_R   0.037706 0.503130 0.181133 -0.114134
C56   C     C_R   0.499840 0.000016 0.381643 0.545110
C57   C     C_R   0.962286 0.502909 0.818875 -0.114139
C58   C     C_R   0.537709 0.003062 0.181130 -0.114137
C59   C     C_R   0.462290 0.003029 0.818871 -0.114134
C60   C     C_R   0.999869 0.499937 0.186717 -0.007006
C61   C     C_R   0.000132 0.499940 0.813281 -0.007010
C62   C     C_R   0.499869 0.999937 0.186717 -0.007007
C63   C     C_R   0.500131 0.999940 0.813282 -0.007007
C64   C     C_R   0.961909 0.496768 0.256796 -0.115923
C65   C     C_R   0.038100 0.496997 0.743192 -0.115908
C66   C     C_R   0.461907 0.996836 0.256799 -0.115921
C67   C     C_R   0.500160 0.000017 0.618357 0.545113
C68   C     C_R   0.538095 0.996876 0.743198 -0.115915
C69   C     C_R   0.961264 0.496724 0.321516 -0.033453
C70   C     C_R   0.038745 0.496960 0.678472 -0.033461
C71   C     C_R   0.461262 0.996794 0.321519 -0.033451
C72   C     C_R   0.538740 0.996836 0.678479 -0.033459
C73   C     C_R   0.919863 0.500005 0.580467 0.533880
C74   C     C_R   0.080137 0.500004 0.419532 0.533877
C75   C     C_R   0.419863 0.000005 0.580467 0.533879
C76   C     C_R   0.580137 0.000004 0.419532 0.533879
C77   C     C_R   0.999569 0.500031 0.315354 0.070816
C78   C     C_3   0.708700 0.499983 0.790996 0.039486
C79   C     C_R   0.000431 0.500035 0.684646 0.070828
C80   C     C_R   0.499569 0.000031 0.315354 0.070820
C81   C     C_R   0.500431 0.000035 0.684646 0.070823
C82   C     C_R   0.500000 0.381199 1.000000 0.600379
C83   C     C_R   1.000000 0.881199 1.000000 0.600380
C84   C     C_R   0.580144 0.500183 0.919849 0.565043
C85   C     C_R   0.419856 0.500183 0.080150 0.565054
C86   C     C_R   0.080144 0.000183 0.919849 0.565045
C87   C     C_R   0.919856 0.000183 0.080150 0.565052
C88   C     C_R   0.500000 0.618766 0.000000 0.535550
C89   C     C_3   0.291300 0.499979 0.209003 0.039484
C90   C     C_R   1.000000 0.118766 0.000000 0.535547
C91   C     C_R   0.000000 0.380737 1.000000 0.551114
C92   C     C_R   0.500000 0.880737 1.000000 0.551117
C93   C     C_R   0.999961 0.499916 0.119399 0.552461
C94   C     C_R   0.000039 0.499917 0.880600 0.552468
C95   C     C_R   0.499961 0.999917 0.119399 0.552463
C96   C     C_R   0.500039 0.999917 0.880601 0.552466
C97   C     C_R   1.000000 0.619178 1.000000 0.559245
C98   C     C_R   0.500000 0.119178 1.000000 0.559241
C99   C     C_R   0.463290 0.282581 0.052234 0.051869
C100  C     C_3   0.208700 0.999983 0.790995 0.039488
C101  C     C_R   0.536709 0.282579 0.947765 0.051862
C102  C     C_R   0.963288 0.782582 0.052226 0.051868
C103  C     C_R   0.036710 0.782579 0.947772 0.051864
C104  C     C_R   0.963423 0.718588 0.051673 -0.110695
C105  C     C_R   0.036575 0.718585 0.948326 -0.110697
C106  C     C_R   0.463425 0.218587 0.051680 -0.110701
C107  C     C_R   0.536574 0.218585 0.948318 -0.110697
C108  C     C_R   0.999999 0.686345 0.999999 -0.025405
C109  C     C_R   0.499999 0.186345 0.999999 -0.025404
C110  C     C_3   0.736264 0.445639 0.743868 0.027271
C111  C     C_3   0.791300 0.999980 0.209004 0.039484
C112  C     C_3   0.263736 0.445830 0.256659 0.027285
C113  C     C_3   0.236264 0.945641 0.743863 0.027272
C114  C     C_3   0.763737 0.945740 0.256411 0.027280
C115  C     C_R   0.500000 0.314663 0.999999 0.050956
C116  C     C_R   0.999999 0.814663 0.999999 0.050955
C117  C     C_R   0.526908 0.717717 0.012488 -0.127576
C118  C     C_R   0.473092 0.717717 0.987515 -0.127573
C119  C     C_R   0.026908 0.217717 0.012488 -0.127582
C120  C     C_R   0.973092 0.217717 0.987515 -0.127580
C121  C     C_R   0.027427 0.281773 0.011189 -0.128410
C122  C     C_3   0.764029 0.554697 0.755734 -0.127930
C123  C     C_R   0.972574 0.281773 0.988811 -0.128408
C124  C     C_R   0.527427 0.781773 0.011189 -0.128405
C125  C     C_R   0.472574 0.781773 0.988811 -0.128403
C126  C     C_R   0.000001 0.313862 0.999999 0.027273
C127  C     C_R   0.500001 0.813862 0.999999 0.027273
C128  C     C_R   0.500000 0.685633 0.000002 0.030140
C129  C     C_R   1.000000 0.185633 0.000002 0.030138
C130  C     C_3   0.764161 0.489701 0.678468 0.134774
C131  C     C_3   0.235838 0.490258 0.321627 0.134781
C132  C     C_3   0.264161 0.989706 0.678467 0.134773
Cu1   Cu    Cu3+1 0.000000 0.438200 0.500000 0.953864
Cu2   Cu    Cu3+1 0.958560 0.499890 0.041410 0.950237
Cu3   Cu    Cu3+1 0.541440 0.999890 0.958590 0.950244
Cu4   Cu    Cu3+1 0.458560 0.999890 0.041410 0.950236
Cu5   Cu    Cu3+1 0.500000 0.938200 0.500000 0.953923
Cu6   Cu    Cu3+1 0.000000 0.561810 0.500000 0.956431
Cu7   Cu    Cu3+1 0.500000 0.061810 0.500000 0.956381
Cu8   Cu    Cu3+1 0.500010 0.499870 0.938220 0.995687
Cu9   Cu    Cu3+1 0.499990 0.499870 0.061780 0.995669
Cu10  Cu    Cu3+1 0.000010 0.999870 0.938220 0.995673
Cu11  Cu    Cu3+1 0.999990 0.999870 0.061780 0.995669
Cu12  Cu    Cu3+1 0.041440 0.499890 0.958590 0.950253
H1    H     H_    0.934989 0.694169 0.092031 0.162755
H2    H     H_    0.951379 0.306286 0.979830 0.123593
H3    H     H_    0.548622 0.806287 0.020170 0.123604
H4    H     H_    0.451379 0.806286 0.979830 0.123604
H5    H     H_    0.724458 0.581413 0.706761 0.133467
H6    H     H_    0.275538 0.582081 0.292442 0.133457
H7    H     H_    0.224459 0.081419 0.706766 0.133451
H8    H     H_    0.775538 0.081769 0.292817 0.133468
H9    H     H_    0.775966 0.599779 0.760255 0.121702
H10   H     H_    0.224036 0.599417 0.238774 0.121659
H11   H     H_    0.275965 0.099778 0.760261 0.121692
H12   H     H_    0.065010 0.694164 0.907968 0.162765
H13   H     H_    0.724033 0.099586 0.239231 0.121678
H14   H     H_    0.723888 0.518548 0.880515 0.119485
H15   H     H_    0.276118 0.517514 0.119303 0.119532
H16   H     H_    0.223886 0.018541 0.880517 0.119485
H17   H     H_    0.776115 0.017996 0.119387 0.119510
H18   H     H_    0.775659 0.417970 0.792567 0.115444
H19   H     H_    0.224345 0.417298 0.208230 0.115521
H20   H     H_    0.275658 0.917966 0.792562 0.115453
H21   H     H_    0.724344 0.917609 0.207855 0.115488
H22   H     H_    0.067113 0.505625 0.126954 0.137634
H23   H     H_    0.434992 0.194169 0.092045 0.162745
H24   H     H_    0.932872 0.505226 0.873062 0.137629
H25   H     H_    0.567118 0.005504 0.126949 0.137631
H26   H     H_    0.432880 0.005441 0.873054 0.137632
H27   H     H_    0.932534 0.494219 0.261433 0.147324
H28   H     H_    0.067483 0.494628 0.738545 0.147360
H29   H     H_    0.432529 0.994342 0.261438 0.147328
H30   H     H_    0.567474 0.994411 0.738557 0.147343
H31   H     H_    0.921380 0.493743 0.443852 0.150756
H32   H     H_    0.899729 0.533156 0.400528 0.156057
H33   H     H_    0.903033 0.450157 0.397633 0.157524
H34   H     H_    0.565007 0.194164 0.907955 0.162761
H35   H     H_    0.078636 0.494194 0.556125 0.150720
H36   H     H_    0.100179 0.533757 0.599546 0.156244
H37   H     H_    0.097108 0.450741 0.602226 0.157469
H38   H     H_    0.421376 0.993873 0.443857 0.150745
H39   H     H_    0.399758 0.033338 0.400507 0.156015
H40   H     H_    0.402990 0.950333 0.397671 0.157569
H41   H     H_    0.578627 0.993958 0.556138 0.150738
H42   H     H_    0.600227 0.033439 0.599510 0.156170
H43   H     H_    0.597033 0.950432 0.602299 0.157484
H44   H     H_    0.747008 0.353118 0.699834 0.153150
H45   H     H_    0.547925 0.693196 0.021908 0.122908
H46   H     H_    0.700916 0.361935 0.793649 0.154366
H47   H     H_    0.700738 0.390119 0.715470 0.179081
H48   H     H_    0.252990 0.353640 0.301605 0.153132
H49   H     H_    0.299071 0.361974 0.207696 0.154588
H50   H     H_    0.299270 0.390930 0.285573 0.178826
H51   H     H_    0.247009 0.853121 0.699823 0.153161
H52   H     H_    0.200917 0.861934 0.793638 0.154371
H53   H     H_    0.200739 0.890123 0.715461 0.179080
H54   H     H_    0.752993 0.853394 0.300930 0.153135
H55   H     H_    0.799079 0.861953 0.207063 0.154493
H56   H     H_    0.452075 0.693196 0.978095 0.122913
H57   H     H_    0.799269 0.890549 0.285082 0.178941
H58   H     H_    0.106133 0.508640 0.178369 0.122743
H59   H     H_    0.079933 0.548516 0.266037 0.148385
H60   H     H_    0.082956 0.465293 0.263292 0.141446
H61   H     H_    0.893844 0.508035 0.821656 0.122731
H62   H     H_    0.919939 0.548042 0.734084 0.148217
H63   H     H_    0.917131 0.464802 0.736630 0.141602
H64   H     H_    0.606140 0.008456 0.178363 0.122738
H65   H     H_    0.579971 0.048372 0.266003 0.148333
H66   H     H_    0.582930 0.965144 0.263316 0.141496
H67   H     H_    0.047925 0.193196 0.021908 0.122906
H68   H     H_    0.393856 0.008361 0.821642 0.122736
H69   H     H_    0.420007 0.048297 0.734019 0.148305
H70   H     H_    0.417085 0.965066 0.736670 0.141523
H71   H     H_    0.952075 0.193196 0.978095 0.122907
H72   H     H_    0.048622 0.306287 0.020169 0.123605
I1    I     I_    0.787133 0.474232 0.564388 -0.412908
I2    I     I_    0.212859 0.475686 0.435858 -0.413132
I3    I     I_    0.287136 0.974246 0.564384 -0.412908
I4    I     I_    0.712863 0.975006 0.435744 -0.413028
I5    I     I_    0.406448 0.327823 0.132073 -0.391641
I6    I     I_    0.593552 0.327815 0.867931 -0.391506
I7    I     I_    0.906444 0.827823 0.132052 -0.391597
I8    I     I_    0.093556 0.827816 0.867949 -0.391493
O1    O     O_R   0.000010 0.447810 0.409820 -0.507668
O2    O     O_R   0.035000 0.499930 0.874800 -0.511032
O3    O     O_R   0.465000 0.999930 0.125200 -0.511036
O4    O     O_R   0.535000 0.999930 0.874800 -0.511033
O5    O     O_R   0.035030 0.590070 0.965060 -0.509035
O6    O     O_R   0.964970 0.590070 0.034940 -0.509018
O7    O     O_R   0.535030 0.090070 0.965060 -0.509028
O8    O     O_R   0.464970 0.090070 0.034940 -0.509029
O9    O     O_R   0.000010 0.552200 0.409870 -0.506318
O10   O     O_R   0.999990 0.552200 0.590130 -0.506277
O11   O     O_R   0.500010 0.052200 0.409870 -0.506317
O12   O     O_R   0.999990 0.447810 0.590180 -0.507690
O13   O     O_R   0.499990 0.052200 0.590130 -0.506296
O14   O     O_R   0.939540 0.447810 0.560460 -0.503576
O15   O     O_R   0.060460 0.447810 0.439540 -0.503583
O16   O     O_R   0.439540 0.947810 0.560460 -0.503540
O17   O     O_R   0.560460 0.947810 0.439540 -0.503580
O18   O     O_R   0.939550 0.552200 0.560510 -0.503926
O19   O     O_R   0.060450 0.552200 0.439490 -0.503927
O20   O     O_R   0.439550 0.052200 0.560510 -0.503961
O21   O     O_R   0.560450 0.052200 0.439490 -0.503927
O22   O     O_R   0.500010 0.409700 0.947870 -0.484178
O23   O     O_R   0.500010 0.947810 0.409820 -0.507662
O24   O     O_R   0.499990 0.409700 0.052130 -0.484196
O25   O     O_R   0.000010 0.909700 0.947870 -0.484180
O26   O     O_R   0.999990 0.909700 0.052130 -0.484193
O27   O     O_R   0.560470 0.499890 0.887380 -0.488694
O28   O     O_R   0.439530 0.499890 0.112620 -0.488698
O29   O     O_R   0.060470 0.999890 0.887380 -0.488699
O30   O     O_R   0.939530 0.999890 0.112620 -0.488696
O31   O     O_R   0.560460 0.499990 0.991770 -0.508054
O32   O     O_R   0.439540 0.499990 0.008230 -0.508044
O33   O     O_R   0.060460 0.999990 0.991770 -0.508051
O34   O     O_R   0.499990 0.947810 0.590180 -0.507680
O35   O     O_R   0.939540 0.999990 0.008230 -0.508045
O36   O     O_R   0.500010 0.590060 0.947790 -0.515455
O37   O     O_R   0.499990 0.590060 0.052210 -0.515439
O38   O     O_R   0.000010 0.090060 0.947790 -0.515457
O39   O     O_R   0.999990 0.090060 0.052210 -0.515444
O40   O     O_R   0.034970 0.409720 0.965020 -0.509016
O41   O     O_R   0.965030 0.409720 0.034980 -0.509032
O42   O     O_R   0.534970 0.909720 0.965020 -0.509024
O43   O     O_R   0.465030 0.909720 0.034980 -0.509017
O44   O     O_R   0.034990 0.499890 0.055220 -0.515997
O45   O     O_R   0.965010 0.499890 0.944780 -0.515999
O46   O     O_R   0.534990 0.999890 0.055220 -0.515997
O47   O     O_R   0.465010 0.999890 0.944780 -0.515997
O48   O     O_R   0.965000 0.499930 0.125200 -0.511033

loop_
_geom_bond_atom_site_label_1
_geom_bond_atom_site_label_2
_ccdc_geom_bond_type
C101  I6    S    
C58   C62   A    
C99   I5    S    
C101  C107  A    
C119  C129  A    
Cu11  O26   S    
C2    C18   S    
C1    C77   S    
C21   H14   S    
C14   C18   S    
C69   C77   A    
C76   O21   A    
Cu11  O33   S    
C45   O12   A    
C32   H52   S    
C118  H56   S    
C4    C42   T    
C27   H37   S    
C18   C131  S    
C91   C126  S    
Cu3   Cu4   S    
C41   H8    S    
Cu5   O34   S    
C86   O29   A    
C15   C19   S    
Cu4   O8    S    
C89   C112  S    
C55   C60   A    
C33   C114  S    
Cu10  O29   S    
C1    O9    A    
C30   C110  S    
Cu4   O43   S    
Cu8   O22   S    
C96   O4    A    
C113  C132  S    
C28   H39   S    
C27   H35   S    
C82   C115  S    
C54   C81   A    
C56   C80   S    
C99   C115  A    
Cu5   O23   S    
Cu7   O13   S    
C22   H15   S    
C33   H55   S    
Cu2   O48   S    
C65   C70   A    
C55   H22   S    
C14   H19   S    
Cu9   O24   S    
C29   H42   S    
C13   C23   S    
C76   O17   A    
C74   O15   A    
C28   H38   S    
C17   C42   S    
C13   H11   S    
C13   C40   S    
C75   O20   A    
C9    C85   S    
C90   C129  S    
C2    C39   S    
C103  C105  A    
C87   O30   A    
C97   O5    A    
C73   O18   A    
C20   C24   S    
C25   H17   S    
C3    I4    S    
Cu11  O30   S    
C38   C54   S    
C21   C78   S    
C2    C22   S    
Cu3   O42   S    
C70   C79   A    
C31   C112  S    
C15   C113  S    
C66   H29   S    
Cu8   O32   S    
C118  C125  A    
C39   C89   S    
C32   C113  S    
Cu4   O47   S    
C59   H26   S    
Cu12  O40   S    
C16   H21   S    
C72   C81   A    
C36   C52   S    
C120  C123  A    
C16   C20   S    
C36   H61   S    
C29   C72   S    
C92   O42   A    
C60   C93   S    
Cu2   O41   S    
C15   C23   S    
C23   C100  S    
C5    C43   T    
Cu1   Cu6   S    
C2    H10   S    
Cu10  O25   S    
Cu3   O7    S    
C62   C95   S    
C83   O25   A    
C84   O27   A    
C24   C41   S    
C92   O43   A    
Cu12  O2    S    
C75   O16   A    
Cu12  O44   S    
Cu8   O27   S    
C118  C128  A    
C38   H70   S    
C32   H51   S    
C104  H1    S    
C12   C110  S    
C71   C80   A    
C124  H3    S    
C88   O37   A    
C107  C109  A    
C54   C59   A    
C119  C121  A    
Cu8   Cu9   S    
C56   O23   A    
Cu5   O17   S    
Cu3   O4    S    
C13   C19   S    
C65   H28   S    
C120  C129  A    
Cu9   O31   S    
C121  H72   S    
C15   H20   S    
C6    C75   S    
C53   C80   A    
C26   H31   S    
C24   C25   S    
C45   C79   S    
C34   H60   S    
C93   O44   A    
C82   O22   A    
C61   C94   S    
C123  C126  A    
Cu1   O15   S    
C5    C74   S    
C30   H47   S    
C94   O45   A    
C12   H18   S    
C63   C96   S    
C67   O13   A    
Cu3   O46   S    
C60   C64   A    
C29   H43   S    
C40   H7    S    
C121  C126  A    
Cu2   O45   S    
C36   H63   S    
C30   H44   S    
C12   C17   S    
C130  I1    S    
C14   C112  S    
C51   C77   A    
C86   O33   A    
C32   H53   S    
C90   O39   A    
C103  I8    S    
Cu5   Cu7   S    
Cu12  O5    S    
C120  H71   S    
C66   C71   A    
C39   H6    S    
C123  H2    S    
C26   H32   S    
C34   H59   S    
C68   C72   A    
C23   H16   S    
C58   H25   S    
C84   O31   A    
C34   C51   S    
C96   O47   A    
C3    C20   S    
C78   C110  S    
C27   H36   S    
C36   H62   S    
C64   C69   A    
C45   O10   A    
C102  C104  A    
Cu7   O20   S    
C35   C130  S    
C37   H65   S    
C4    C73   S    
C27   C70   S    
C117  H45   S    
C85   O28   A    
C124  C127  A    
C98   O8    A    
C74   O19   A    
Cu4   O3    S    
C98   C109  S    
C67   C81   S    
C48   C89   S    
C131  I2    S    
C107  H34   S    
Cu7   O11   S    
C101  C115  A    
C122  H9    S    
C59   C63   A    
Cu6   O10   S    
C28   C71   S    
Cu11  O39   S    
Cu1   O14   S    
C38   H69   S    
C87   O35   A    
C52   C79   A    
C92   C127  S    
C104  C108  A    
C19   C44   S    
C95   O46   A    
C31   H49   S    
C21   C122  S    
C26   H33   S    
C1    O1    A    
C16   C25   S    
Cu9   O28   S    
C99   C106  A    
C63   C68   A    
C3    C41   S    
C85   O32   A    
C68   H30   S    
Cu8   O36   S    
C17   C130  S    
C8    C84   S    
Cu9   O37   S    
C83   C116  S    
C117  C124  A    
C35   C122  S    
C100  C113  S    
C102  C116  A    
Cu1   O1    S    
C3    C114  S    
C16   C114  S    
C40   C100  S    
C31   H50   S    
C11   C87   S    
C53   C58   A    
C97   C108  S    
C7    C76   S    
C57   H24   S    
C35   H5    S    
C35   C78   S    
C119  H67   S    
C125  H4    S    
C82   O24   A    
C57   C61   A    
C24   H13   S    
C132  I3    S    
C106  H23   S    
C14   C22   S    
C64   H27   S    
C103  C116  A    
C28   H40   S    
C8    C47   T    
C37   C53   S    
C73   O14   A    
C83   O26   A    
C11   C50   T    
C18   C43   S    
C49   C100  S    
C102  I7    S    
C10   C86   S    
Cu6   O18   S    
C56   O11   A    
C93   O48   A    
C39   C131  S    
C33   H54   S    
Cu5   O16   S    
C19   C132  S    
C31   H48   S    
C30   H46   S    
C33   H57   S    
C50   C111  S    
C37   H64   S    
C22   C89   S    
C29   H41   S    
C110  C130  S    
C111  C114  S    
C51   C55   A    
Cu10  O35   S    
Cu2   O6    S    
C112  C131  S    
C40   C132  S    
C90   O38   A    
C117  C128  A    
C95   O3    A    
C37   H66   S    
C67   O34   A    
C62   C66   A    
C52   C57   A    
C25   C111  S    
Cu2   Cu12  S    
C98   O7    A    
C12   C21   S    
C7    C46   T    
C61   C65   A    
C17   C122  S    
C34   H58   S    
C105  H12   S    
C9    C48   T    
C88   C128  S    
C41   C111  S    
C105  C108  A    
C125  C127  A    
C26   C69   S    
Cu10  Cu11  S    
Cu6   O9    S    
C6    C44   T    
C94   O2    A    
Cu10  O38   S    
C47   C78   S    
C38   H68   S    
C91   O41   A    
C10   C49   T    
Cu1   O12   S    
C97   O6    A    
C20   C46   S    
Cu6   O19   S    
C91   O40   A    
C88   O36   A    
C106  C109  A    
Cu7   O21   S    
