data_mof_unit_20973.cif
_audit_creation_date              2012-12-11T14:00:01-0500
_audit_creation_method            fapswitch 2.2
_symmetry_space_group_name_H-M    P1
_symmetry_Int_Tables_number       1
_space_group_crystal_system       triclinic
_cell_length_a                    11.247594
_cell_length_b                    11.254326
_cell_length_c                    18.682057
_cell_angle_alpha                 90.351826
_cell_angle_beta                  89.805578
_cell_angle_gamma                 119.523378
_cell_volume                      2057.7473956

loop_
_atom_site_label
_atom_site_type_symbol
_atom_type_description
_atom_site_fract_x
_atom_site_fract_y
_atom_site_fract_z
_atom_type_partial_charge
C1    C     C_R   0.541239 0.480142 0.851614 0.554158
C2    C     C_R   0.478219 0.546752 0.353369 0.540640
C3    C     C_R   0.059511 0.518811 0.350305 0.540455
C4    C     C_R   0.419082 0.869805 0.359815 0.561164
C5    C     C_2   0.907016 0.446895 0.565361 -0.094476
C6    C     C_2   0.488306 0.506443 0.584807 -0.099647
C7    C     C_2   0.487098 0.969065 0.587979 -0.107720
C8    C     C_2   0.446752 0.906460 0.434703 -0.104829
C9    C     C_2   0.492656 0.521416 0.427757 -0.090740
C10   C     C_2   0.970119 0.487682 0.412192 -0.109530
C11   C     C_2   0.918629 0.366195 0.444763 -0.146957
C12   C     C_R   0.520279 0.061183 0.851579 0.556421
C13   C     C_2   0.543653 0.629765 0.472520 -0.152545
C14   C     C_2   0.343531 0.865657 0.481370 -0.161386
C15   C     C_2   0.365563 0.917392 0.555141 -0.143971
C16   C     C_2   0.565188 0.620216 0.548172 -0.162110
C17   C     C_2   0.866986 0.343866 0.518448 -0.164266
C18   C     C_2   0.020664 0.512383 0.915947 -0.105981
C19   C     C_2   0.487245 0.508665 0.916085 -0.107876
C20   C     C_2   0.492632 0.979657 0.915889 -0.106291
C21   C     C_2   0.499667 0.988872 0.075221 -0.073766
C22   C     C_2   0.488899 0.500714 0.074806 -0.070576
C23   C     C_R   0.939005 0.458901 0.851550 0.565688
C24   C     C_2   0.011364 0.511196 0.075016 -0.070362
C25   C     C_2   0.058928 0.621167 0.031801 0.262357
C26   C     C_2   0.378736 0.439077 0.031504 0.261767
C27   C     C_2   0.562774 0.941242 0.031488 0.260395
C28   C     C_2   0.595084 0.995111 0.958585 0.234861
C29   C     C_2   0.400467 0.406485 0.958449 0.232040
C30   C     C_2   0.004870 0.599659 0.958815 0.230481
C31   C     C_3   0.140036 0.853635 0.037105 -0.081968
C32   C     C_3   0.147143 0.287639 0.037434 -0.081618
C33   C     C_3   0.718111 0.865044 0.040948 -0.083611
C34   C     C_R   0.476057 0.544899 0.145687 0.606822
C35   C     C_3   0.798753 0.187219 0.975323 -0.111375
C36   C     C_3   0.387869 0.201163 0.975138 -0.110617
C37   C     C_3   0.812863 0.614194 0.975762 -0.111602
C38   C     C_R   0.068627 0.523971 0.145699 0.608216
C39   C     C_R   0.455191 0.931312 0.145730 0.616254
C40   C     C_R   0.541440 0.480771 0.649704 0.546046
C41   C     C_R   0.518584 0.059204 0.649742 0.543476
C42   C     C_R   0.869983 0.419096 0.640111 0.561946
Cr1   Cr    Cr6+3 0.464030 0.233680 0.750360 1.058060
Cr2   Cr    Cr6+3 0.766320 0.230350 0.750360 1.054641
Cr3   Cr    Cr6+3 0.769650 0.535970 0.750360 1.057016
Cr4   Cr    Cr6+3 0.233680 0.464030 0.249640 1.039677
Cr5   Cr    Cr6+3 0.230350 0.766320 0.249640 1.037585
Cr6   Cr    Cr6+3 0.535970 0.769650 0.249640 1.034297
H1    H     H_    0.956688 0.569634 0.434353 0.097723
H2    H     H_    0.281750 0.924115 0.580192 0.158316
H3    H     H_    0.653915 0.706199 0.572282 0.155444
H4    H     H_    0.806920 0.238981 0.536620 0.132952
H5    H     H_    0.039395 0.833028 0.058626 0.111005
H6    H     H_    0.147632 0.873912 0.978735 0.154806
H7    H     H_    0.217840 0.948230 0.063673 0.121197
H8    H     H_    0.169943 0.209527 0.059483 0.110629
H9    H     H_    0.126162 0.272751 0.979113 0.155199
H10   H     H_    0.052057 0.271055 0.063858 0.121231
H11   H     H_    0.791057 0.964237 0.066280 0.107378
H12   H     H_    0.454041 0.417522 0.446180 0.097789
H13   H     H_    0.740612 0.863697 0.983171 0.157115
H14   H     H_    0.734580 0.786366 0.067064 0.123201
H15   H     H_    0.799419 0.169127 0.033680 0.076145
H16   H     H_    0.754302 0.254694 0.965061 0.104112
H17   H     H_    0.906059 0.240553 0.957430 0.144464
H18   H     H_    0.368629 0.201605 0.033482 0.076100
H19   H     H_    0.499054 0.243347 0.964979 0.104947
H20   H     H_    0.333522 0.093671 0.957437 0.144154
H21   H     H_    0.831753 0.634129 0.034098 0.076562
H22   H     H_    0.745446 0.502977 0.965634 0.104202
H23   H     H_    0.552558 0.969799 0.450657 0.099087
H24   H     H_    0.759063 0.668260 0.957869 0.146527
H25   H     H_    0.934164 0.411413 0.056734 -0.022458
H26   H     H_    0.588988 0.523131 0.056426 -0.020128
H27   H     H_    0.476194 0.066189 0.057420 -0.021235
H28   H     H_    0.387505 0.921251 0.934209 0.070967
H29   H     H_    0.533508 0.613793 0.934802 0.077050
H30   H     H_    0.079204 0.465140 0.934220 0.072227
H31   H     H_    0.568941 0.955207 0.566057 0.091926
H32   H     H_    0.395159 0.423725 0.562126 0.113153
H33   H     H_    0.969944 0.552716 0.549711 0.106419
H34   H     H_    0.925079 0.282387 0.419447 0.156225
H35   H     H_    0.580956 0.732546 0.452372 0.148791
H36   H     H_    0.238663 0.805193 0.462889 0.135585
O1    O     O_R   0.434100 0.092480 0.829780 -0.510408
O2    O     O_R   0.362730 0.477510 0.175360 -0.457537
O3    O     O_R   0.114780 0.637270 0.175360 -0.459494
O4    O     O_R   0.522490 0.885220 0.175360 -0.455352
O5    O     O_R   0.432250 0.092620 0.670380 -0.511399
O6    O     O_R   0.907380 0.339630 0.670380 -0.501486
O7    O     O_R   0.660370 0.567750 0.670380 -0.523042
O8    O     O_R   0.092620 0.432250 0.329620 -0.517497
O9    O     O_R   0.339630 0.907380 0.329620 -0.508099
O10   O     O_R   0.567750 0.660370 0.329620 -0.530415
O11   O     O_R   0.475790 0.362860 0.676880 -0.503479
O12   O     O_R   0.907520 0.341620 0.829780 -0.509415
O13   O     O_R   0.637140 0.112930 0.676880 -0.524272
O14   O     O_R   0.887070 0.524210 0.676880 -0.500891
O15   O     O_R   0.362860 0.475790 0.323120 -0.503849
O16   O     O_R   0.112930 0.637140 0.323120 -0.528950
O17   O     O_R   0.524210 0.887070 0.323120 -0.513824
O18   O     O_3   0.666667 0.333333 0.749450 -0.296507
O19   O     O_3   0.333333 0.666667 0.250550 -0.277075
O20   O     O_3   0.167368 0.746987 0.052838 -0.531936
O21   O     O_3   0.252229 0.421556 0.052679 -0.532387
O22   O     O_3   0.581170 0.832532 0.051675 -0.534154
O23   O     O_R   0.658380 0.565900 0.829780 -0.511766
O24   O     O_3   0.729772 0.064857 0.936008 -0.547952
O25   O     O_3   0.336411 0.271777 0.935555 -0.547320
O26   O     O_3   0.934786 0.665056 0.936334 -0.548883
O27   O     O_R   0.092480 0.434100 0.170220 -0.502062
O28   O     O_R   0.341620 0.907520 0.170220 -0.498427
O29   O     O_R   0.565900 0.658380 0.170220 -0.502624
O30   O     O_R   0.477510 0.362730 0.824640 -0.436137
O31   O     O_R   0.637270 0.114780 0.824640 -0.439228
O32   O     O_R   0.885220 0.522490 0.824640 -0.433581

loop_
_geom_bond_atom_site_label_1
_geom_bond_atom_site_label_2
_ccdc_geom_bond_type
C41   O5    A    
C5    C42   S    
C37   H21   S    
C16   H3    S    
C32   H10   S    
C4    C8    S    
C36   H19   S    
C34   O29   A    
Cr1   O5    S    
Cr6   O10   S    
C12   O1    A    
C30   O26   S    
C39   O4    A    
C29   O25   S    
Cr3   O14   S    
C42   O14   A    
Cr1   O30   S    
C36   H18   S    
C24   H25   S    
C5    C17   D    
C35   H17   S    
Cr5   O28   S    
C23   O12   A    
C20   H28   S    
C34   O2    A    
C15   H2    S    
C19   H29   S    
C9    C13   D    
C35   O24   S    
C23   O32   A    
C6    H32   S    
C3    O16   A    
Cr2   O31   S    
C33   H14   S    
C24   C38   S    
Cr6   O4    S    
C35   H16   S    
C18   C30   D    
C14   H36   S    
C12   O31   A    
C7    C15   D    
C21   C27   D    
C33   H11   S    
C37   H22   S    
C32   H9    S    
C17   H4    S    
C11   H34   S    
C22   C34   S    
C1    C19   S    
Cr5   O19   S    
C18   C23   S    
Cr1   O1    S    
C31   H6    S    
C2    O10   A    
C24   C25   D    
Cr3   O18   S    
Cr2   O18   S    
C20   C28   D    
C27   O22   S    
Cr6   O19   S    
Cr5   O16   S    
C3    O8    A    
C42   O6    A    
Cr5   O3    S    
Cr2   O12   S    
C5    H33   S    
Cr2   O13   S    
Cr1   O11   S    
C21   C39   S    
C18   H30   S    
C4    O17   A    
C12   C20   S    
Cr5   O9    S    
C31   H5    S    
C37   O26   S    
C1    O23   A    
C39   O28   A    
C2    O15   A    
C32   O21   S    
C41   O13   A    
C13   C16   S    
C1    O30   A    
C22   H26   S    
C40   O11   A    
C19   C29   D    
C36   O25   S    
Cr2   O6    S    
C7    H31   S    
C25   C30   S    
C13   H35   S    
C11   C17   S    
C8    H23   S    
C8    C14   D    
C33   O22   S    
C36   H20   S    
C25   O20   S    
Cr4   O19   S    
C21   H27   S    
C26   O21   S    
C38   O3    A    
C9    H12   S    
C31   O20   S    
Cr4   O15   S    
Cr1   O18   S    
C3    C10   S    
C2    C9    S    
Cr3   O32   S    
C28   O24   S    
Cr6   O17   S    
C6    C40   S    
C7    C41   S    
C40   O7    A    
Cr3   O7    S    
C10   C11   D    
C6    C16   D    
C4    O9    A    
Cr4   O8    S    
C26   C29   S    
C33   H13   S    
C22   C26   D    
C37   H24   S    
C27   C28   S    
C14   C15   S    
C35   H15   S    
C31   H7    S    
C38   O27   A    
Cr4   O27   S    
C10   H1    S    
C32   H8    S    
Cr3   O23   S    
Cr6   O29   S    
Cr4   O2    S    
