data_mof_unit_38725.cif
_audit_creation_date              2012-10-26T17:10:28-0400
_audit_creation_method            fapswitch 2.2
_symmetry_space_group_name_H-M    P1
_symmetry_Int_Tables_number       1
_space_group_crystal_system       triclinic
_cell_length_a                    16.833344
_cell_length_b                    16.800623
_cell_length_c                    16.826812
_cell_angle_alpha                 67.615751
_cell_angle_beta                  67.561571
_cell_angle_gamma                 67.630962
_cell_volume                      3910.02193238

loop_
_atom_site_label
_atom_site_type_symbol
_atom_type_description
_atom_site_fract_x
_atom_site_fract_y
_atom_site_fract_z
_atom_type_partial_charge
C1    C     C_R   0.595831 0.008157 0.600262 0.007470
C2    C     C_R   0.171384 0.434648 0.973762 0.559617
C3    C     C_R   0.565426 0.025800 0.828703 0.549279
C4    C     C_R   0.434789 0.972978 0.171433 0.552925
C5    C     C_R   0.434607 0.171360 0.974032 0.550851
C6    C     C_R   0.565424 0.828653 0.025825 0.552991
C7    C     C_R   0.973224 0.434768 0.171349 0.551476
C8    C     C_R   0.017201 0.568385 0.830347 0.555386
C9    C     C_R   0.171307 0.973429 0.434696 0.551197
C10   C     C_R   0.830542 0.016759 0.568542 0.555209
C11   C     C_R   0.546715 0.989228 0.556073 0.016607
C12   C     C_R   0.415644 0.936216 0.416003 0.009577
C13   C     C_R   0.463959 0.952285 0.463092 0.030730
C14   C     C_R   0.990328 0.556099 0.545825 0.017221
C15   C     C_R   0.951998 0.463858 0.463349 0.030855
C16   C     C_R   0.542060 0.544370 0.018490 0.028899
C17   C     C_R   0.457812 0.459886 0.972306 0.029102
C18   C     C_R   0.503799 0.059065 0.494911 -0.140566
C19   C     C_R   0.508830 0.881951 0.522608 -0.138778
C20   C     C_R   0.901561 0.570517 0.548651 -0.124786
C21   C     C_R   0.040691 0.450872 0.459306 -0.122979
C22   C     C_R   0.553492 0.555249 0.928180 -0.125990
C23   C     C_R   0.009960 0.599683 0.594991 0.007019
C24   C     C_R   0.448194 0.447287 0.062555 -0.124003
C25   C     C_R   0.460940 0.040825 0.450189 -0.122983
C26   C     C_R   0.548623 0.900604 0.570277 -0.125152
C27   C     C_R   0.510883 0.513840 0.905080 -0.140900
C28   C     C_R   0.489549 0.489880 0.085658 -0.140121
C29   C     C_R   0.882214 0.523190 0.508985 -0.138335
C30   C     C_R   0.059641 0.495216 0.502032 -0.141432
C31   C     C_R   0.549928 0.034507 0.680292 0.011302
C32   C     C_R   0.455767 0.937179 0.325192 0.001594
C33   C     C_R   0.035521 0.680147 0.549352 0.008290
C34   C     C_R   0.935220 0.416644 0.415651 0.009436
C35   C     C_R   0.936818 0.325590 0.455816 0.001274
C36   C     C_R   0.677784 0.546476 0.044828 0.004667
C37   C     C_R   0.323277 0.454675 0.947807 0.003985
C38   C     C_R   0.324766 0.937198 0.456620 0.006286
C39   C     C_R   0.689469 0.995466 0.564260 0.008353
C40   C     C_R   0.454757 0.324010 0.946876 0.006445
C41   C     C_R   0.546656 0.677496 0.046662 0.004650
C42   C     C_R   0.935888 0.457115 0.324873 0.006265
C43   C     C_R   0.998154 0.562958 0.688489 0.007947
C44   C     C_R   0.601507 0.033106 0.731626 -0.013446
C45   C     C_R   0.588403 0.588662 0.041039 0.010413
C46   C     C_R   0.400350 0.956769 0.270090 -0.022917
C47   C     C_R   0.033613 0.731530 0.601218 -0.016878
C48   C     C_R   0.956666 0.270235 0.400411 -0.022201
C49   C     C_R   0.730758 0.600186 0.036748 -0.019682
C50   C     C_R   0.269617 0.400155 0.960193 -0.022259
C51   C     C_R   0.269832 0.956952 0.400713 -0.015682
C52   C     C_R   0.735598 0.015544 0.607338 -0.013907
C53   C     C_R   0.400248 0.269785 0.960111 -0.015534
C54   C     C_R   0.600253 0.730551 0.037798 -0.022665
C55   C     C_R   0.956419 0.400897 0.269886 -0.015540
C56   C     C_R   0.412970 0.413678 0.950280 0.009641
C57   C     C_R   0.016716 0.606807 0.735135 -0.014534
C58   C     C_R   0.691674 0.029753 0.691841 -0.179417
C59   C     C_R   0.308601 0.967094 0.308869 -0.177416
C60   C     C_R   0.030018 0.691776 0.691463 -0.179413
C61   C     C_R   0.967041 0.308903 0.308619 -0.176454
C62   C     C_R   0.691029 0.690929 0.032484 -0.179949
C63   C     C_R   0.309031 0.308900 0.967086 -0.177536
C64   C     C_3   0.447300 0.065092 0.708412 -0.252956
C65   C     C_3   0.411977 0.161830 0.713955 -0.425322
C66   C     C_3   0.557661 0.908707 0.292122 -0.241687
C67   C     C_R   0.025955 0.828681 0.565320 0.537478
C68   C     C_3   0.598484 0.987305 0.256120 -0.403527
C69   C     C_3   0.065858 0.708628 0.446640 -0.252276
C70   C     C_3   0.162207 0.714960 0.411032 -0.423904
C71   C     C_3   0.908940 0.292473 0.557761 -0.241842
C72   C     C_3   0.987778 0.256695 0.597897 -0.403932
C73   C     C_3   0.712373 0.444399 0.061781 -0.250761
C74   C     C_3   0.727139 0.398193 0.154877 -0.414697
C75   C     C_3   0.289966 0.556791 0.924768 -0.240603
C76   C     C_3   0.250483 0.591790 0.007545 -0.405217
C77   C     C_3   0.289854 0.913530 0.558981 -0.251708
C78   C     C_R   0.972989 0.171476 0.434825 0.559097
C79   C     C_3   0.267113 0.823837 0.597826 -0.420896
C80   C     C_3   0.738307 0.957416 0.482838 -0.248488
C81   C     C_3   0.796813 0.861415 0.508525 -0.410950
C82   C     C_3   0.557016 0.290315 0.925000 -0.250908
C83   C     C_3   0.598650 0.271905 0.833256 -0.421337
C84   C     C_3   0.444659 0.710401 0.069200 -0.239698
C85   C     C_3   0.410484 0.752264 0.985878 -0.404456
C86   C     C_3   0.911170 0.559595 0.290118 -0.252541
C87   C     C_3   0.821929 0.597325 0.267037 -0.420507
C88   C     C_3   0.962965 0.479634 0.736474 -0.246671
C89   C     C_R   0.828725 0.565656 0.025097 0.537417
C90   C     C_3   0.866570 0.502712 0.794836 -0.412405
Cu1   Cu    Cu3+1 0.995180 0.995180 0.424630 0.875771
Cu2   Cu    Cu3+1 0.004820 0.004820 0.575370 0.876378
Cu3   Cu    Cu3+1 0.995180 0.424630 0.995180 0.875567
Cu4   Cu    Cu3+1 0.004820 0.575370 0.004820 0.875723
Cu5   Cu    Cu3+1 0.424630 0.995180 0.995180 0.877018
Cu6   Cu    Cu3+1 0.575370 0.004820 0.004820 0.876803
H1    H     H_    0.582552 0.846122 0.616718 0.105730
H2    H     H_    0.594858 0.596428 0.875843 0.106136
H3    H     H_    0.094991 0.405212 0.424106 0.109881
H4    H     H_    0.847533 0.616912 0.583107 0.103723
H5    H     H_    0.728927 0.035844 0.728419 0.153421
H6    H     H_    0.266251 0.984496 0.266454 0.157362
H7    H     H_    0.035266 0.728709 0.728981 0.154237
H8    H     H_    0.984857 0.266302 0.266201 0.157299
H9    H     H_    0.731911 0.731878 0.023674 0.157524
H10   H     H_    0.267555 0.267192 0.979312 0.157576
H11   H     H_    0.433359 0.169965 0.764442 0.168672
H12   H     H_    0.426318 0.095564 0.404421 0.109714
H13   H     H_    0.436576 0.207207 0.647784 0.136204
H14   H     H_    0.337759 0.182082 0.732941 0.128921
H15   H     H_    0.417771 0.063651 0.660708 0.137883
H16   H     H_    0.418528 0.019091 0.771382 0.167139
H17   H     H_    0.666315 0.969504 0.210208 0.122707
H18   H     H_    0.556998 0.048789 0.219307 0.173207
H19   H     H_    0.605512 0.001967 0.311628 0.139924
H20   H     H_    0.586010 0.858223 0.347129 0.124836
H21   H     H_    0.580449 0.872018 0.241247 0.157173
H22   H     H_    0.169970 0.765577 0.432654 0.169881
H23   H     H_    0.128161 0.482868 0.500500 0.106783
H24   H     H_    0.207915 0.648906 0.435206 0.135171
H25   H     H_    0.182253 0.734264 0.336769 0.126129
H26   H     H_    0.064880 0.660758 0.416904 0.137660
H27   H     H_    0.019537 0.771385 0.418163 0.165440
H28   H     H_    0.048993 0.219840 0.556125 0.173394
H29   H     H_    0.002553 0.312402 0.604564 0.139922
H30   H     H_    0.970330 0.210807 0.665853 0.122846
H31   H     H_    0.858632 0.347481 0.586377 0.125121
H32   H     H_    0.872392 0.241398 0.580868 0.158762
H33   H     H_    0.773830 0.422818 0.165352 0.175317
H34   H     H_    0.813588 0.534005 0.511978 0.099339
H35   H     H_    0.662308 0.410476 0.206762 0.132203
H36   H     H_    0.755136 0.324886 0.163780 0.127995
H37   H     H_    0.665177 0.414752 0.059371 0.136961
H38   H     H_    0.772473 0.424289 0.008294 0.162924
H39   H     H_    0.208601 0.550720 0.063725 0.175494
H40   H     H_    0.304415 0.591422 0.030224 0.144973
H41   H     H_    0.208716 0.661989 0.990535 0.120253
H42   H     H_    0.345309 0.586792 0.878608 0.122518
H43   H     H_    0.241690 0.583198 0.884630 0.159648
H44   H     H_    0.216758 0.823578 0.570643 0.172741
H45   H     H_    0.481459 0.479971 0.155484 0.100171
H46   H     H_    0.328496 0.769239 0.582045 0.131334
H47   H     H_    0.240057 0.809827 0.671656 0.127315
H48   H     H_    0.339090 0.906367 0.591413 0.136976
H49   H     H_    0.233227 0.968040 0.582203 0.167222
H50   H     H_    0.844240 0.856387 0.542320 0.183180
H51   H     H_    0.754145 0.816299 0.554567 0.128764
H52   H     H_    0.835578 0.837990 0.447597 0.121679
H53   H     H_    0.692789 0.954998 0.451255 0.138277
H54   H     H_    0.776131 0.001638 0.426297 0.164845
H55   H     H_    0.573559 0.222048 0.828725 0.172529
H56   H     H_    0.519724 0.522970 0.835253 0.098817
H57   H     H_    0.582988 0.335009 0.780316 0.132319
H58   H     H_    0.672409 0.245953 0.820379 0.126164
H59   H     H_    0.587586 0.339618 0.921785 0.136491
H60   H     H_    0.579573 0.231776 0.978520 0.166385
H61   H     H_    0.451779 0.794801 0.931030 0.175425
H62   H     H_    0.411166 0.699509 0.961158 0.143891
H63   H     H_    0.340370 0.794004 0.003127 0.120174
H64   H     H_    0.414858 0.654406 0.113436 0.122575
H65   H     H_    0.417403 0.757089 0.111331 0.158603
H66   H     H_    0.822806 0.570002 0.216172 0.174106
H67   H     H_    0.511043 0.813438 0.533375 0.099319
H68   H     H_    0.767433 0.580696 0.328203 0.131664
H69   H     H_    0.807009 0.671319 0.240427 0.127744
H70   H     H_    0.902933 0.592286 0.339675 0.136634
H71   H     H_    0.965414 0.583441 0.233607 0.166872
H72   H     H_    0.859321 0.536998 0.842902 0.181771
H73   H     H_    0.821345 0.547511 0.752102 0.129999
H74   H     H_    0.845214 0.440480 0.832872 0.119133
H75   H     H_    0.962789 0.447310 0.690304 0.138048
H76   H     H_    0.007889 0.424172 0.774175 0.164418
H77   H     H_    0.502958 0.127475 0.482696 0.106885
H78   H     H_    0.407954 0.405016 0.114916 0.109312
O1    O     O_R   0.124540 0.978640 0.385460 -0.510809
O2    O     O_R   0.124540 0.385460 0.978640 -0.505560
O3    O     O_R   0.021360 0.875460 0.614540 -0.512969
O4    O     O_R   0.978640 0.124540 0.385460 -0.505877
O5    O     O_R   0.013780 0.867370 0.487190 -0.521842
O6    O     O_R   0.986220 0.132630 0.512810 -0.508298
O7    O     O_R   0.867370 0.487190 0.013780 -0.522245
O8    O     O_R   0.132630 0.512810 0.986220 -0.509993
O9    O     O_R   0.487190 0.013780 0.867370 -0.514807
O10   O     O_R   0.512810 0.986220 0.132630 -0.509849
O11   O     O_R   0.512810 0.132630 0.986220 -0.514368
O12   O     O_R   0.875460 0.021360 0.614540 -0.511285
O13   O     O_R   0.487190 0.867370 0.013780 -0.511655
O14   O     O_R   0.986220 0.512810 0.132630 -0.514312
O15   O     O_R   0.013780 0.487190 0.867370 -0.516136
O16   O     O_R   0.132630 0.986220 0.512810 -0.514086
O17   O     O_R   0.867370 0.013780 0.487190 -0.516190
O18   O     O_R   0.978640 0.385460 0.124540 -0.511226
O19   O     O_R   0.021360 0.614540 0.875460 -0.511046
O20   O     O_R   0.385460 0.124540 0.978640 -0.510771
O21   O     O_R   0.614540 0.875460 0.021360 -0.510737
O22   O     O_R   0.614540 0.021360 0.875460 -0.511420
O23   O     O_R   0.385460 0.978640 0.124540 -0.510634
O24   O     O_R   0.875460 0.614540 0.021360 -0.513135

loop_
_geom_bond_atom_site_label_1
_geom_bond_atom_site_label_2
_ccdc_geom_bond_type
C16   C28   A    
C66   C68   S    
C11   C18   A    
Cu3   Cu4   S    
C88   H76   S    
C74   H36   S    
C46   C59   A    
C28   H45   S    
Cu4   O19   S    
C73   C74   S    
Cu5   Cu6   S    
C34   C42   A    
C7    C55   S    
C13   C25   A    
Cu4   O8    S    
C84   H64   S    
Cu5   O13   S    
C62   H9    S    
C4    C46   S    
C76   H41   S    
C80   H54   S    
C89   O24   A    
C27   H56   S    
C66   H20   S    
C78   O6    A    
C43   C88   S    
C5    C53   S    
C6    C54   S    
C21   H3    S    
Cu2   O12   S    
C64   H16   S    
C79   H46   S    
C30   H23   S    
C69   H27   S    
Cu1   O4    S    
C1    C31   A    
C23   C43   A    
C34   C35   A    
C2    O8    A    
C48   C78   S    
C19   C26   A    
C73   H38   S    
Cu2   O6    S    
C2    O2    A    
C47   C60   A    
C37   C56   A    
Cu3   O7    S    
Cu6   O21   S    
C79   H47   S    
C44   C58   A    
C40   C56   A    
C66   H21   S    
C9    C51   S    
C9    O1    A    
C42   C86   S    
C5    O11   A    
C60   H7    S    
C2    C50   S    
C15   C34   S    
C33   C69   S    
C68   H17   S    
C82   H60   S    
C39   C52   A    
C37   C75   S    
C35   C71   S    
C88   H75   S    
C78   O4    A    
C74   H35   S    
C72   H28   S    
C50   C63   A    
C71   H31   S    
C18   C25   A    
C85   H61   S    
C14   C30   A    
C35   C48   A    
Cu6   O11   S    
C47   C67   S    
C6    O21   A    
C76   H39   S    
Cu2   O16   S    
C15   C29   A    
C83   H55   S    
C20   C29   A    
C77   C79   S    
C76   H40   S    
C80   H53   S    
C65   H14   S    
C3    O22   A    
C3    C44   S    
C17   C24   A    
C49   C89   S    
C31   C44   A    
C13   C19   A    
C17   C27   A    
C14   C20   A    
C7    O14   A    
C8    O19   A    
C61   H8    S    
C84   C85   S    
C23   C33   A    
C67   O3    A    
C70   H24   S    
Cu1   Cu2   S    
C83   H58   S    
C1    C39   A    
C86   C87   S    
C57   C60   A    
C38   C51   A    
C68   H19   S    
C11   C26   A    
C81   H51   S    
C41   C84   S    
Cu1   O17   S    
C6    O13   A    
C72   H30   S    
Cu4   O24   S    
C89   O7    A    
C14   C23   S    
C75   C76   S    
C36   C49   A    
C40   C82   S    
C8    C57   S    
C10   C52   S    
C22   H2    S    
C29   H34   S    
C20   H4    S    
C15   C21   A    
C8    O15   A    
Cu5   O23   S    
C81   H52   S    
C90   H74   S    
Cu1   O1    S    
C36   C45   A    
C58   H5    S    
C19   H67   S    
C4    O10   A    
C63   H10   S    
C17   C56   S    
C65   H13   S    
C52   C58   A    
C82   H59   S    
C4    O23   A    
C88   C90   S    
C82   C83   S    
Cu5   O20   S    
C22   C27   A    
C33   C47   A    
C7    O18   A    
C51   C59   A    
C85   H62   S    
C9    O16   A    
C77   H49   S    
C32   C66   S    
Cu3   O18   S    
C16   C22   A    
C49   C62   A    
C90   H72   S    
C24   H78   S    
Cu6   O10   S    
C59   H6    S    
C32   C46   A    
C31   C64   S    
C86   H71   S    
C24   C28   A    
Cu4   O14   S    
C80   C81   S    
C64   H15   S    
C75   H42   S    
C16   C45   S    
C40   C53   A    
C83   H57   S    
C38   C77   S    
Cu3   O15   S    
C54   C62   A    
C21   C30   A    
C72   H29   S    
Cu3   O2    S    
C10   O17   A    
C86   H70   S    
Cu1   O5    S    
C64   C65   S    
C77   H48   S    
C71   C72   S    
C75   H43   S    
C39   C80   S    
C37   C50   A    
C53   C63   A    
C70   H25   S    
Cu5   O9    S    
C48   C61   A    
C87   H69   S    
C69   H26   S    
C70   H22   S    
C42   C55   A    
C55   C61   A    
C90   H73   S    
C10   O12   A    
C87   H68   S    
C12   C38   A    
C69   C70   S    
C71   H32   S    
C41   C54   A    
Cu2   O3    S    
C43   C57   A    
C26   H1    S    
C18   H77   S    
Cu6   O22   S    
C87   H66   S    
C12   C13   S    
C79   H44   S    
C81   H50   S    
C73   H37   S    
C74   H33   S    
C41   C45   A    
C67   O5    A    
C1    C11   S    
C85   H63   S    
C3    O9    A    
C36   C73   S    
C65   H11   S    
C12   C32   A    
C84   H65   S    
C25   H12   S    
C68   H18   S    
C5    O20   A    
