data_mof_unit_39047.cif
_audit_creation_date              2012-12-10T20:57:51-0500
_audit_creation_method            fapswitch 2.2
_symmetry_space_group_name_H-M    P1
_symmetry_Int_Tables_number       1
_space_group_crystal_system       triclinic
_cell_length_a                    18.204426
_cell_length_b                    18.248164
_cell_length_c                    18.444887
_cell_angle_alpha                 120.087331
_cell_angle_beta                  89.850045
_cell_angle_gamma                 119.950772
_cell_volume                      4335.82901785

loop_
_atom_site_label
_atom_site_type_symbol
_atom_type_description
_atom_site_fract_x
_atom_site_fract_y
_atom_site_fract_z
_atom_type_partial_charge
C1    C     C_R   0.358276 0.220163 0.361079 0.783367
C2    C     C_3   0.801269 0.940372 0.729077 -0.046302
C3    C     C_3   0.699812 0.897102 0.698822 0.126710
C4    C     C_R   0.641083 0.780842 0.639911 0.765134
C5    C     C_3   0.800114 0.102240 0.804466 0.133609
C6    C     C_3   0.726209 0.056248 0.841460 -0.375119
C7    C     C_3   0.859332 0.060322 0.798570 -0.117410
C8    C     C_3   0.706599 0.412932 0.269151 -0.475843
C9    C     C_3   0.760379 0.407325 0.203610 -0.129834
C10   C     C_3   0.656852 0.493091 0.221463 -0.424218
C11   C     C_3   0.795380 0.608288 0.357723 -0.077673
C12   C     C_3   0.345490 0.607020 0.319711 -0.418004
C13   C     C_3   0.698913 0.504883 0.303202 0.104156
C14   C     C_3   0.800932 0.505159 0.201383 0.084224
C15   C     C_3   0.717644 0.496143 0.162389 -0.080766
C16   C     C_R   0.360007 0.501447 0.641513 0.789068
C17   C     C_3   0.857261 0.606046 0.299096 -0.064090
C18   C     C_R   0.286306 0.139662 0.579158 -0.185147
C19   C     C_R   0.292973 0.098013 0.494084 -0.134926
C20   C     C_R   0.249825 0.098340 0.431478 0.132998
C21   C     C_R   0.199510 0.140002 0.454417 -0.170561
C22   C     C_R   0.191706 0.180685 0.539559 0.171989
C23   C     C_3   0.298496 0.498525 0.301573 0.149285
C24   C     C_R   0.235530 0.180329 0.601681 -0.127283
C25   C     C_R   0.203351 0.943634 0.285117 -0.261204
C26   C     C_R   0.196616 0.892229 0.195666 -0.054108
C27   C     C_R   0.242301 0.949272 0.160518 -0.013378
C28   C     C_R   0.640730 0.501869 0.359795 0.801234
C29   C     C_R   0.294618 0.056384 0.216451 -0.267708
C30   C     C_R   0.300846 0.107732 0.305837 -0.049315
C31   C     C_R   0.253649 0.050635 0.340360 -0.000398
C32   C     C_R   0.295233 0.870196 0.038239 -0.163819
C33   C     C_R   0.292672 0.825641 0.949874 -0.130393
C34   C     C_3   0.195818 0.496280 0.198354 0.146269
C35   C     C_R   0.232801 0.811488 0.888962 -0.157946
C36   C     C_R   0.175079 0.841470 0.916046 -0.112786
C37   C     C_R   0.177153 0.886535 0.004450 0.155074
C38   C     C_R   0.237805 0.901045 0.066318 0.112547
C39   C     C_R   0.886215 0.599982 0.548254 -0.179352
C40   C     C_R   0.641449 0.499547 0.640087 0.806019
C41   C     C_R   0.836749 0.548971 0.585482 -0.173830
C42   C     C_R   0.839046 0.605879 0.673022 0.147619
C43   C     C_R   0.891518 0.714354 0.723220 -0.200845
C44   C     C_R   0.941349 0.766325 0.686135 0.128930
C45   C     C_3   0.148329 0.470746 0.260663 -0.438172
C46   C     C_R   0.938462 0.708259 0.597840 0.173659
C47   C     C_R   0.839874 0.552463 0.769856 -0.259359
C48   C     C_R   0.798976 0.499739 0.808131 -0.077851
C49   C     C_R   0.705338 0.446033 0.791826 -0.064506
C50   C     C_R   0.653775 0.445689 0.736007 0.039589
C51   C     C_R   0.695974 0.499071 0.696845 -0.068659
C52   C     C_R   0.357552 0.499740 0.359420 0.773779
C53   C     C_R   0.789810 0.552132 0.713837 -0.037440
C54   C     C_R   0.623931 0.283583 0.784766 -0.147198
C55   C     C_R   0.574175 0.226481 0.817379 -0.133654
C56   C     C_3   0.285828 0.605441 0.258583 -0.445311
C57   C     C_R   0.556845 0.273543 0.895713 -0.175216
C58   C     C_R   0.590113 0.378119 0.942205 -0.123148
C59   C     C_R   0.642216 0.437041 0.911634 0.141558
C60   C     C_R   0.658274 0.389028 0.831345 0.115062
C61   C     C_R   0.372236 0.803701 0.724621 0.172789
C62   C     C_R   0.362692 0.732764 0.741385 -0.204265
C63   C     C_R   0.284733 0.630906 0.692760 0.113287
C64   C     C_3   0.280676 0.420589 0.201957 -0.406920
C65   C     C_R   0.215575 0.599683 0.626710 0.156869
C66   C     C_R   0.225836 0.671004 0.610232 -0.232234
C67   C     C_3   0.687058 0.940817 0.650181 -0.380018
C68   C     C_R   0.303663 0.771830 0.658486 -0.160532
C69   C     C_R   0.214296 0.558285 0.773728 -0.236052
C70   C     C_R   0.195478 0.498219 0.805859 -0.070983
C71   C     C_R   0.233054 0.441214 0.785546 0.003693
C72   C     C_R   0.288876 0.447122 0.734224 -0.225407
C73   C     C_R   0.305904 0.505341 0.700175 -0.064411
C74   C     C_R   0.269272 0.563464 0.721800 0.014503
C75   C     C_R   0.282161 0.401514 0.879652 -0.234449
C76   C     C_3   0.219728 0.417277 0.140779 -0.027538
C77   C     C_R   0.267521 0.333347 0.901630 -0.133093
C78   C     C_3   0.754836 0.060287 0.707119 -0.100580
C79   C     C_R   0.186278 0.235032 0.857030 0.174969
C80   C     C_R   0.118823 0.205956 0.791411 -0.215876
C81   C     C_R   0.132865 0.274526 0.770237 -0.114451
C82   C     C_R   0.214948 0.372481 0.813772 0.161183
C83   C     C_R   0.857368 0.501850 0.142785 0.770467
C84   C     C_R   0.138499 0.499328 0.861556 0.794061
C85   C     C_R   0.856989 0.218980 0.863158 0.734045
C86   C     C_R   0.139342 0.779837 0.140992 0.783112
C87   C     C_R   0.855890 0.500514 0.862971 0.801848
C88   C     C_3   0.205096 0.463049 0.315781 -0.050092
C89   C     C_3   0.673166 0.936667 0.783681 -0.461306
C90   C     C_R   0.138993 0.498725 0.142304 0.751800
H1    H     H_    0.249438 0.342006 0.186746 0.194969
H2    H     H_    0.712048 0.337125 0.136281 0.165447
H3    H     H_    0.643275 0.552595 0.242912 0.165621
H4    H     H_    0.319980 0.139753 0.627516 0.137271
H5    H     H_    0.331640 0.065572 0.476917 0.125279
H6    H     H_    0.166567 0.900330 0.311874 0.173197
H7    H     H_    0.230840 0.776964 0.820578 0.148871
H8    H     H_    0.168978 0.380228 0.291030 0.133446
H9    H     H_    0.893762 0.758076 0.791171 0.129196
H10   H     H_    0.911703 0.592710 0.781788 0.182389
H11   H     H_    0.635342 0.245699 0.722936 0.125024
H12   H     H_    0.272835 0.664750 0.300322 0.190326
H13   H     H_    0.575383 0.413516 0.002312 0.149248
H14   H     H_    0.309930 0.826073 0.645585 0.136971
H15   H     H_    0.185476 0.601703 0.788638 0.179316
H16   H     H_    0.317791 0.403793 0.719400 0.177705
H17   H     H_    0.319936 0.356352 0.952340 0.137416
H18   H     H_    0.360757 0.666495 0.390330 0.184659
H19   H     H_    0.056195 0.129737 0.756014 0.116891
H20   H     H_    0.080416 0.250939 0.719190 0.120733
H21   H     H_    0.410961 0.630517 0.307580 0.154377
H22   H     H_    0.322488 0.627516 0.216876 0.154964
H23   H     H_    0.695965 0.906092 0.584199 0.144795
H24   H     H_    0.149601 0.489060 0.414969 0.166329
H25   H     H_    0.239598 0.598149 0.433479 0.203934
H26   H     H_    0.138714 0.532323 0.305355 0.180695
H27   H     H_    0.616859 0.918538 0.637229 0.189146
H28   H     H_    0.669789 0.107946 0.742234 0.205404
H29   H     H_    0.758188 0.182502 0.722457 0.191778
H30   H     H_    0.600147 0.902016 0.765303 0.183005
H31   H     H_    0.345477 0.443290 0.188330 0.162093
H32   H     H_    0.897007 0.927985 0.675492 0.190795
H33   H     H_    0.843174 0.954113 0.628781 0.163625
H34   H     H_    0.808729 0.079034 0.676971 0.127663
H35   H     H_    0.916090 0.096940 0.777291 0.138885
H36   H     H_    0.938493 0.165374 0.932078 0.203715
H37   H     H_    0.939376 0.060888 0.877558 0.169426
H38   H     H_    0.756928 0.087958 0.911212 0.175814
H39   H     H_    0.859296 0.381192 0.177255 0.175092
H40   H     H_    0.874419 0.452812 0.287217 0.183741
H41   H     H_    0.589976 0.417306 0.180949 0.174154
H42   H     H_    0.259158 0.442972 0.101958 0.148772
H43   H     H_    0.677145 0.420092 0.096597 0.170019
H44   H     H_    0.856619 0.766605 0.441420 0.181522
H45   H     H_    0.679144 0.078449 0.843318 0.170899
H46   H     H_    0.769900 0.705338 0.351590 0.174085
H47   H     H_    0.823870 0.611317 0.413219 0.165640
H48   H     H_    0.906308 0.600171 0.327266 0.146997
H49   H     H_    0.961411 0.760834 0.366519 0.181180
H50   H     H_    0.876528 0.726323 0.292724 0.174933
H51   H     H_    0.798058 0.597585 0.128723 0.191482
H52   H     H_    0.746503 0.639517 0.199565 0.182333
H53   H     H_    0.230348 0.211463 0.667517 0.144787
H54   H     H_    0.085396 0.293560 0.098608 0.178830
H55   H     H_    0.123735 0.295307 0.015782 0.218350
H56   H     H_    0.806562 0.903962 0.760741 0.167092
H57   H     H_    0.165455 0.139125 0.405592 0.100184
H58   H     H_    0.080750 0.168364 0.566505 0.161213
H59   H     H_    0.118190 0.225774 0.513789 0.171144
H60   H     H_    0.330847 0.099685 0.189540 0.171878
H61   H     H_    0.341963 0.880808 0.084867 0.119895
H62   H     H_    0.337095 0.801990 0.928573 0.131233
H63   H     H_    0.128609 0.829682 0.868177 0.134069
H64   H     H_    0.154431 0.995218 0.079737 0.183055
H65   H     H_    0.077060 0.876542 0.055855 0.190361
H66   H     H_    0.968520 0.804085 0.560555 0.190984
H67   H     H_    0.686684 0.911806 0.823114 0.167610
H68   H     H_    0.056359 0.806570 0.594856 0.178088
H69   H     H_    0.884232 0.555126 0.480675 0.125776
H70   H     H_    0.797094 0.465213 0.546396 0.123589
H71   H     H_    0.062279 0.903504 0.752448 0.170269
H72   H     H_    0.983367 0.907997 0.797743 0.173279
H73   H     H_    0.530103 0.312356 0.689699 0.187754
H74   H     H_    0.544978 0.421411 0.778398 0.175266
H75   H     H_    0.548034 0.145347 0.781312 0.127465
H76   H     H_    0.517388 0.228898 0.920356 0.135947
H77   H     H_    0.079643 0.397905 0.223171 0.131660
H78   H     H_    0.638493 0.338713 0.235007 0.175285
H79   H     H_    0.653938 0.559331 0.923530 0.171586
H80   H     H_    0.747839 0.587014 0.979279 0.179418
H81   H     H_    0.484578 0.922457 0.735512 0.171089
H82   H     H_    0.491250 0.923386 0.827087 0.169602
H83   H     H_    0.414224 0.757581 0.794263 0.115499
H84   H     H_    0.150448 0.445479 0.538752 0.182696
H85   H     H_    0.087779 0.488090 0.536913 0.167109
H86   H     H_    0.172985 0.649010 0.560724 0.131686
H87   H     H_    0.346081 0.476440 0.913259 0.132652
H88   H     H_    0.115061 0.141239 0.894772 0.177471
H89   H     H_    0.739274 0.421857 0.326699 0.174073
H90   H     H_    0.162527 0.098909 0.819875 0.177953
N1    N     N_3   0.213860 0.521747 0.409786 -0.439571
N2    N     N_3   0.138912 0.221459 0.563506 -0.468824
N3    N     N_3   0.116624 0.915777 0.029719 -0.482168
N4    N     N_3   0.988235 0.758017 0.557541 -0.497388
N5    N     N_3   0.994951 0.877366 0.737232 -0.500062
N6    N     N_3   0.558125 0.390635 0.718932 -0.409166
N7    N     N_3   0.677956 0.544949 0.962785 -0.471681
N8    N     N_3   0.448696 0.909686 0.777070 -0.478561
N9    N     N_3   0.134298 0.496823 0.579129 -0.467637
N10   N     N_3   0.173477 0.164534 0.877648 -0.472139
N11   N     N_3   0.710053 0.106612 0.701889 -0.467448
N12   N     N_3   0.833935 0.910460 0.653205 -0.440918
N13   N     N_3   0.897091 0.085435 0.884742 -0.475594
N14   N     N_3   0.826544 0.390926 0.224413 -0.465758
N15   N     N_3   0.792489 0.699408 0.398981 -0.444868
N16   N     N_3   0.913083 0.701483 0.303303 -0.444705
N17   N     N_3   0.739511 0.574294 0.145480 -0.452313
N18   N     N_3   0.141277 0.309548 0.077589 -0.464398
O1    O     O_3   0.500000 0.500000 0.500000 -0.484034
O2    O     O_R   0.113800 0.731630 0.056520 -0.639286
O3    O     O_R   0.819390 0.439310 0.886160 -0.639796
O4    O     O_R   0.383400 0.268380 0.323710 -0.651281
O5    O     O_R   0.115110 0.560720 0.179280 -0.645988
O6    O     O_R   0.941380 0.560750 0.885620 -0.649481
O7    O     O_R   0.115110 0.439270 0.057830 -0.658894
O8    O     O_R   0.942690 0.268390 0.886930 -0.660721
O9    O     O_R   0.114340 0.731630 0.178520 -0.643547
O10   O     O_R   0.820160 0.439310 0.057830 -0.653060
O11   O     O_R   0.113800 0.560730 0.885620 -0.639075
O12   O     O_R   0.383400 0.560740 0.616060 -0.640174
O13   O     O_R   0.555060 0.731630 0.615290 -0.655156
O14   O     O_R   0.383950 0.439280 0.616600 -0.635946
O15   O     O_R   0.677590 0.560710 0.444390 -0.626659
O16   O     O_R   0.556370 0.439260 0.616600 -0.616316
O17   O     O_R   0.382640 0.439290 0.322940 -0.660744
O18   O     O_R   0.678360 0.560700 0.616060 -0.644510
O19   O     O_R   0.382640 0.560750 0.444390 -0.619480
O20   O     O_R   0.555060 0.439270 0.322940 -0.656750
O21   O     O_R   0.383950 0.268380 0.445700 -0.630975
O22   O     O_R   0.677590 0.731610 0.615290 -0.616922
O23   O     O_3   0.997750 0.500010 0.002220 -0.473665
O24   O     O_R   0.942690 0.560750 0.179280 -0.628640
O25   O     O_R   0.114340 0.439270 0.886160 -0.638125
O26   O     O_R   0.820160 0.268410 0.886930 -0.643627
Zn1   Zn    Zn3+2 0.456040 0.586770 0.543190 0.963463
Zn2   Zn    Zn3+2 0.456820 0.413240 0.543960 0.976525
Zn3   Zn    Zn3+2 0.631110 0.586750 0.543190 0.977214
Zn4   Zn    Zn3+2 0.456040 0.413240 0.369660 0.942101
Zn5   Zn    Zn3+2 0.041710 0.413240 0.959030 0.943343
Zn6   Zn    Zn3+2 0.866640 0.413270 0.959030 0.953698
Zn7   Zn    Zn3+2 0.040930 0.586780 0.958260 0.967007
Zn8   Zn    Zn3+2 0.041710 0.586770 0.132560 0.952008

loop_
_geom_bond_atom_site_label_1
_geom_bond_atom_site_label_2
_ccdc_geom_bond_type
C25   C31   A    
C66   C68   A    
C63   C65   A    
C34   C56   S    
C8    C13   S    
C27   C29   A    
C11   C13   S    
C41   C42   A    
C54   H11   S    
O7    Zn5   S    
C35   C36   A    
C45   H26   S    
C43   C44   A    
C81   H20   S    
C81   C82   A    
H66   N4    S    
C39   C41   A    
C54   C60   A    
C65   N9    S    
C12   C23   S    
C26   C27   A    
C37   C38   A    
C49   C60   S    
H81   N8    S    
H73   N6    S    
C18   C24   A    
C5    C6    S    
C21   H57   S    
O10   Zn6   S    
C36   C37   A    
C2    N12   S    
O17   Zn4   S    
H74   N6    S    
C10   C15   S    
H37   N13   S    
C42   C53   S    
C30   C31   A    
C15   N17   S    
H65   N3    S    
O9    Zn8   S    
C27   C38   S    
C4    O13   A    
C64   H31   S    
C37   N3    S    
C70   C84   S    
C88   N1    S    
C18   C19   A    
O11   Zn7   S    
C46   N4    S    
C6    C89   S    
C10   H41   S    
H71   N5    S    
C8    H78   S    
C33   C35   A    
C29   H60   S    
C83   O24   A    
H44   N15   S    
C2    C7    S    
C8    C9    S    
C4    O22   A    
C79   N10   S    
O23   Zn6   S    
C36   H63   S    
C41   H70   S    
C10   C13   S    
C13   C28   S    
C59   N7    S    
C17   H48   S    
O2    Zn7   S    
C32   C38   A    
C7    N13   S    
C29   C30   A    
C78   H34   S    
O1    Zn4   S    
C44   N5    S    
C47   C53   A    
C71   C82   S    
C5    C85   S    
O24   Zn8   S    
C59   C60   A    
C21   C22   A    
O8    Zn5   S    
C14   C17   S    
C66   H86   S    
C61   C62   A    
C67   C78   S    
H51   N17   S    
C14   C83   S    
H36   N13   S    
C1    O4    A    
C9    H2    S    
O20   Zn4   S    
H25   N1    S    
C44   C46   A    
C85   O8    A    
H39   N14   S    
C77   C79   A    
C73   C74   A    
C64   C76   S    
C56   H12   S    
O18   Zn3   S    
O23   Zn5   S    
C16   C73   S    
C23   C64   S    
C16   O14   A    
C45   C88   S    
H79   N7    S    
H46   N15   S    
C12   H18   S    
C69   H15   S    
C9    N14   S    
C11   N15   S    
O4    Zn4   S    
C57   H76   S    
C83   O10   A    
C25   C26   A    
C62   H83   S    
O1    Zn1   S    
C52   O17   A    
C47   H10   S    
O22   Zn3   S    
C51   C53   A    
C80   H19   S    
C23   C52   S    
C9    C14   S    
C34   C90   S    
C62   C63   A    
O15   Zn3   S    
O26   Zn6   S    
C90   O7    A    
C67   H27   S    
H28   N11   S    
C11   H47   S    
C47   C48   A    
C89   H30   S    
C77   H17   S    
C26   C86   S    
H64   N3    S    
C40   O18   A    
C50   C51   A    
C52   O19   A    
C48   C87   S    
C69   C74   A    
C1    O21   A    
C34   C45   S    
C7    H35   S    
C89   H67   S    
C75   C77   A    
C12   C56   S    
C39   C46   A    
C48   C49   A    
C72   H16   S    
C49   C50   A    
C23   C88   S    
C45   H77   S    
H59   N2    S    
C18   H4    S    
H52   N17   S    
C22   C24   A    
C6    H45   S    
C34   C76   S    
C42   C43   A    
C55   H75   S    
C40   O16   A    
C3    C4    S    
C84   O25   A    
C87   O6    A    
C70   C71   A    
C19   H5    S    
H49   N16   S    
H24   N1    S    
C5    C7    S    
C90   O5    A    
C28   O15   A    
C61   C68   A    
C54   C55   A    
O3    Zn6   S    
C28   O20   A    
H80   N7    S    
C39   H69   S    
C84   O11   A    
C3    C67   S    
C78   N11   S    
C68   H14   S    
H29   N11   S    
C80   C81   A    
H40   N14   S    
C33   H62   S    
C11   C17   S    
C86   O9    A    
H85   N9    S    
H72   N5    S    
H50   N16   S    
C75   C82   A    
H32   N12   S    
C15   H43   S    
C63   C74   S    
C2    H56   S    
C40   C51   S    
C10   H3    S    
C3    C89   S    
C32   C33   A    
C19   C20   A    
C55   C57   A    
C2    C3    S    
C58   C59   A    
C75   H87   S    
O14   Zn2   S    
H55   N18   S    
C22   N2    S    
H90   N10   S    
C43   H9    S    
C76   H42   S    
C8    H89   S    
C57   C58   A    
O5    Zn8   S    
C32   H61   S    
O1    Zn3   S    
O6    Zn7   S    
C72   C73   A    
H88   N10   S    
O23   Zn8   S    
C16   O12   A    
C1    C30   S    
O12   Zn1   S    
C87   O3    A    
C61   N8    S    
O21   Zn2   S    
C67   H23   S    
C69   C70   A    
O16   Zn2   S    
C85   O26   A    
O1    Zn2   S    
H84   N9    S    
C6    H38   S    
C79   C80   A    
C5    C78   S    
O25   Zn5   S    
C71   C72   A    
H54   N18   S    
C20   C21   A    
C25   H6    S    
H58   N2    S    
C65   C66   A    
O13   Zn1   S    
C86   O2    A    
O23   Zn7   S    
C14   C15   S    
C17   N16   S    
C76   N18   S    
C58   H13   S    
C24   H53   S    
C64   H1    S    
H33   N12   S    
C35   H7    S    
H68   N4    S    
C56   H22   S    
C12   H21   S    
C88   H8    S    
H82   N8    S    
O19   Zn1   S    
C20   C31   S    
C50   N6    S    
