data_mof_unit_18523.cif
_audit_creation_date              2013-03-05T16:44:40-0500
_audit_creation_method            fapswitch 2.2
_symmetry_space_group_name_H-M    P1
_symmetry_Int_Tables_number       1
_space_group_crystal_system       triclinic
_cell_length_a                    27.60467
_cell_length_b                    10.704124
_cell_length_c                    9.870446
_cell_angle_alpha                 88.752582
_cell_angle_beta                  91.030019
_cell_angle_gamma                 90.25045
_cell_volume                      2915.37152981

loop_
_atom_site_label
_atom_site_type_symbol
_atom_site_description
_atom_site_fract_x
_atom_site_fract_y
_atom_site_fract_z
_atom_type_partial_charge
O1    O     O_R   0.500010 0.316790 0.614690 -0.635495
O2    O     O_R   0.500000 0.316760 0.385350 -0.529685
C1    C     C_R   0.502390 0.260180 0.501043 0.912405
O3    O     O_R   0.428760 0.500040 0.614660 -0.601486
O4    O     O_R   0.428750 0.500000 0.385310 -0.627344
C2    C     C_R   0.405978 0.502268 0.498901 0.845337
Zn1   Zn    Zn3+2 0.500000 0.500020 0.653130 0.976370
Zn2   Zn    Zn3+2 0.500000 0.499980 0.346870 0.991806
O5    O     O_R   0.500000 0.683240 0.614650 -0.606519
O6    O     O_R   0.499990 0.683210 0.385310 -0.622908
O7    O     O_R   0.571250 0.500000 0.614690 -0.609419
O8    O     O_R   0.571240 0.499960 0.385340 -0.618287
C3    C     C_R   0.499970 0.739601 0.498596 0.891127
C4    C     C_R   0.593858 0.497118 0.501062 0.888213
C5    C     C_R   0.179736 0.402319 0.537834 0.491434
O9    O     O_2   0.207574 0.299181 0.539460 -0.583735
N1    N     N_R   0.201101 0.515221 0.513238 -0.355617
C6    C     C_R   0.176027 0.624297 0.513498 0.536406
C7    C     C_R   0.279837 0.552963 0.618146 -0.148523
C8    C     C_R   0.329912 0.549211 0.614779 -0.226263
C9    C     C_R   0.325692 0.481837 0.381746 -0.237576
C10   C     C_R   0.275303 0.485669 0.385140 -0.105880
C11   C     C_R   0.252518 0.520194 0.504010 0.341083
C12   C     C_R   0.102607 0.507321 0.562287 -0.131460
C13   C     C_R   0.129657 0.394652 0.562550 -0.048529
C14   C     C_R   0.105745 0.280155 0.592524 0.238154
C15   C     C_R   0.126149 0.623491 0.540328 -0.122453
C16   C     C_R   0.353217 0.510984 0.497811 -0.016769
H1    H     H_    0.342944 0.454219 0.289821 0.136456
H2    H     H_    0.253995 0.460102 0.296761 0.128727
C17   C     C_R   0.646297 0.486631 0.504777 -0.081212
C18   C     C_R   0.976602 0.382019 0.585507 0.060718
C19   C     C_R   0.973808 0.612254 0.596553 0.064105
C20   C     C_R   0.949865 0.494487 0.589681 0.072241
C21   C     C_R   0.951246 0.268167 0.566944 -0.226105
C22   C     C_R   0.901177 0.265097 0.553889 -0.140515
C23   C     C_R   0.874464 0.374956 0.560438 -0.025407
C24   C     C_R   0.898552 0.489343 0.581427 -0.057453
C25   C     C_R   0.871202 0.599048 0.590987 -0.005302
C26   C     C_R   0.820690 0.591763 0.585688 0.536660
N2    N     N_R   0.798320 0.482168 0.552634 -0.333992
C27   C     C_R   0.824059 0.374101 0.541325 0.523032
C28   C     C_R   0.718345 0.406815 0.617205 -0.180625
C29   C     C_R   0.668372 0.408371 0.602710 -0.259815
C30   C     C_R   0.674484 0.556361 0.414008 -0.333494
C31   C     C_R   0.725095 0.555610 0.427842 0.538651
C32   C     C_R   0.746913 0.480627 0.531220 0.232468
O10   O     O_2   0.801021 0.266670 0.510330 -0.567476
C33   C     C_R   0.027759 0.387047 0.590673 0.031397
C34   C     C_R   0.051770 0.503945 0.581896 0.005255
C35   C     C_R   0.025479 0.617045 0.594013 -0.095385
C36   C     C_R   0.055786 0.278001 0.605147 -0.245325
H3    H     H_    0.646798 0.350639 0.670160 0.151913
H4    H     H_    0.734973 0.349527 0.696827 0.171643
H5    H     H_    0.883540 0.176046 0.536750 0.185549
H6    H     H_    0.969207 0.180065 0.554467 0.149457
H7    H     H_    0.039808 0.188397 0.629966 0.160596
O11   O     O_2   0.200064 0.732700 0.491413 -0.540376
C37   C     C_R   0.100030 0.735061 0.555240 0.130289
H8    H     H_    0.350347 0.576163 0.703835 0.155814
H9    H     H_    0.262097 0.579553 0.710099 0.127021
C38   C     C_R   0.944665 0.721058 0.593687 -0.192715
C39   C     C_R   0.894614 0.714106 0.598399 -0.193762
O12   O     O_2   0.794100 0.693064 0.614050 -0.609880
C40   C     C_R   0.052517 0.730020 0.602746 0.406079
H10   H     H_    0.958563 0.814143 0.581105 0.215578
H11   H     H_    0.657241 0.613448 0.335283 0.147195
H12   H     H_    0.874183 0.800347 0.598747 0.188030
C41   C     C_R   0.477639 0.061574 0.597753 -0.040461
C42   C     C_R   0.503790 0.127513 0.500234 -0.168920
C43   C     C_R   0.524821 0.066170 0.390294 0.498677
C44   C     C_R   0.521997 0.935806 0.389590 -0.343120
H13   H     H_    0.540927 0.883536 0.314519 0.166547
C45   C     C_R   0.498508 0.871270 0.494038 -0.181229
C46   C     C_R   0.474741 0.934209 0.594388 -0.017748
C47   C     C_3   0.480867 0.919154 0.746061 0.370193
C48   C     C_3   0.483937 0.060123 0.748663 -0.501121
H14   H     H_    0.515534 0.873672 0.777737 0.137260
H15   H     H_    0.452115 0.100160 0.797808 0.208920
H16   H     H_    0.519763 0.096418 0.783275 0.168346
C49   C     C_R   0.458858 0.471257 0.069417 0.089763
N3    N     N_R   0.499670 0.499140 0.142800 -0.099328
C50   C     C_R   0.537221 0.551033 0.074056 -0.212977
H17   H     H_    0.565643 0.596599 0.130983 0.152479
C51   C     C_R   0.538180 0.549052 0.929774 0.515192
N4    N     N_R   0.499670 0.499180 0.857150 -0.145668
C52   C     C_R   0.458717 0.472654 0.927563 0.003161
C53   C     C_3   0.428562 0.357316 0.922364 -0.077210
C54   C     C_3   0.427670 0.357045 0.077596 0.264369
H18   H     H_    0.448764 0.280696 0.877180 0.171467
H19   H     H_    0.392041 0.378576 0.121846 0.060396
N5    N     N_2   0.121213 0.853540 0.524225 -0.242996
H20   H     H_    0.113718 0.921843 0.592403 0.254236
C55   C     C_3   0.112499 0.895344 0.385554 -0.678355
H21   H     H_    0.133316 0.982364 0.364912 0.226797
H22   H     H_    0.073308 0.914532 0.368023 0.223473
H23   H     H_    0.124503 0.823510 0.313871 0.245970
O13   O     O_3   0.753682 0.620285 0.335675 -0.659295
C56   C     C_3   0.747502 0.751264 0.346158 0.133345
H24   H     H_    0.783591 0.792515 0.369932 0.198499
H25   H     H_    0.722733 0.779785 0.428261 0.146902
C57   C     C_3   0.729484 0.807270 0.210783 -0.410956
H26   H     H_    0.753393 0.777054 0.128328 0.252769
H27   H     H_    0.692140 0.773629 0.189344 0.215369
C58   C     C_3   0.729226 0.949795 0.213212 -0.906416
H28   H     H_    0.704680 0.982514 0.292924 0.268734
H29   H     H_    0.716338 0.987696 0.113459 0.267882
H30   H     H_    0.766357 0.986166 0.233281 0.278969
O14   O     O_3   0.033424 0.837028 0.656670 -0.681016
C59   C     C_3   0.049461 0.848767 0.793059 0.046044
H31   H     H_    0.050468 0.950078 0.815245 0.172410
H32   H     H_    0.087024 0.813432 0.812226 0.126856
C60   C     C_3   0.014132 0.784048 0.890193 -0.330239
H33   H     H_    0.977063 0.821505 0.871514 0.236140
H34   H     H_    0.013466 0.682016 0.871973 0.222292
C61   C     C_3   0.028895 0.804852 0.037818 -0.955252
H35   H     H_    0.065592 0.766234 0.059341 0.262590
H36   H     H_    0.002731 0.756771 0.105588 0.272558
H37   H     H_    0.028931 0.906184 0.059856 0.263564
O15   O     O_3   0.553728 0.135040 0.300600 -0.624978
C62   C     C_3   0.553849 0.088746 0.167036 0.154549
H38   H     H_    0.548681 0.169586 0.095756 0.180188
H39   H     H_    0.523710 0.022922 0.143752 0.119930
C63   C     C_3   0.602939 0.029560 0.138563 -0.399296
H40   H     H_    0.631579 0.102768 0.142496 0.239274
H41   H     H_    0.611825 0.957093 0.217192 0.225272
C64   C     C_3   0.602929 0.969654 0.999620 -0.957769
H42   H     H_    0.575148 0.894387 0.994508 0.276875
H43   H     H_    0.638957 0.928034 0.981791 0.274211
H44   H     H_    0.595335 0.040970 0.918728 0.257741
O16   O     O_3   0.441276 0.875300 0.825491 -0.643216
C65   C     C_3   0.401655 0.824511 0.751842 0.157062
H45   H     H_    0.384147 0.754251 0.819588 0.145153
H46   H     H_    0.412479 0.772895 0.660837 0.133291
C66   C     C_3   0.364383 0.926503 0.716501 -0.428928
H47   H     H_    0.354035 0.974090 0.810631 0.233105
H48   H     H_    0.380279 0.997334 0.646572 0.231178
C67   C     C_3   0.318971 0.872541 0.649403 -0.881339
H49   H     H_    0.328402 0.824234 0.555001 0.275567
H50   H     H_    0.293285 0.949217 0.623088 0.283743
H51   H     H_    0.300879 0.805797 0.719937 0.261958
O17   O     O_3   0.574761 0.612410 0.863263 -0.632164
C68   C     C_3   0.618532 0.543740 0.871785 0.119947
H52   H     H_    0.638702 0.569746 0.779411 0.204734
H53   H     H_    0.612686 0.440488 0.871200 0.109359
C69   C     C_3   0.650813 0.579847 0.992965 -0.453561
H54   H     H_    0.648919 0.682285 0.007257 0.238923
H55   H     H_    0.638563 0.530379 0.086133 0.221099
C70   C     C_3   0.703428 0.542498 0.971416 -0.887541
H56   H     H_    0.705730 0.441088 0.950799 0.259787
H57   H     H_    0.725351 0.561692 0.063992 0.293831
H58   H     H_    0.718819 0.596683 0.884953 0.276806
N6    N     N_2   0.381569 0.382365 0.859406 -0.285047
H59   H     H_    0.361184 0.449452 0.905461 0.207898
C71   C     C_3   0.353948 0.274050 0.818875 -0.779525
H60   H     H_    0.321513 0.304534 0.759045 0.265392
H61   H     H_    0.341643 0.220344 0.909357 0.219115
H62   H     H_    0.375985 0.213855 0.753920 0.240850
O18   O     O_3   0.452618 0.254950 0.138806 -0.614655
C72   C     C_3   0.421106 0.151007 0.154272 0.092148
H63   H     H_    0.443883 0.066348 0.165337 0.168787
H64   H     H_    0.397808 0.136253 0.062895 0.125413
C73   C     C_3   0.390149 0.160860 0.281478 -0.358099
H65   H     H_    0.412567 0.195222 0.367360 0.235458
H66   H     H_    0.360185 0.227987 0.262073 0.201923
C74   C     C_3   0.368156 0.034769 0.321963 -0.933040
H67   H     H_    0.346301 0.996815 0.236571 0.268838
H68   H     H_    0.344165 0.046665 0.409748 0.278311
H69   H     H_    0.397163 0.967331 0.351485 0.266584
N7    N     N_2   0.130273 0.164449 0.611821 -0.306278
H70   H     H_    0.152094 0.136992 0.534558 0.276794
C75   C     C_3   0.148859 0.140261 0.747775 -0.743879
H71   H     H_    0.165421 0.045931 0.754012 0.233052
H72   H     H_    0.118924 0.143112 0.821400 0.224085
H73   H     H_    0.176834 0.210608 0.775314 0.266804

loop_
_geom_bond_atom_site_label_1
_geom_bond_atom_site_label_2
_geom_bond_distance
_ccdc_geom_bond_type
C66   C67   1.524539 S    
C52   C53   1.487275 S    
C68   C69   1.533903 S    
N2    C27   1.367857 A    
C41   C48   1.496305 S    
C7    C8    1.384099 A    
C12   C15   1.414869 A    
C4    C17   1.452140 S    
C28   C29   1.384476 A    
C49   N3    1.363855 A    
C67   H49   1.110976 S    
C66   H47   1.111627 S    
C51   N4    1.383189 A    
O15   C62   1.418515 S    
Zn1   O7    2.009783 S    
C58   H29   1.109912 S    
C23   C24   1.408265 A    
C43   O15   1.398518 S    
C50   H17   1.077929 S    
Zn2   N3    2.014334 S    
C22   C23   1.394051 A    
C73   H66   1.109343 S    
C47   H14   1.112329 S    
C60   H33   1.111512 S    
C41   C42   1.391685 A    
C70   H57   1.109332 S    
O4    C2    1.295937 A    
O7    C4    1.294290 A    
C5    C13   1.409812 A    
Zn1   N4    2.013777 S    
C71   H61   1.109197 S    
N7    H70   1.028897 S    
C68   H52   1.106648 S    
C61   H35   1.111005 S    
C57   C58   1.526357 S    
C68   H53   1.116365 S    
C35   C40   1.421706 A    
C23   C27   1.400816 A    
O5    C3    1.282971 A    
C59   H31   1.111136 S    
C62   C63   1.531531 S    
O1    Zn1   2.005776 S    
C39   H12   1.083988 S    
C29   H3    1.083008 S    
C6    O11   1.349697 S    
C2    C16   1.459683 S    
O18   C72   1.416621 S    
C61   H36   1.110448 S    
C19   C38   1.417865 A    
C30   H11   1.082740 S    
C42   C43   1.415179 A    
C8    H8    1.079768 S    
C6    C15   1.406727 A    
C75   H73   1.110634 S    
C60   C61   1.526716 S    
C49   C54   1.493767 S    
C31   O13   1.386803 S    
C66   H48   1.108599 S    
C9    C10   1.392782 A    
C71   H62   1.109832 S    
C74   H68   1.109837 S    
C57   H26   1.111399 S    
O3    Zn1   1.996167 S    
C75   H72   1.111171 S    
C54   O18   1.412958 S    
C69   H55   1.108528 S    
C48   H15   1.103748 S    
C12   C34   1.420259 A    
C58   H30   1.110836 S    
C17   C29   1.398392 A    
C38   H10   1.071635 S    
C72   C73   1.537217 S    
C73   C74   1.525786 S    
C12   C13   1.421169 A    
C44   C45   1.396278 A    
C45   C46   1.386266 A    
C70   H58   1.111112 S    
C25   C26   1.396318 A    
N4    C52   1.363282 A    
C65   H45   1.110358 S    
C27   O10   1.349952 S    
C8    C16   1.401355 A    
C55   H23   1.111761 S    
C34   C35   1.422592 A    
C13   C14   1.417561 A    
C30   C31   1.401359 A    
C9    H1    1.079768 S    
C67   H51   1.110073 S    
O1    C1    1.289340 A    
C21   C22   1.386131 A    
C18   C20   1.416610 A    
C55   H22   1.111833 S    
C46   C47   1.508787 S    
C64   H43   1.110025 S    
C38   C39   1.384900 A    
C14   C36   1.387001 A    
C69   C70   1.527917 S    
C28   H4    1.083002 S    
C56   H24   1.111197 S    
Zn2   O8    1.996167 S    
C33   C36   1.406435 A    
C1    C42   1.420979 S    
N5    C55   1.447062 S    
N1    C6    1.359991 A    
N2    C32   1.431036 S    
N1    C11   1.424593 S    
C47   C48   1.511705 S    
C57   H27   1.108789 S    
C59   C60   1.532634 S    
C40   O14   1.383839 S    
C62   H38   1.111345 S    
C49   C52   1.399847 A    
C67   H50   1.110430 S    
C63   C64   1.526529 S    
O3    C2    1.294098 A    
C26   N2    1.366410 A    
C56   H25   1.118025 S    
C9    C16   1.403326 A    
O8    C4    1.291687 A    
O13   C56   1.419335 S    
C74   H67   1.110805 S    
N6    C71   1.444692 S    
O16   C65   1.415514 S    
C75   H71   1.110245 S    
C7    C11   1.394719 A    
C63   H41   1.110324 S    
C69   H54   1.110161 S    
C48   H16   1.111743 S    
Zn1   O5    1.989514 S    
C31   C32   1.412316 A    
C10   H2    1.082763 S    
C50   C51   1.425473 A    
C21   H6    1.077810 S    
C20   C24   1.418265 A    
Zn2   O6    2.005775 S    
O2    Zn2   1.989515 S    
C18   C21   1.416457 A    
C53   H18   1.100638 S    
C44   H13   1.081525 S    
O6    C3    1.282229 A    
C51   O17   1.381708 S    
O4    Zn2   2.009786 S    
C5    N1    1.361406 A    
C64   H42   1.111170 S    
C19   C35   1.427707 A    
C25   C39   1.391077 A    
C58   H28   1.110877 S    
C26   O12   1.349245 S    
C61   H37   1.110889 S    
C53   N6    1.451794 S    
O2    C1    1.281686 A    
C64   H44   1.110418 S    
C43   C44   1.397433 A    
C22   H5    1.083644 S    
C15   C37   1.409522 A    
O14   C59   1.417583 S    
C37   C40   1.401211 A    
C24   C25   1.404626 A    
N7    C75   1.446490 S    
C7    H9    1.083065 S    
C65   C66   1.533784 S    
C54   H19   1.110400 S    
N5    H20   1.028574 S    
C47   O16   1.428183 S    
C19   C20   1.423153 A    
C41   C46   1.366418 A    
C37   N5    1.423755 S    
C55   H21   1.109350 S    
C72   H63   1.107531 S    
C59   H32   1.116820 S    
C18   C33   1.413009 A    
C62   H39   1.112000 S    
C73   H65   1.108867 S    
C36   H7    1.079092 S    
C56   C57   1.528428 S    
C53   C54   1.532787 S    
C14   N7    1.421645 S    
C74   H69   1.111162 S    
C65   H46   1.110908 S    
C33   C34   1.415153 A    
C17   C30   1.398597 A    
C71   H60   1.109977 S    
O17   C68   1.417303 S    
C10   C11   1.398657 A    
C63   H40   1.111509 S    
N3    C50   1.359150 A    
N6    H59   1.032428 S    
C70   H56   1.111056 S    
C28   C32   1.398522 A    
C5    O9    1.347531 S    
C72   H64   1.111984 S    
C3    C45   1.409869 S    
C60   H34   1.110747 S    
