data_mof_unit_18774.cif
_audit_creation_date              2012-12-10T17:57:53-0500
_audit_creation_method            fapswitch 2.2
_symmetry_space_group_name_H-M    P1
_symmetry_Int_Tables_number       1
_space_group_crystal_system       triclinic
_cell_length_a                    10.808386
_cell_length_b                    9.514984
_cell_length_c                    15.022037
_cell_angle_alpha                 89.972744
_cell_angle_beta                  89.450356
_cell_angle_gamma                 90.232418
_cell_volume                      1544.80661847

loop_
_atom_site_label
_atom_site_type_symbol
_atom_type_description
_atom_site_fract_x
_atom_site_fract_y
_atom_site_fract_z
_atom_type_partial_charge
C1    C     C_R   0.262045 0.499855 0.501169 0.803373
C2    C     C_R   0.737859 0.500167 0.502088 0.795450
C3    C     C_R   0.292677 0.597402 0.052411 -0.338429
C4    C     C_R   0.690942 0.372541 0.948036 -0.315439
C5    C     C_R   0.063329 0.372173 0.504510 -0.189838
C6    C     C_R   0.936412 0.627831 0.508185 -0.199159
C7    C     C_R   0.935465 0.372319 0.505735 -0.194842
C8    C     C_R   0.064311 0.627667 0.507133 -0.179199
C9    C     C_R   0.871581 0.500196 0.506013 -0.015813
C10   C     C_R   0.128174 0.499844 0.504190 -0.001275
C11   C     C_R   0.422888 0.074106 0.445449 -0.011258
C12   C     C_R   0.576765 0.925864 0.554808 -0.034181
C13   C     C_R   0.576790 0.074720 0.554794 -0.018942
C14   C     C_R   0.422912 0.925254 0.445431 -0.034232
C15   C     C_R   0.502783 0.500065 0.328902 0.848096
C16   C     C_R   0.496742 0.500084 0.671124 0.869536
C17   C     C_R   0.587397 0.430943 0.812200 -0.300096
C18   C     C_R   0.400325 0.546679 0.188347 -0.295097
C19   C     C_R   0.493411 0.500026 0.767648 -0.172814
C20   C     C_R   0.505202 0.500519 0.232424 -0.182015
C21   C     C_R   0.398133 0.568893 0.814609 0.400203
C22   C     C_R   0.610992 0.456173 0.184784 0.416071
C23   C     C_R   0.392507 0.558195 0.908709 -0.068266
C24   C     C_R   0.605492 0.444003 0.091130 -0.067129
C25   C     C_R   0.494525 0.496851 0.953372 -0.040943
C26   C     C_R   0.499345 0.496415 0.046769 -0.045587
C27   C     C_R   0.591448 0.433945 0.904502 0.088278
C28   C     C_R   0.397686 0.548185 0.095820 0.102533
C29   C     C_R   0.288554 0.605785 0.958603 0.447402
C30   C     C_R   0.702614 0.382005 0.040728 0.451204
Cu1   Cu    Cu3+1 0.500000 0.640660 0.500000 0.933032
Cu2   Cu    Cu3+1 0.500000 0.359340 0.500000 0.959893
H1    H     H_    0.660526 0.379848 0.774368 0.151578
H2    H     H_    0.320815 0.582466 0.226660 0.146577
N1    N     N_R   0.500000 0.852070 0.500000 -0.163369
N2    N     N_R   0.500000 0.147930 0.500000 -0.157687
O1    O     O_R   0.319640 0.618740 0.499990 -0.598242
O2    O     O_R   0.680360 0.381260 0.500010 -0.583504
O3    O     O_R   0.680360 0.618740 0.500010 -0.597416
O4    O     O_R   0.319640 0.381260 0.499990 -0.594757
O5    O     O_R   0.499970 0.618800 0.370260 -0.596200
O6    O     O_R   0.500030 0.381200 0.629740 -0.587331
O7    O     O_R   0.500030 0.618800 0.629740 -0.581765
O8    O     O_R   0.499970 0.381200 0.370260 -0.557759
O9    O     O_3   0.309265 0.640862 0.767099 -0.537418
C31   C     C_3   0.340684 0.785437 0.765683 0.130539
H3    H     H_    0.441016 0.803690 0.751546 0.120047
H4    H     H_    0.317197 0.834981 0.830648 0.150872
C32   C     C_3   0.267630 0.858323 0.693030 -0.771629
H5    H     H_    0.166974 0.840183 0.703078 0.244962
H6    H     H_    0.286673 0.973073 0.694312 0.192175
H7    H     H_    0.295152 0.816531 0.626887 0.266561
O10   O     O_3   0.720350 0.429832 0.229251 -0.538619
C33   C     C_3   0.779372 0.560122 0.246712 0.073694
H8    H     H_    0.728888 0.617673 0.300060 0.148950
H9    H     H_    0.784571 0.628075 0.186199 0.117967
C34   C     C_3   0.910816 0.535614 0.278693 -0.781652
H10   H     H_    0.974199 0.517204 0.221676 0.221136
H11   H     H_    0.944595 0.630127 0.314460 0.202650
H12   H     H_    0.913789 0.443548 0.323846 0.271094
O11   O     O_3   0.181615 0.644190 0.913086 -0.539531
C35   C     C_3   0.106544 0.740799 0.960227 0.057731
H13   H     H_    0.162790 0.825151 0.991968 0.130871
H14   H     H_    0.049943 0.684459 0.011189 0.130452
C36   C     C_3   0.017730 0.810354 0.896021 -0.777273
H15   H     H_    0.962841 0.729249 0.860563 0.254086
H16   H     H_    0.953536 0.880129 0.933363 0.196522
H17   H     H_    0.070080 0.874608 0.846774 0.241423
O12   O     O_3   0.797878 0.311554 0.082910 -0.529746
C37   C     C_3   0.914119 0.366198 0.055451 0.114085
H18   H     H_    0.921737 0.479290 0.073272 0.124987
H19   H     H_    0.930323 0.355131 0.982693 0.131648
C38   C     C_3   0.016329 0.284806 0.101417 -0.777198
H20   H     H_    0.017883 0.174829 0.076674 0.236131
H21   H     H_    0.107360 0.334817 0.086908 0.202956
H22   H     H_    0.000588 0.282901 0.174513 0.262660
H23   H     H_    0.213918 0.627987 0.092821 0.126311
H24   H     H_    0.759414 0.315783 0.909333 0.145497
H25   H     H_    0.111077 0.272309 0.502988 0.148640
H26   H     H_    0.888632 0.727680 0.509154 0.149071
H27   H     H_    0.886961 0.272493 0.504740 0.154120
H28   H     H_    0.112842 0.727492 0.507776 0.144777
H29   H     H_    0.361124 0.129974 0.401749 0.118289
H30   H     H_    0.638227 0.869967 0.598714 0.116539
H31   H     H_    0.638334 0.131079 0.598664 0.114792
H32   H     H_    0.361155 0.868872 0.401731 0.120191

loop_
_geom_bond_atom_site_label_1
_geom_bond_atom_site_label_2
_ccdc_geom_bond_type
C16   O6    A    
C38   H20   S    
C4    C27   A    
C6    C9    A    
O9    C31   S    
C31   C32   S    
Cu1   O7    S    
C8    H28   S    
C23   C29   A    
C11   N2    A    
C19   C21   A    
C24   C26   A    
C15   O8    A    
C11   C14   A    
C34   H11   S    
C36   H16   S    
C12   H30   S    
C3    C29   A    
C35   H14   S    
C1    O4    A    
C33   H8    S    
C2    O3    A    
C32   H6    S    
C37   H18   S    
Cu2   O2    S    
C5    H25   S    
C1    O1    A    
C36   H17   S    
Cu2   O4    S    
C29   O11   S    
C38   H21   S    
O12   C37   S    
C17   H1    S    
C22   O10   S    
C21   O9    S    
C15   C20   S    
C33   H9    S    
C17   C27   A    
C18   C28   A    
C14   H32   S    
C13   N2    A    
C14   N1    A    
C5    C7    A    
C34   H12   S    
C6    C8    A    
C11   H29   S    
C25   C26   A    
O10   C33   S    
Cu1   O1    S    
C4    H24   S    
C35   H13   S    
C2    O2    A    
C6    H26   S    
Cu1   Cu2   S    
C32   H7    S    
C37   C38   S    
Cu2   O8    S    
C12   N1    A    
C18   H2    S    
C16   O7    A    
C15   O5    A    
C7    H27   S    
C20   C22   A    
C32   H5    S    
C21   C23   A    
C38   H22   S    
C22   C24   A    
C3    H23   S    
Cu2   N2    S    
C30   O12   S    
C7    C9    A    
C31   H3    S    
C3    C28   A    
Cu1   O5    S    
C35   C36   S    
C1    C10   S    
C25   C27   A    
C26   C28   A    
C5    C10   A    
C34   H10   S    
C16   C19   S    
Cu1   N1    S    
C17   C19   A    
Cu1   O3    S    
C18   C20   A    
C23   C25   A    
O11   C35   S    
C24   C30   A    
C31   H4    S    
C12   C13   A    
C8    C10   A    
C36   H15   S    
C13   H31   S    
Cu2   O6    S    
C37   H19   S    
C2    C9    S    
C4    C30   A    
C33   C34   S    
