data_mof_unit_7795.cif
_audit_creation_date              2013-03-05T16:33:41-0500
_audit_creation_method            fapswitch 2.2
_symmetry_space_group_name_H-M    P1
_symmetry_Int_Tables_number       1
_space_group_crystal_system       triclinic
_cell_length_a                    14.891584
_cell_length_b                    14.19921
_cell_length_c                    27.652685
_cell_angle_alpha                 88.776921
_cell_angle_beta                  91.21815
_cell_angle_gamma                 89.948774
_cell_volume                      5844.46644416

loop_
_atom_site_label
_atom_site_type_symbol
_atom_site_description
_atom_site_fract_x
_atom_site_fract_y
_atom_site_fract_z
_atom_type_partial_charge
O1    O     O_R   0.369060 0.579480 0.500000 -0.536362
O2    O     O_R   0.630940 0.420520 0.500000 -0.646569
O3    O     O_R   0.630940 0.579480 0.500000 -0.564078
O4    O     O_R   0.369060 0.420520 0.500000 -0.647643
C1    C     C_R   0.328396 0.500115 0.499828 0.918337
C2    C     C_R   0.672588 0.500078 0.499482 0.894582
O5    O     O_R   0.500010 0.579470 0.428760 -0.628678
O6    O     O_R   0.499990 0.420530 0.571240 -0.577838
O7    O     O_R   0.499990 0.579470 0.571240 -0.581736
O8    O     O_R   0.500010 0.420530 0.428760 -0.528806
C3    C     C_R   0.501490 0.500869 0.405983 0.860724
C4    C     C_R   0.499121 0.499149 0.593879 0.900958
Zn1   Zn    Zn3+2 0.500000 0.606140 0.500000 1.015597
Zn2   Zn    Zn3+2 0.500000 0.393860 0.500000 0.983874
C5    C     C_R   0.426452 0.509326 0.177540 0.546905
C6    C     C_R   0.579518 0.502820 0.822994 0.532057
O9    O     O_2   0.352191 0.491271 0.203272 -0.503119
O10   O     O_2   0.654201 0.522161 0.797841 -0.513852
N1    N     N_R   0.507420 0.517181 0.201076 -0.353458
N2    N     N_R   0.500276 0.488044 0.798709 -0.356452
C7    C     C_R   0.584653 0.536132 0.177158 0.544259
C8    C     C_R   0.422496 0.469418 0.822279 0.564589
C9    C     C_R   0.539737 0.430961 0.277061 -0.200957
C10   C     C_R   0.449507 0.561264 0.721982 -0.244964
C11   C     C_R   0.539696 0.426301 0.327561 0.454304
C12   C     C_R   0.448886 0.565747 0.671147 0.444453
C13   C     C_R   0.478937 0.585729 0.328016 -0.295059
C14   C     C_R   0.546064 0.426990 0.671881 -0.291258
C15   C     C_R   0.480511 0.590113 0.278008 -0.129549
C16   C     C_R   0.546885 0.424038 0.721960 -0.105471
C17   C     C_R   0.509908 0.512640 0.252553 0.249737
C18   C     C_R   0.499024 0.491249 0.747063 0.257699
C19   C     C_R   0.501100 0.531986 0.101264 -0.201107
C20   C     C_R   0.501517 0.490160 0.898864 -0.203107
C21   C     C_R   0.421107 0.517802 0.126934 -0.088715
C22   C     C_R   0.582725 0.500290 0.873719 -0.084573
C23   C     C_R   0.338547 0.515740 0.101282 0.523710
C24   C     C_R   0.664516 0.505194 0.899983 0.523855
C25   C     C_R   0.582332 0.549151 0.126683 -0.210995
C26   C     C_R   0.420946 0.470782 0.873082 -0.183724
C27   C     C_R   0.506332 0.503572 0.353234 -0.150669
C28   C     C_R   0.497602 0.497284 0.646443 -0.124693
H1    H     H_    0.457916 0.653395 0.258830 0.135084
H2    H     H_    0.584661 0.369502 0.741388 0.148116
C29   C     C_R   0.419997 0.487069 0.975004 -0.104143
C30   C     C_R   0.580463 0.542799 0.024804 -0.123128
C31   C     C_R   0.582044 0.521791 0.974901 0.049924
C32   C     C_R   0.418918 0.505860 0.025223 0.058180
C33   C     C_R   0.500997 0.500084 0.949722 0.016329
C34   C     C_R   0.500146 0.527220 0.050228 0.014390
C35   C     C_R   0.344639 0.449784 0.949320 0.303194
C36   C     C_R   0.654919 0.583046 0.050340 0.351087
C37   C     C_R   0.342284 0.450576 0.898708 0.404524
C38   C     C_R   0.657250 0.581870 0.100973 0.451106
O11   O     O_2   0.347350 0.449834 0.796292 -0.518376
O12   O     O_2   0.663120 0.540706 0.202294 -0.534370
C39   C     C_R   0.338362 0.509820 0.051023 -0.309773
C40   C     C_R   0.663233 0.515481 0.949926 -0.312972
C41   C     C_R   0.093140 0.487981 0.456746 0.495709
C42   C     C_R   0.910466 0.417345 0.507913 0.483995
C43   C     C_R   0.907429 0.588056 0.491306 0.457122
C44   C     C_R   0.097372 0.520567 0.543807 0.474830
C45   C     C_R   0.186343 0.487872 0.456812 -0.375296
C46   C     C_R   0.816952 0.417033 0.507420 -0.361165
C47   C     C_R   0.814224 0.585662 0.489679 -0.304283
C48   C     C_R   0.190779 0.516474 0.543385 -0.317458
C49   C     C_R   0.233538 0.500774 0.500053 -0.101935
C50   C     C_R   0.769326 0.500782 0.498706 -0.141916
C51   C     C_R   0.050092 0.504917 0.500306 0.018453
C52   C     C_R   0.953979 0.503659 0.500377 0.026693
C53   C     C_R   0.472579 0.105739 0.458961 0.293150
C54   C     C_R   0.577300 0.894270 0.514981 0.259989
C55   C     C_R   0.528631 0.102988 0.541477 0.293309
C56   C     C_R   0.422674 0.896397 0.486679 0.261203
C57   C     C_R   0.465815 0.205060 0.461008 0.368040
C58   C     C_R   0.573088 0.794669 0.518057 0.338970
C59   C     C_R   0.533485 0.202564 0.539394 0.359973
C60   C     C_R   0.426460 0.796798 0.482828 0.344594
N3    N     N_R   0.500000 0.252470 0.500000 -0.225524
N4    N     N_R   0.500000 0.747530 0.500000 -0.193313
C61   C     C_R   0.500736 0.053089 0.500321 -0.107704
C62   C     C_R   0.500379 0.946629 0.500562 -0.075082
H3    H     H_    0.455180 0.646383 0.346847 0.177256
H4    H     H_    0.584144 0.375019 0.652955 0.200248
H5    H     H_    0.221960 0.479100 0.423477 0.133974
H6    H     H_    0.781418 0.352388 0.514541 0.144173
H7    H     H_    0.777091 0.649482 0.480761 0.197718
H8    H     H_    0.230390 0.523852 0.576381 0.163360
O13   O     O_3   0.446113 0.059572 0.417513 -0.546717
C63   C     C_3   0.513992 0.068529 0.382910 0.142071
H9    H     H_    0.581126 0.048812 0.398535 0.093872
H10   H     H_    0.516546 0.141846 0.368026 0.214965
C64   C     C_3   0.492932 0.002798 0.341516 -0.845364
H11   H     H_    0.426894 0.021483 0.324481 0.264226
H12   H     H_    0.545677 0.009131 0.313850 0.209115
H13   H     H_    0.490712 0.928773 0.355292 0.240856
O14   O     O_3   0.655359 0.939936 0.528828 -0.547251
C65   C     C_3   0.713192 0.944335 0.489133 0.140707
H14   H     H_    0.681121 0.983345 0.457996 0.111834
H15   H     H_    0.732281 0.872432 0.477684 0.147422
C66   C     C_3   0.798256 0.996542 0.503831 -0.849626
H16   H     H_    0.832082 0.959325 0.534910 0.259423
H17   H     H_    0.844869 0.999851 0.473031 0.203400
H18   H     H_    0.781354 0.069369 0.514408 0.248646
O15   O     O_3   0.556769 0.054562 0.582935 -0.542860
C67   C     C_3   0.485582 0.050842 0.615695 0.141926
H19   H     H_    0.425303 0.017037 0.599192 0.105704
H20   H     H_    0.467649 0.122674 0.627720 0.173284
C68   C     C_3   0.514910 0.992219 0.659908 -0.849273
H21   H     H_    0.574092 0.025204 0.677829 0.262474
H22   H     H_    0.459287 0.987758 0.685966 0.205874
H23   H     H_    0.533083 0.919936 0.648961 0.245317
O16   O     O_3   0.344539 0.945078 0.474547 -0.560783
C69   C     C_3   0.283170 0.934561 0.512483 0.118874
H24   H     H_    0.313699 0.956309 0.547576 0.116322
H25   H     H_    0.259644 0.860413 0.515913 0.176710
C70   C     C_3   0.201873 0.997014 0.501588 -0.852750
H26   H     H_    0.169068 0.976557 0.466930 0.263049
H27   H     H_    0.152713 0.989103 0.531037 0.212012
H28   H     H_    0.222922 0.071947 0.498818 0.253498
O17   O     O_3   0.427469 0.254213 0.422244 -0.543883
C71   C     C_3   0.334150 0.265413 0.429295 0.201422
H29   H     H_    0.315853 0.338230 0.417531 0.151375
H30   H     H_    0.313103 0.256800 0.467689 0.113234
C72   C     C_3   0.280251 0.198188 0.397774 -0.859488
H31   H     H_    0.286810 0.124938 0.412116 0.301060
H32   H     H_    0.208088 0.217964 0.397892 0.186408
H33   H     H_    0.304064 0.201879 0.359992 0.277580
O18   O     O_3   0.645644 0.744243 0.536613 -0.578078
C73   C     C_3   0.646491 0.748730 0.587597 0.148489
H34   H     H_    0.579321 0.732675 0.602753 0.141549
H35   H     H_    0.668073 0.819705 0.599461 0.179581
C74   C     C_3   0.713091 0.676593 0.608465 -0.823628
H36   H     H_    0.781094 0.690802 0.594313 0.238600
H37   H     H_    0.715698 0.680605 0.648528 0.214574
H38   H     H_    0.692141 0.604475 0.598353 0.255197
O19   O     O_3   0.567182 0.249501 0.578988 -0.581471
C75   C     C_3   0.662054 0.254395 0.577201 0.188499
H39   H     H_    0.681333 0.329666 0.579303 0.156251
H40   H     H_    0.691623 0.226109 0.543626 0.088285
C76   C     C_3   0.704673 0.203396 0.620979 -0.842028
H41   H     H_    0.697282 0.126120 0.617776 0.298363
H42   H     H_    0.777508 0.219949 0.623094 0.213140
H43   H     H_    0.672897 0.226174 0.654763 0.248553
O20   O     O_3   0.353336 0.747897 0.464894 -0.566747
C77   C     C_3   0.342818 0.766522 0.414706 0.155739
H44   H     H_    0.408343 0.766633 0.395946 0.104800
H45   H     H_    0.309258 0.835600 0.407982 0.192444
C78   C     C_3   0.283429 0.690826 0.392726 -0.811077
H46   H     H_    0.216831 0.690335 0.410086 0.274077
H47   H     H_    0.273811 0.704980 0.353308 0.206361
H48   H     H_    0.315378 0.620645 0.398210 0.250227
O21   O     O_3   0.257681 0.513456 0.125213 -0.568055
C79   C     C_3   0.212463 0.600902 0.118969 0.120633
H49   H     H_    0.139446 0.587797 0.122863 0.179052
H50   H     H_    0.220509 0.634226 0.082452 0.099985
C80   C     C_3   0.242009 0.669721 0.157841 -0.825341
H51   H     H_    0.314289 0.687027 0.154272 0.229076
H52   H     H_    0.202402 0.735809 0.153756 0.205373
H53   H     H_    0.230652 0.638515 0.194357 0.290006
O22   O     O_3   0.746174 0.505653 0.876794 -0.572139
C81   C     C_3   0.791627 0.418969 0.885418 0.113971
H54   H     H_    0.781870 0.388219 0.922364 0.109411
H55   H     H_    0.864787 0.432270 0.882355 0.168963
C82   C     C_3   0.764493 0.347175 0.847530 -0.822552
H56   H     H_    0.777285 0.375945 0.810665 0.286460
H57   H     H_    0.804471 0.281716 0.853364 0.205544
H58   H     H_    0.692177 0.329500 0.850456 0.233780
O23   O     O_3   0.393524 0.627474 0.644440 -0.610519
C83   C     C_3   0.396903 0.719917 0.662267 0.110777
H59   H     H_    0.466339 0.740503 0.673660 0.120017
H60   H     H_    0.350896 0.726288 0.693156 0.143965
C84   C     C_3   0.364923 0.788303 0.622398 -0.852696
H61   H     H_    0.296982 0.767980 0.608949 0.253326
H62   H     H_    0.361593 0.860672 0.636618 0.200422
H63   H     H_    0.412152 0.787739 0.591894 0.240713
O24   O     O_3   0.569245 0.344954 0.351272 -0.584795
C85   C     C_3   0.661388 0.355178 0.363240 0.143823
H64   H     H_    0.674683 0.421119 0.383394 0.123931
H65   H     H_    0.702007 0.355728 0.329884 0.141343
C86   C     C_3   0.691717 0.272567 0.395565 -0.837127
H66   H     H_    0.682445 0.205443 0.376216 0.232303
H67   H     H_    0.763856 0.280544 0.405604 0.191748
H68   H     H_    0.652050 0.270236 0.429125 0.261910
H69   H     H_    0.410708 0.610441 0.742390 0.130686
H70   H     H_    0.562804 0.371307 0.256930 0.153939
O25   O     O_3   0.265164 0.420302 0.874938 -0.544530
C87   C     C_3   0.202228 0.494886 0.872992 0.172874
H71   H     H_    0.230437 0.558120 0.854182 0.125207
H72   H     H_    0.181542 0.514359 0.909931 0.147650
C88   C     C_3   0.118878 0.463869 0.844888 -0.772162
H73   H     H_    0.088388 0.401604 0.863138 0.248997
H74   H     H_    0.068887 0.521991 0.843061 0.194917
H75   H     H_    0.136921 0.445204 0.807516 0.276888
O26   O     O_3   0.733838 0.614478 0.124460 -0.532815
C89   C     C_3   0.720125 0.708404 0.139051 0.174827
H76   H     H_    0.696518 0.708564 0.176858 0.172111
H77   H     H_    0.669968 0.748251 0.116128 0.066144
C90   C     C_3   0.808856 0.761143 0.137194 -0.799350
H78   H     H_    0.833646 0.763100 0.099595 0.259560
H79   H     H_    0.799433 0.834473 0.149332 0.194159
H80   H     H_    0.859595 0.725527 0.161279 0.264797
O27   O     O_3   0.273474 0.407557 0.972621 -0.617634
C91   C     C_3   0.297314 0.313760 0.985068 0.137877
H81   H     H_    0.358653 0.310953 0.008866 0.138737
H82   H     H_    0.309079 0.272488 0.951963 0.156977
C92   C     C_3   0.220822 0.268063 0.012501 -0.801578
H83   H     H_    0.158684 0.268542 0.989554 0.259231
H84   H     H_    0.238534 0.194058 0.022415 0.200447
H85   H     H_    0.208359 0.307260 0.046053 0.267678
O28   O     O_3   0.726599 0.625022 0.027172 -0.589985
C93   C     C_3   0.698834 0.711979 0.005868 0.093387
H86   H     H_    0.678700 0.762170 0.033941 0.126163
H87   H     H_    0.641633 0.703361 0.979804 0.145488
C94   C     C_3   0.776731 0.754731 0.978374 -0.795485
H88   H     H_    0.797189 0.706772 0.949348 0.267417
H89   H     H_    0.756125 0.823470 0.961721 0.201751
H90   H     H_    0.834818 0.766081 0.003418 0.251583
H91   H     H_    0.273541 0.511205 0.033022 0.211180
H92   H     H_    0.727503 0.515900 0.968541 0.216677
O29   O     O_3   0.042451 0.479178 0.414369 -0.595218
C95   C     C_3   0.062661 0.393584 0.391802 0.089118
H93   H     H_    0.070168 0.333987 0.418470 0.133650
H94   H     H_    0.125332 0.400877 0.370911 0.154798
C96   C     C_3   0.986335 0.369599 0.356796 -0.798659
H95   H     H_    0.979007 0.425854 0.328459 0.271504
H96   H     H_    0.000721 0.301792 0.339220 0.206997
H97   H     H_    0.922351 0.363021 0.376509 0.238987
O30   O     O_3   0.961721 0.337788 0.520054 -0.600179
C97   C     C_3   0.930988 0.257235 0.495520 0.094575
H98   H     H_    0.914135 0.273667 0.456797 0.131164
H99   H     H_    0.871466 0.226814 0.513677 0.138979
C98   C     C_3   0.004598 0.182706 0.497446 -0.825010
H100  H     H_    0.020185 0.161592 0.535613 0.264314
H101  H     H_    0.982025 0.119631 0.477503 0.207218
H102  H     H_    0.066518 0.210623 0.480709 0.244414
O31   O     O_3   0.954617 0.669404 0.479599 -0.597826
C99   C     C_3   0.934271 0.741724 0.511943 0.102153
H103  H     H_    0.934456 0.715346 0.550162 0.138956
H104  H     H_    0.867765 0.773468 0.502583 0.156715
C100  C     C_3   0.004986 0.818622 0.507887 -0.838306
H105  H     H_    0.004275 0.849349 0.470606 0.263728
H106  H     H_    0.990771 0.875277 0.533721 0.203704
H107  H     H_    0.072702 0.789011 0.516402 0.254009
O32   O     O_3   0.050160 0.530167 0.586282 -0.599244
C101  C     C_3   0.081322 0.608292 0.612644 0.092125
H108  H     H_    0.091603 0.671331 0.588669 0.133396
H109  H     H_    0.145034 0.590600 0.632463 0.167829
C102  C     C_3   0.012020 0.633157 0.649954 -0.805655
H110  H     H_    0.003116 0.573008 0.675740 0.269243
H111  H     H_    0.034889 0.695547 0.670371 0.205237
H112  H     H_    0.946454 0.649585 0.631852 0.243336

loop_
_geom_bond_atom_site_label_1
_geom_bond_atom_site_label_2
_geom_bond_distance
_ccdc_geom_bond_type
C43   C52   1.399230 A    
O5    Zn1   2.013971 S    
C16   C18   1.395959 A    
O27   C91   1.411634 S    
C101  H109  1.111410 S    
C82   H56   1.110403 S    
C14   H4    1.080928 S    
C70   H26   1.110756 S    
O23   C83   1.412521 S    
O15   C67   1.409302 S    
C54   C58   1.416524 A    
O3    C2    1.286775 A    
N1    C17   1.423254 S    
C97   H99   1.111161 S    
C88   H74   1.110579 S    
O14   C65   1.409920 S    
C32   C39   1.410388 A    
C31   C33   1.417930 A    
C86   H66   1.110247 S    
O5    C3    1.293575 A    
C99   C100  1.521704 S    
C102  H110  1.110711 S    
C80   H51   1.110233 S    
C83   H60   1.111405 S    
C87   C88   1.520889 S    
O1    C1    1.279837 A    
C46   C50   1.397919 A    
C6    N2    1.363902 A    
C21   C23   1.406919 A    
C10   C12   1.405632 A    
C5    N1    1.363750 A    
C94   H89   1.110466 S    
O20   C77   1.412637 S    
C65   H14   1.112628 S    
C60   N4    1.369861 A    
C85   H65   1.113626 S    
O29   C95   1.413089 S    
C25   C38   1.409441 A    
C13   C15   1.383617 A    
C67   H19   1.112259 S    
C29   C35   1.423812 A    
C77   C78   1.521045 S    
C30   C36   1.428159 A    
C96   H97   1.110761 S    
C97   C98   1.522289 S    
C87   H72   1.113569 S    
C100  H105  1.110660 S    
C30   C31   1.418720 A    
C55   C61   1.408762 A    
C5    C21   1.402583 A    
O7    Zn1   1.998092 S    
C67   C68   1.520397 S    
C4    C28   1.453863 S    
C41   O29   1.388309 S    
C60   O20   1.380928 S    
C19   C21   1.411990 A    
C24   C40   1.392398 A    
C40   H92   1.077127 S    
C24   O22   1.386704 S    
O21   C79   1.417526 S    
C12   O23   1.392286 S    
C36   C38   1.399554 A    
C14   C16   1.384358 A    
C102  H112  1.110018 S    
C53   O13   1.382765 S    
C92   H85   1.110960 S    
C93   C94   1.520265 S    
C47   H7    1.082375 S    
C42   C52   1.400580 A    
C98   H100  1.110682 S    
C81   H55   1.110585 S    
O3    Zn1   1.985977 S    
C1    C49   1.412751 S    
C59   N3    1.371418 A    
C48   C49   1.390865 A    
Zn1   N4    2.007626 S    
C90   H78   1.110486 S    
C64   H12   1.110430 S    
O31   C99   1.412963 S    
C45   H5    1.082645 S    
C84   H62   1.109499 S    
C78   H47   1.110395 S    
C16   H2    1.083202 S    
C82   H57   1.110345 S    
O2    C2    1.289166 A    
C56   C62   1.410452 A    
C89   C90   1.520650 S    
C46   H6    1.076534 S    
C98   H102  1.110197 S    
C35   O27   1.382555 S    
C61   C62   1.511536 S    
C77   H45   1.110757 S    
C54   O14   1.382501 S    
C86   H67   1.110313 S    
C99   H104  1.111015 S    
C102  H111  1.110509 S    
C44   C48   1.392452 A    
C92   H83   1.110751 S    
C69   C70   1.521177 S    
C66   H16   1.110550 S    
C85   H64   1.115526 S    
C79   C80   1.526226 S    
C89   H77   1.115174 S    
O8    Zn2   1.998095 S    
C94   H90   1.110580 S    
C11   C27   1.414902 A    
O32   C101  1.413644 S    
O4    C1    1.281588 A    
C44   O32   1.390762 S    
O26   C89   1.417449 S    
C39   H91   1.076609 S    
C95   C96   1.520830 S    
C19   C34   1.414117 A    
C84   H61   1.111007 S    
C56   O16   1.384293 S    
C81   H54   1.114847 S    
C88   H73   1.110820 S    
C44   C51   1.402776 A    
C10   H69   1.081607 S    
C100  H106  1.110385 S    
C76   H42   1.110590 S    
C9    C17   1.397998 A    
C80   H52   1.110353 S    
C99   H103  1.113635 S    
C73   H35   1.112097 S    
C94   H88   1.110930 S    
C10   C18   1.400226 A    
C45   C49   1.389660 A    
O30   C97   1.413808 S    
C72   H32   1.110554 S    
C23   O21   1.386402 S    
C90   H80   1.110762 S    
C81   C82   1.525963 S    
C58   O18   1.379383 S    
C13   C27   1.402121 A    
C63   H10   1.112237 S    
O28   C93   1.414306 S    
C7    C25   1.403727 A    
C91   C92   1.520207 S    
C29   C33   1.417256 A    
O6    C4    1.291670 A    
C47   C50   1.399142 A    
C8    C26   1.406069 A    
C2    C50   1.441243 S    
C96   H95   1.110619 S    
O17   C71   1.416654 S    
C9    H70   1.083090 S    
C42   O30   1.393826 S    
C64   H11   1.110784 S    
C19   C25   1.410139 A    
Zn2   N3    2.007626 S    
C91   H81   1.114590 S    
C48   H8    1.082949 S    
C95   H94   1.111749 S    
C32   C34   1.416798 A    
C98   H101  1.110403 S    
C90   H79   1.110470 S    
C79   H49   1.110402 S    
C77   H44   1.114773 S    
C75   H40   1.118113 S    
C41   C51   1.401654 A    
C74   H38   1.110510 S    
C78   H48   1.109966 S    
C6    O10   1.349597 S    
C91   H82   1.114304 S    
C26   C37   1.408496 A    
C82   H58   1.110218 S    
C65   H15   1.113781 S    
O8    C3    1.291689 A    
C56   C60   1.421655 A    
C74   H36   1.110486 S    
C20   C26   1.412864 A    
C68   H23   1.111098 S    
C73   C74   1.521316 S    
O1    Zn1   1.986643 S    
N2    C8    1.364413 A    
C71   H30   1.117619 S    
C22   C24   1.407317 A    
O13   C63   1.410569 S    
C36   O28   1.385285 S    
C12   C28   1.409311 A    
C63   C64   1.520047 S    
C92   H84   1.110439 S    
O16   C69   1.411468 S    
N2    C18   1.427640 S    
C29   C32   1.420109 A    
C5    O9    1.349482 S    
C101  H108  1.115086 S    
C20   C33   1.416564 A    
O6    Zn2   2.013968 S    
C38   O26   1.385374 S    
C86   H68   1.110544 S    
N1    C7    1.363074 A    
C57   O17   1.379681 S    
C79   H50   1.114808 S    
C58   N4    1.369093 A    
C59   O19   1.379536 S    
C89   H76   1.110110 S    
C75   C76   1.523742 S    
C7    O12   1.349173 S    
C69   H25   1.112665 S    
C84   H63   1.109833 S    
C69   H24   1.112673 S    
C8    O11   1.349409 S    
C76   H43   1.110278 S    
C80   H53   1.110363 S    
C64   H13   1.111097 S    
C65   C66   1.520515 S    
O19   C75   1.416431 S    
C30   C34   1.415384 A    
C41   C45   1.387908 A    
C55   O15   1.381330 S    
C42   C46   1.392371 A    
C100  H107  1.110872 S    
C43   O31   1.388502 S    
C71   C72   1.523909 S    
C70   H27   1.110529 S    
C73   H34   1.114581 S    
O18   C73   1.412450 S    
C88   H75   1.110752 S    
C97   H98   1.114375 S    
C15   C17   1.393730 A    
O4    Zn2   1.985979 S    
O22   C81   1.417431 S    
C78   H46   1.110923 S    
C6    C22   1.402158 A    
C31   C40   1.408794 A    
C53   C57   1.416202 A    
C63   H9    1.113779 S    
C72   H31   1.108694 S    
C67   H20   1.113548 S    
C72   H33   1.110631 S    
C54   C62   1.410756 A    
C68   H22   1.110361 S    
C14   C28   1.399651 A    
C96   H96   1.110467 S    
C70   H28   1.110998 S    
C3    C27   1.461668 S    
C20   C22   1.413656 A    
C9    C11   1.396632 A    
C37   O25   1.384414 S    
C51   C52   1.431453 S    
O2    Zn2   1.986642 S    
O7    C4    1.289464 A    
C23   C39   1.394084 A    
C85   C86   1.521879 S    
C75   H39   1.109320 S    
C93   H87   1.112597 S    
C13   H3    1.079113 S    
C43   C47   1.388219 A    
O25   C87   1.412968 S    
C93   H86   1.110664 S    
C66   H17   1.110367 S    
O24   C85   1.412977 S    
C83   H59   1.115582 S    
C68   H21   1.110733 S    
C74   H37   1.110384 S    
C55   C59   1.415819 A    
C87   H71   1.114998 S    
C66   H18   1.110779 S    
C35   C37   1.399056 A    
C71   H29   1.109271 S    
C76   H41   1.108101 S    
C11   O24   1.382812 S    
C57   N3    1.372302 A    
C95   H93   1.114500 S    
C101  C102  1.521305 S    
C15   H1    1.083228 S    
C53   C61   1.409011 A    
C83   C84   1.521943 S    
