data_mof_unit_15080.cif
_audit_creation_date              2012-12-10T18:45:04-0500
_audit_creation_method            fapswitch 2.2
_symmetry_space_group_name_H-M    P1
_symmetry_Int_Tables_number       1
_space_group_crystal_system       triclinic
_cell_length_a                    10.765333
_cell_length_b                    9.860633
_cell_length_c                    10.723789
_cell_angle_alpha                 89.929457
_cell_angle_beta                  91.829222
_cell_angle_gamma                 90.020241
_cell_volume                      1137.78133422

loop_
_atom_site_label
_atom_site_type_symbol
_atom_type_description
_atom_site_fract_x
_atom_site_fract_y
_atom_site_fract_z
_atom_type_partial_charge
C1    C     C_R   0.260168 0.500590 0.506209 0.942171
C2    C     C_R   0.739858 0.500658 0.493924 0.942553
C3    C     C_R   0.937242 0.627918 0.486882 0.379665
C4    C     C_R   0.062982 0.627716 0.514685 0.379168
C5    C     C_R   0.577323 0.072175 0.580155 0.315232
C6    C     C_R   0.422595 0.072316 0.419920 0.315531
C7    C     C_R   0.577106 0.928361 0.580718 0.251786
C8    C     C_R   0.422750 0.928501 0.419426 0.249862
C9    C     C_R   0.510872 0.500932 0.260441 0.891274
C10   C     C_R   0.488883 0.500712 0.739483 0.890760
C11   C     C_R   0.560100 0.754850 0.114009 -0.100314
C12   C     C_R   0.433724 0.752861 0.884519 -0.101456
C13   C     C_R   0.530132 0.877073 0.054740 -0.069124
C14   C     C_R   0.461099 0.876009 0.943012 -0.069351
C15   C     C_R   0.475768 0.628744 0.937910 0.099013
C16   C     C_R   0.520671 0.629451 0.061409 0.099912
C17   C     C_R   0.521464 0.504456 0.127097 -0.129787
C18   C     C_R   0.477803 0.503783 0.872731 -0.129862
C19   C     C_R   0.509461 0.381337 0.063591 -0.154295
C20   C     C_R   0.492403 0.381058 0.936641 -0.154268
C21   C     C_R   0.063598 0.380138 0.502907 -0.168163
C22   C     C_R   0.936336 0.380194 0.496554 -0.168291
C23   C     C_R   0.872553 0.503435 0.488983 -0.228033
C24   C     C_R   0.127511 0.503263 0.511446 -0.227890
H1    H     H_    0.512941 0.284678 0.111779 0.193841
H2    H     H_    0.491147 0.284315 0.888778 0.195067
H3    H     H_    0.615293 0.760129 0.199867 0.179584
H4    H     H_    0.378675 0.756240 0.798464 0.180266
H5    H     H_    0.557155 0.972482 0.097483 0.152571
H6    H     H_    0.432086 0.970538 0.899654 0.152827
H7    H     H_    0.111497 0.283516 0.502665 0.233524
H8    H     H_    0.888337 0.283579 0.495903 0.233169
N1    N     N_R   0.500000 0.857200 0.500000 -0.187402
N2    N     N_R   0.500000 0.142810 0.500000 -0.187224
O1    O     O_R   0.316770 0.614620 0.499990 -0.553582
O2    O     O_R   0.683230 0.614620 0.500010 -0.553570
O3    O     O_R   0.316800 0.385290 0.500000 -0.589303
O4    O     O_R   0.683200 0.385290 0.500000 -0.589306
O5    O     O_R   0.500010 0.614690 0.316770 -0.611662
O6    O     O_R   0.499990 0.614690 0.683230 -0.610604
O7    O     O_R   0.500040 0.385360 0.316770 -0.582936
O8    O     O_R   0.499960 0.385360 0.683230 -0.583306
Zn1   Zn    Zn3+2 0.500000 0.653120 0.500000 1.063596
Zn2   Zn    Zn3+2 0.500000 0.346880 0.500000 1.057448
Cl1   Cl    Cl    0.868789 0.784364 0.439176 -0.482703
Cl2   Cl    Cl    0.131759 0.783513 0.563610 -0.485027
Cl3   Cl    Cl    0.678389 0.160665 0.683432 -0.517959
Cl4   Cl    Cl    0.321438 0.160971 0.316704 -0.518278
Br1   Br    Br    0.686739 0.835228 0.696914 -0.321777
Br2   Br    Br    0.312369 0.835528 0.304004 -0.323346

loop_
_geom_bond_atom_site_label_1
_geom_bond_atom_site_label_2
_ccdc_geom_bond_type
C15   C18   A    
O5    Zn1   S    
O8    Zn2   S    
O4    Zn2   S    
C1    O3    A    
C10   O8    A    
O1    Zn1   S    
C11   C16   A    
C2    O4    A    
C3    C23   A    
C19   C20   A    
C12   C15   A    
C11   H3    S    
C6    N2    A    
C5    N2    A    
C21   H7    S    
O3    Zn2   S    
C4    Cl2   S    
C21   C22   A    
C11   C13   A    
C7    Br1   S    
C6    Cl4   S    
C14   H6    S    
C4    C24   A    
C10   C18   S    
C9    C17   S    
C17   C19   A    
C12   H4    S    
C18   C20   A    
C8    N1    A    
C19   H1    S    
O7    Zn2   S    
C7    N1    A    
C2    O2    A    
C15   C16   A    
C5    Cl3   S    
C8    Br2   S    
C9    O5    A    
C22   H8    S    
N2    Zn2   S    
C1    O1    A    
C1    C24   S    
C10   O6    A    
C21   C24   A    
C13   H5    S    
C2    C23   S    
C5    C7    A    
C22   C23   A    
O2    Zn1   S    
C6    C8    A    
C13   C14   A    
C9    O7    A    
C3    Cl1   S    
O6    Zn1   S    
C3    C4    A    
C12   C14   A    
C16   C17   A    
C20   H2    S    
N1    Zn1   S    
