data_mof_unit_54555.cif
_audit_creation_date              2012-12-11T15:08:38-0500
_audit_creation_method            fapswitch 2.2
_symmetry_space_group_name_H-M    P1
_symmetry_Int_Tables_number       1
_space_group_crystal_system       triclinic
_cell_length_a                    19.458858
_cell_length_b                    11.309131
_cell_length_c                    18.685636
_cell_angle_alpha                 89.983514
_cell_angle_beta                  90.124806
_cell_angle_gamma                 90.004479
_cell_volume                      4112.00295836

loop_
_atom_site_label
_atom_site_type_symbol
_atom_type_description
_atom_site_fract_x
_atom_site_fract_y
_atom_site_fract_z
_atom_type_partial_charge
C1    C     C_R   0.272467 0.043556 0.854053 0.531776
C2    C     C_R   0.727400 0.042732 0.145379 0.530463
C3    C     C_R   0.771555 0.545176 0.853238 0.530274
C4    C     C_R   0.227196 0.542727 0.145589 0.532432
C5    C     C_3   0.519107 0.721689 0.964817 -0.113400
C6    C     C_3   0.479759 0.723550 0.035850 -0.112686
C7    C     C_3   0.015560 0.219111 0.967081 -0.109639
C8    C     C_3   0.977036 0.231205 0.038332 -0.109648
C9    C     C_3   0.311545 0.527810 0.043659 -0.235382
C10   C     C_3   0.683397 0.540483 0.953716 -0.236075
C11   C     C_3   0.809289 0.016173 0.040961 -0.233114
C12   C     C_3   0.188125 0.028800 0.956239 -0.236303
C13   C     C_3   0.321232 0.553107 0.963336 -0.234716
C14   C     C_3   0.675485 0.561146 0.035056 -0.232067
C15   C     C_3   0.813821 0.024728 0.958601 -0.240684
C16   C     C_3   0.179297 0.051593 0.036942 -0.235041
C17   C     C_3   0.179629 0.522502 0.025065 -0.208813
C18   C     C_3   0.813148 0.514215 0.973636 -0.211814
C19   C     C_3   0.676975 0.030971 0.026172 -0.208384
C20   C     C_3   0.320190 0.022919 0.974091 -0.207888
C21   C     C_3   0.240422 0.706710 0.056617 -0.256766
C22   C     C_3   0.764115 0.708506 0.943536 -0.255728
C23   C     C_3   0.747453 0.204364 0.055283 -0.254305
C24   C     C_3   0.259872 0.207295 0.943531 -0.257357
C25   C     C_3   0.240670 0.573652 0.069923 0.065866
C26   C     C_3   0.756649 0.576603 0.928763 0.066395
C27   C     C_3   0.741286 0.072401 0.069143 0.063353
C28   C     C_3   0.259046 0.074509 0.929790 0.065620
C29   C     C_3   0.255193 0.610104 0.932097 0.055408
C30   C     C_3   0.743215 0.611760 0.067089 0.055042
C31   C     C_3   0.754766 0.104471 0.930490 0.058635
C32   C     C_3   0.245255 0.109209 0.068004 0.055492
C33   C     C_3   0.195211 0.524984 0.944340 -0.253061
C34   C     C_3   0.799703 0.520805 0.054637 -0.256919
C35   C     C_3   0.686265 0.042836 0.945089 -0.246423
C36   C     C_3   0.305304 0.024215 0.055072 -0.254011
C37   C     C_3   0.238732 0.725317 0.974740 -0.222968
C38   C     C_3   0.763772 0.725540 0.025344 -0.223955
C39   C     C_3   0.758366 0.220872 0.973959 -0.221092
C40   C     C_3   0.261556 0.224859 0.025563 -0.222111
C41   C     C_3   0.497436 0.698823 0.459814 -0.236979
C42   C     C_3   0.502536 0.698836 0.540210 -0.236905
C43   C     C_3   0.997436 0.198823 0.459814 -0.237005
C44   C     C_3   0.002536 0.198836 0.540210 -0.236893
C45   C     C_R   0.444330 0.817067 0.862397 0.537473
C46   C     C_R   0.555903 0.817102 0.137601 0.536983
C47   C     C_R   0.944786 0.317396 0.862588 0.539512
C48   C     C_R   0.057025 0.317191 0.137741 0.538420
C49   C     C_3   0.567232 0.888217 0.472894 -0.226736
C50   C     C_3   0.432746 0.888238 0.527067 -0.226734
C51   C     C_3   0.067232 0.388217 0.472894 -0.226775
C52   C     C_3   0.932746 0.388239 0.527066 -0.226770
C53   C     C_3   0.445465 0.898393 0.445679 -0.257935
C54   C     C_3   0.554511 0.898424 0.554272 -0.258007
C55   C     C_3   0.945465 0.398393 0.445679 -0.257922
C56   C     C_3   0.054510 0.398424 0.554272 -0.258014
C57   C     C_3   0.509255 0.827028 0.430427 0.062418
C58   C     C_3   0.490720 0.827055 0.569555 0.062487
C59   C     C_3   0.009255 0.327028 0.430427 0.062416
C60   C     C_3   0.990720 0.327055 0.569555 0.062509
C61   C     C_3   0.181934 0.657702 0.458550 -0.238083
C62   C     C_3   0.818072 0.657751 0.541433 -0.238066
C63   C     C_3   0.681934 0.157701 0.458550 -0.238110
C64   C     C_3   0.318072 0.157750 0.541432 -0.238097
C65   C     C_3   0.180525 0.651767 0.539053 -0.237213
C66   C     C_3   0.819486 0.651777 0.460937 -0.237155
C67   C     C_3   0.680525 0.151766 0.539053 -0.237161
C68   C     C_3   0.319486 0.151777 0.460937 -0.237137
C69   C     C_3   0.242341 0.459055 0.473074 -0.228722
C70   C     C_3   0.757633 0.459102 0.527028 -0.228464
C71   C     C_3   0.742340 0.959054 0.473074 -0.228720
C72   C     C_3   0.257633 0.959102 0.527027 -0.228526
C73   C     C_3   0.308375 0.633945 0.443077 -0.257659
C74   C     C_3   0.691632 0.634059 0.556890 -0.257727
C75   C     C_3   0.808375 0.133944 0.443077 -0.257703
C76   C     C_3   0.191632 0.134059 0.556890 -0.257730
C77   C     C_3   0.240120 0.574980 0.429501 0.065927
C78   C     C_3   0.759869 0.575068 0.570516 0.066201
C79   C     C_3   0.740120 0.074980 0.429502 0.065807
C80   C     C_3   0.259869 0.075067 0.570516 0.066007
C81   C     C_3   0.251597 0.606371 0.567728 0.065190
C82   C     C_3   0.748419 0.606323 0.432269 0.065040
C83   C     C_3   0.751597 0.106371 0.567728 0.065450
C84   C     C_3   0.248419 0.106323 0.432268 0.065204
C85   C     C_3   0.256080 0.475241 0.553698 -0.258438
C86   C     C_3   0.743959 0.475204 0.446380 -0.258597
C87   C     C_3   0.756080 0.975241 0.553698 -0.258458
C88   C     C_3   0.243960 0.975204 0.446379 -0.258593
C89   C     C_R   0.262275 0.642250 0.855024 0.535225
C90   C     C_R   0.737268 0.643232 0.144521 0.535435
C91   C     C_R   0.761373 0.138193 0.853610 0.532513
C92   C     C_R   0.238029 0.141321 0.145210 0.534324
C93   C     C_3   0.310310 0.662356 0.523758 -0.230795
C94   C     C_3   0.689685 0.662304 0.476175 -0.230638
C95   C     C_3   0.810310 0.162356 0.523758 -0.230689
C96   C     C_3   0.189685 0.162304 0.476174 -0.230602
C97   C     C_R   0.273022 0.044332 0.646201 0.539385
C98   C     C_R   0.726957 0.044255 0.353824 0.539908
C99   C     C_R   0.773022 0.544332 0.646201 0.538649
C100  C     C_R   0.226957 0.544256 0.353824 0.539654
C101  C     C_R   0.469695 0.822753 0.645983 0.543169
C102  C     C_R   0.530295 0.822735 0.354008 0.543343
C103  C     C_R   0.969695 0.322753 0.645982 0.543159
C104  C     C_R   0.030295 0.322735 0.354008 0.543506
C105  C     C_R   0.260667 0.640069 0.643758 0.541963
C106  C     C_R   0.739349 0.640000 0.356225 0.542387
C107  C     C_R   0.760667 0.140070 0.643758 0.541081
C108  C     C_R   0.239349 0.139999 0.356225 0.541891
C109  C     C_3   0.480829 0.916853 0.035258 -0.108653
C110  C     C_3   0.521212 0.915000 0.963725 -0.108988
C111  C     C_3   0.987775 0.423342 0.033376 -0.113752
C112  C     C_3   0.026562 0.411175 0.961440 -0.109676
C113  C     C_3   0.431883 0.819913 0.006663 -0.158648
C114  C     C_3   0.568640 0.816498 0.993156 -0.159993
C115  C     C_3   0.933808 0.332932 0.007911 -0.163537
C116  C     C_3   0.069587 0.308459 0.992926 -0.158376
C117  C     C_3   0.472204 0.819744 0.935993 0.057483
C118  C     C_3   0.528268 0.819965 0.063874 0.057071
C119  C     C_3   0.972754 0.321567 0.936461 0.059589
C120  C     C_3   0.030279 0.321479 0.063801 0.055369
Cr1   Cr    Cr6+3 0.229620 0.836040 0.749110 0.991315
Cr2   Cr    Cr6+3 0.770380 0.836040 0.250890 0.991244
Cr3   Cr    Cr6+3 0.729620 0.336040 0.749110 0.991077
Cr4   Cr    Cr6+3 0.270380 0.336040 0.250890 0.991298
Cr5   Cr    Cr6+3 0.387630 0.990680 0.750730 0.995725
Cr6   Cr    Cr6+3 0.612370 0.990680 0.249270 0.996149
Cr7   Cr    Cr6+3 0.887630 0.490680 0.750730 0.996320
Cr8   Cr    Cr6+3 0.112370 0.490680 0.249270 0.995794
Cr9   Cr    Cr6+3 0.386020 0.676590 0.749210 0.993011
Cr10  Cr    Cr6+3 0.613980 0.676590 0.250790 0.993506
Cr11  Cr    Cr6+3 0.886020 0.176590 0.749210 0.992865
Cr12  Cr    Cr6+3 0.113980 0.176590 0.250790 0.993025
H1    H     H_    0.377208 0.807235 0.018228 0.091968
H2    H     H_    0.623499 0.802778 0.981966 0.090538
H3    H     H_    0.881826 0.337370 0.029144 0.097227
H4    H     H_    0.124184 0.291274 0.983635 0.092660
H5    H     H_    0.194991 0.750128 0.081362 0.127628
H6    H     H_    0.813453 0.741625 0.921327 0.129897
H7    H     H_    0.700417 0.252272 0.072753 0.125467
H8    H     H_    0.305596 0.250305 0.919067 0.127395
H9    H     H_    0.286850 0.745582 0.081432 0.103704
H10   H     H_    0.722008 0.758806 0.917476 0.103274
H11   H     H_    0.791552 0.239967 0.086293 0.100722
H12   H     H_    0.213925 0.247044 0.918409 0.103348
H13   H     H_    0.273873 0.794737 0.958932 0.108787
H14   H     H_    0.817429 0.746607 0.041113 0.132258
H15   H     H_    0.810905 0.250091 0.964588 0.102129
H16   H     H_    0.314777 0.251153 0.039851 0.131049
H17   H     H_    0.631195 0.084641 0.041240 0.139848
H18   H     H_    0.367070 0.077609 0.965084 0.137389
H19   H     H_    0.132833 0.577334 0.034106 0.136665
H20   H     H_    0.864240 0.555169 0.963039 0.140440
H21   H     H_    0.532697 0.629711 0.440141 0.137191
H22   H     H_    0.467281 0.629705 0.559910 0.137220
H23   H     H_    0.032697 0.129712 0.440141 0.137195
H24   H     H_    0.967281 0.129705 0.559910 0.137221
H25   H     H_    0.446124 0.668497 0.442872 0.116537
H26   H     H_    0.553849 0.668529 0.557161 0.116492
H27   H     H_    0.946124 0.168497 0.442872 0.116534
H28   H     H_    0.053849 0.168529 0.557161 0.116524
H29   H     H_    0.608298 0.828516 0.464720 0.110661
H30   H     H_    0.391665 0.828569 0.535285 0.110659
H31   H     H_    0.108298 0.328516 0.464720 0.110668
H32   H     H_    0.891665 0.328569 0.535285 0.110656
H33   H     H_    0.599134 0.864931 0.585342 0.101458
H34   H     H_    0.400840 0.864869 0.414631 0.101599
H35   H     H_    0.099134 0.364931 0.585343 0.101558
H36   H     H_    0.900841 0.364870 0.414631 0.101656
H37   H     H_    0.466363 0.998237 0.064643 0.113333
H38   H     H_    0.536986 0.994527 0.933240 0.114676
H39   H     H_    0.976666 0.508318 0.060721 0.115124
H40   H     H_    0.043859 0.486692 0.928485 0.114395
H41   H     H_    0.454791 0.991881 0.430236 0.119636
H42   H     H_    0.545184 0.991919 0.569658 0.119558
H43   H     H_    0.954791 0.491881 0.430236 0.119685
H44   H     H_    0.045183 0.491920 0.569658 0.119568
H45   H     H_    0.421558 0.976018 0.549402 0.131546
H46   H     H_    0.578445 0.975978 0.450514 0.131613
H47   H     H_    0.921557 0.476018 0.549402 0.131556
H48   H     H_    0.078446 0.475978 0.450514 0.131635
H49   H     H_    0.129348 0.638702 0.439510 0.136581
H50   H     H_    0.870653 0.638732 0.560486 0.136610
H51   H     H_    0.629348 0.138701 0.439510 0.136556
H52   H     H_    0.370653 0.138731 0.560486 0.136595
H53   H     H_    0.192199 0.749098 0.440739 0.116250
H54   H     H_    0.807829 0.749161 0.559195 0.116123
H55   H     H_    0.692199 0.249097 0.440740 0.116288
H56   H     H_    0.307829 0.249161 0.559194 0.116190
H57   H     H_    0.163795 0.739361 0.558336 0.136179
H58   H     H_    0.836215 0.739375 0.441614 0.136240
H59   H     H_    0.663795 0.239361 0.558337 0.136214
H60   H     H_    0.336215 0.239375 0.441614 0.136263
H61   H     H_    0.139977 0.590568 0.556972 0.117056
H62   H     H_    0.860044 0.590597 0.443056 0.117080
H63   H     H_    0.639977 0.090567 0.556973 0.117018
H64   H     H_    0.360044 0.090596 0.443055 0.117036
H65   H     H_    0.691345 0.928544 0.467524 0.111467
H66   H     H_    0.308606 0.928540 0.532707 0.111471
H67   H     H_    0.191346 0.428544 0.467523 0.111483
H68   H     H_    0.808606 0.428540 0.532708 0.111490
H69   H     H_    0.718068 0.925656 0.586293 0.100432
H70   H     H_    0.282008 0.925622 0.413855 0.100669
H71   H     H_    0.218068 0.425656 0.586292 0.100633
H72   H     H_    0.782008 0.425623 0.413856 0.100785
H73   H     H_    0.350425 0.571968 0.428577 0.121297
H74   H     H_    0.649569 0.572137 0.571469 0.121194
H75   H     H_    0.850425 0.071967 0.428578 0.121292
H76   H     H_    0.149569 0.072137 0.571468 0.121230
H77   H     H_    0.313825 0.715423 0.410340 0.100410
H78   H     H_    0.686215 0.715608 0.589536 0.100186
H79   H     H_    0.813825 0.215422 0.410340 0.100459
H80   H     H_    0.186215 0.215608 0.589535 0.100374
H81   H     H_    0.532643 0.639256 0.936077 0.122987
H82   H     H_    0.463885 0.643119 0.065424 0.122801
H83   H     H_    0.026584 0.133483 0.940485 0.120718
H84   H     H_    0.957359 0.155708 0.070034 0.123662
H85   H     H_    0.299565 0.753698 0.528585 0.111547
H86   H     H_    0.700382 0.753645 0.471180 0.111493
H87   H     H_    0.799565 0.253698 0.528585 0.111566
H88   H     H_    0.200382 0.253645 0.471180 0.111510
H89   H     H_    0.360551 0.638424 0.546283 0.131179
H90   H     H_    0.639450 0.638239 0.453683 0.131147
H91   H     H_    0.860551 0.138425 0.546283 0.131216
H92   H     H_    0.139450 0.138239 0.453683 0.131178
H93   H     H_    0.279717 0.396695 0.450420 0.133192
H94   H     H_    0.720208 0.396802 0.549687 0.133341
H95   H     H_    0.779716 0.896694 0.450420 0.133164
H96   H     H_    0.220208 0.896801 0.549687 0.133290
H97   H     H_    0.308407 0.443288 0.567813 0.120425
H98   H     H_    0.691650 0.443200 0.432240 0.120404
H99   H     H_    0.808407 0.943289 0.567814 0.120372
H100  H     H_    0.191650 0.943200 0.432239 0.120369
H101  H     H_    0.317417 0.433416 0.054086 0.130772
H102  H     H_    0.670777 0.448019 0.940698 0.128038
H103  H     H_    0.816561 0.925888 0.059207 0.133352
H104  H     H_    0.181703 0.934685 0.944824 0.131408
H105  H     H_    0.353185 0.571278 0.074706 0.109987
H106  H     H_    0.645192 0.594408 0.924093 0.110169
H107  H     H_    0.853510 0.063928 0.064909 0.108007
H108  H     H_    0.146261 0.073920 0.926228 0.112233
H109  H     H_    0.365707 0.613269 0.955815 0.135833
H110  H     H_    0.632259 0.622376 0.045276 0.135759
H111  H     H_    0.864957 0.061754 0.944146 0.139356
H112  H     H_    0.134238 0.109699 0.045897 0.137010
H113  H     H_    0.333180 0.469351 0.934745 0.117860
H114  H     H_    0.662228 0.476131 0.061666 0.118258
H115  H     H_    0.810342 0.936385 0.933873 0.112542
H116  H     H_    0.168464 0.966712 0.064811 0.116715
H117  H     H_    0.663990 0.941663 0.042665 0.100681
H118  H     H_    0.335056 0.937578 0.952735 0.099582
H119  H     H_    0.164235 0.436256 0.044881 0.098839
H120  H     H_    0.817252 0.424866 0.954260 0.100489
H121  H     H_    0.685087 0.954840 0.918945 0.105903
H122  H     H_    0.292013 0.935375 0.074652 0.110602
H123  H     H_    0.208431 0.436358 0.924386 0.111515
H124  H     H_    0.783251 0.434397 0.075972 0.109611
O1    O     O_R   0.214130 0.708570 0.829890 -0.528400
O2    O     O_R   0.785870 0.708570 0.170110 -0.528211
O3    O     O_R   0.714130 0.208570 0.829890 -0.529092
O4    O     O_R   0.285870 0.208570 0.170110 -0.527962
O5    O     O_R   0.446360 0.919990 0.675230 -0.508148
O6    O     O_R   0.553640 0.919990 0.324770 -0.508109
O7    O     O_R   0.946360 0.419990 0.675230 -0.508273
O8    O     O_R   0.053640 0.419990 0.324770 -0.508034
O9    O     O_R   0.457170 0.717300 0.668380 -0.530917
O10   O     O_R   0.542830 0.717300 0.331620 -0.530808
O11   O     O_R   0.957170 0.217300 0.668380 -0.530871
O12   O     O_R   0.042830 0.217300 0.331620 -0.530829
O13   O     O_R   0.320870 0.624890 0.673130 -0.511420
O14   O     O_R   0.679130 0.624890 0.326870 -0.511166
O15   O     O_R   0.820870 0.124890 0.673130 -0.512026
O16   O     O_R   0.179130 0.124890 0.326870 -0.511426
O17   O     O_3   0.334430 0.834430 0.749680 -0.283239
O18   O     O_3   0.665570 0.834430 0.250320 -0.283773
O19   O     O_3   0.834430 0.334430 0.749680 -0.281040
O20   O     O_3   0.165570 0.334430 0.250320 -0.284354
O21   O     O_R   0.236050 0.959150 0.825270 -0.514102
O22   O     O_R   0.763950 0.959150 0.174730 -0.515262
O23   O     O_R   0.736050 0.459150 0.825270 -0.513776
O24   O     O_R   0.263950 0.459150 0.174730 -0.514145
O25   O     O_R   0.332100 0.076650 0.832310 -0.533246
O26   O     O_R   0.667900 0.076650 0.167690 -0.532466
O27   O     O_R   0.832100 0.576650 0.832310 -0.533489
O28   O     O_R   0.167900 0.576650 0.167690 -0.533519
O29   O     O_R   0.446500 0.918620 0.826240 -0.504395
O30   O     O_R   0.553500 0.918620 0.173760 -0.504417
O31   O     O_R   0.946500 0.418620 0.826240 -0.504158
O32   O     O_R   0.053500 0.418620 0.173760 -0.504243
O33   O     O_R   0.457310 0.715830 0.831280 -0.524807
O34   O     O_R   0.542690 0.715830 0.168720 -0.524745
O35   O     O_R   0.957310 0.215830 0.831280 -0.524162
O36   O     O_R   0.042690 0.215830 0.168720 -0.524597
O37   O     O_R   0.321000 0.623520 0.824130 -0.519112
O38   O     O_R   0.679000 0.623520 0.175870 -0.519105
O39   O     O_R   0.821000 0.123520 0.824130 -0.519913
O40   O     O_R   0.179000 0.123520 0.175870 -0.519535
O41   O     O_R   0.213990 0.710040 0.667000 -0.533394
O42   O     O_R   0.786010 0.710040 0.333000 -0.533030
O43   O     O_R   0.713990 0.210040 0.667000 -0.533744
O44   O     O_R   0.286010 0.210040 0.333000 -0.533334
O45   O     O_R   0.235920 0.960520 0.674260 -0.512800
O46   O     O_R   0.764080 0.960520 0.325740 -0.512528
O47   O     O_R   0.735920 0.460520 0.674260 -0.513195
O48   O     O_R   0.264080 0.460520 0.325740 -0.512605
O49   O     O_R   0.331960 0.078120 0.669410 -0.534257
O50   O     O_R   0.668040 0.078120 0.330590 -0.533829
O51   O     O_R   0.831960 0.578120 0.669410 -0.534612
O52   O     O_R   0.168040 0.578120 0.330590 -0.534154
H125  H     H_    0.185639 0.752247 0.960419 0.130985
H126  H     H_    0.729561 0.798004 0.040150 0.109974
H127  H     H_    0.721210 0.285880 0.953644 0.138205
H128  H     H_    0.226784 0.294531 0.041948 0.108927
H129  H     H_    0.149319 0.555610 0.914302 0.123273
H130  H     H_    0.847828 0.546128 0.083056 0.125190
H131  H     H_    0.643091 0.095667 0.922635 0.131151
H132  H     H_    0.351801 0.053594 0.084777 0.124796

loop_
_geom_bond_atom_site_label_1
_geom_bond_atom_site_label_2
_ccdc_geom_bond_type
C82   C94   S    
C55   C59   S    
C83   C87   S    
C73   C93   S    
C47   O35   A    
C42   C58   S    
C29   C89   S    
C75   C95   S    
C48   C120  S    
Cr5   O17   S    
C24   H8    S    
C57   C102  S    
C59   C104  S    
C63   H55   S    
Cr1   O21   S    
Cr9   O37   S    
Cr2   O18   S    
C5    C6    S    
Cr10  O14   S    
Cr3   O23   S    
Cr11  O11   S    
C22   C38   S    
C29   C33   S    
C30   C38   S    
C77   C100  S    
C9    C13   S    
C92   O4    A    
C75   H75   S    
C12   C16   S    
Cr3   O19   S    
C95   H87   S    
C102  O6    A    
C99   O51   A    
C103  O11   A    
C60   C103  S    
C83   C107  S    
C113  H1    S    
C23   H11   S    
C17   H19   S    
C55   H36   S    
C18   H20   S    
C66   H62   S    
C109  C118  S    
C15   H111  S    
C16   H116  S    
C11   H103  S    
Cr5   O29   S    
C50   C53   S    
C63   H51   S    
C9    H101  S    
C46   O30   A    
Cr7   O31   S    
C33   H123  S    
C85   H97   S    
Cr8   O32   S    
C62   C66   S    
C20   C28   S    
Cr3   O3    S    
C96   H88   S    
C90   O38   A    
Cr12  O40   S    
C100  O48   A    
C43   C44   S    
C1    O21   A    
C66   C82   S    
C3    O23   A    
C11   C27   S    
C5    H81   S    
C58   C101  S    
C106  O42   A    
C88   H100  S    
C65   H57   S    
C4    O24   A    
C54   H33   S    
C90   O2    A    
C92   O40   A    
C70   H68   S    
Cr2   O46   S    
C3    C26   S    
Cr3   O43   S    
C70   H94   S    
Cr7   O19   S    
C40   H128  S    
Cr12  O16   S    
Cr10  O38   S    
Cr11  O35   S    
C17   C25   S    
C54   H42   S    
C19   C35   S    
C76   C96   S    
C1    O25   A    
C32   C92   S    
C98   O46   A    
C36   H122  S    
C21   H9    S    
C61   C65   S    
C53   H34   S    
C12   H108  S    
C78   C99   S    
C73   C77   S    
C104  O8    A    
C88   H70   S    
C75   C79   S    
C76   H76   S    
Cr12  O20   S    
C67   C83   S    
Cr8   O52   S    
C80   C97   S    
C50   H30   S    
C69   C77   S    
C111  C112  S    
C38   H126  S    
C71   C79   S    
C4    C25   S    
Cr4   O24   S    
C53   H41   S    
C7    C8    S    
C56   H44   S    
C35   H121  S    
C64   C68   S    
C73   H77   S    
C42   H22   S    
C44   C60   S    
C43   H27   S    
C49   C57   S    
C93   H85   S    
C38   H14   S    
C33   H129  S    
C52   C60   S    
C14   H110  S    
C61   C77   S    
C36   H132  S    
C110  C114  S    
C49   H29   S    
C43   C59   S    
C62   H54   S    
C76   H80   S    
C10   H106  S    
Cr6   O18   S    
C11   C15   S    
Cr2   O22   S    
C109  H37   S    
C41   H21   S    
C81   C105  S    
C30   C34   S    
C44   H24   S    
C10   C14   S    
C95   H91   S    
C116  C120  S    
C84   C88   S    
C7    C116  S    
C22   H10   S    
C61   H53   S    
C114  H2    S    
C50   C58   S    
C21   C37   S    
C64   H56   S    
C113  C117  S    
C16   H112  S    
Cr5   O25   S    
C31   C91   S    
Cr6   O30   S    
C9    H105  S    
Cr8   O28   S    
C112  C116  S    
C69   C85   S    
C45   C117  S    
C21   C25   S    
C45   O33   A    
C62   C78   S    
C24   C28   S    
C2    O22   A    
C15   C31   S    
C16   C32   S    
C97   O49   A    
C52   H47   S    
C72   C80   S    
C107  O43   A    
C115  H3    S    
C66   H58   S    
C56   H35   S    
C4    O28   A    
C20   H18   S    
C111  H39   S    
C82   C106  S    
Cr5   O49   S    
C91   O3    A    
C64   H52   S    
C97   O45   A    
Cr5   O5    S    
C94   H90   S    
C81   C85   S    
Cr1   O1    S    
C13   H113  S    
C41   C42   S    
C74   C94   S    
Cr9   O17   S    
C18   C26   S    
C30   C90   S    
C9    C25   S    
C2    O26   A    
C75   H79   S    
C12   C28   S    
C13   C29   S    
C74   H74   S    
C98   O50   A    
C45   O29   A    
C46   C118  S    
C73   H73   S    
C1    C28   S    
Cr1   O41   S    
C51   H31   S    
C2    C27   S    
Cr10  O18   S    
Cr4   O44   S    
C52   C55   S    
C64   C80   S    
C42   H26   S    
C17   C33   S    
C43   H23   S    
C110  C117  S    
C65   H61   S    
C105  O13   A    
C10   H102  S    
C40   H16   S    
C107  O15   A    
C68   C84   S    
C76   C80   S    
C108  O16   A    
C50   H45   S    
C34   H130  S    
C53   C57   S    
C19   H117  S    
C82   C86   S    
C17   H119  S    
C56   C60   S    
C115  C119  S    
C86   H98   S    
C48   O36   A    
C7    C119  S    
C62   H50   S    
C111  C115  S    
C65   C81   S    
C6    H82   S    
Cr7   O51   S    
C68   H64   S    
C52   H32   S    
C71   C87   S    
C110  H38   S    
C15   H115  S    
C44   H28   S    
C31   C35   S    
C32   C36   S    
Cr9   O9    S    
C49   H46   S    
C23   H7    S    
C101  O9    A    
C69   H93   S    
C112  C119  S    
C116  H4    S    
C22   H6    S    
C61   H49   S    
C41   C57   S    
C47   O31   A    
C109  C110  S    
C48   O32   A    
C89   O37   A    
C112  H40   S    
C24   H12   S    
Cr6   O26   S    
C91   O39   A    
C84   C108  S    
Cr7   O7    S    
Cr8   O8    S    
Cr1   O17   S    
C85   H71   S    
C72   H66   S    
Cr10  O10   S    
Cr11  O15   S    
Cr4   O4    S    
C22   C26   S    
C29   C37   S    
C87   H69   S    
C7    H83   S    
C6    C118  S    
C101  O5    A    
C5    C114  S    
C70   C78   S    
C79   C98   S    
C63   C79   S    
C74   H78   S    
C8    H84   S    
C34   H124  S    
Cr6   O50   S    
C46   O34   A    
C67   H59   S    
C68   H60   S    
C11   H107  S    
C49   C54   S    
C94   H86   S    
Cr6   O6    S    
C51   C56   S    
C84   C96   S    
Cr7   O27   S    
Cr8   O20   S    
C8    C115  S    
C19   H17   S    
C20   H118  S    
Cr2   O2    S    
C13   H109  S    
C18   H120  S    
C96   H92   S    
Cr12  O36   S    
C23   C27   S    
C19   C27   S    
C74   C78   S    
C109  C113  S    
C10   C26   S    
C47   C119  S    
Cr9   O33   S    
C105  O41   A    
C14   C30   S    
C67   H63   S    
C72   C88   S    
C71   H65   S    
C108  O44   A    
C63   C67   S    
C89   O1    A    
C20   C36   S    
Cr1   O45   S    
C21   H5    S    
C5    C117  S    
C111  C120  S    
Cr2   O42   S    
Cr3   O47   S    
C6    C113  S    
Cr11  O19   S    
Cr4   O48   S    
Cr12  O12   S    
C81   C93   S    
C83   C95   S    
Cr10  O34   S    
Cr11  O39   S    
C18   C34   S    
C55   H43   S    
C114  C118  S    
C106  O14   A    
C41   H25   S    
C51   C59   S    
C51   H48   S    
C70   C86   S    
C86   H72   S    
C99   O47   A    
C8    C120  S    
C35   H131  S    
C54   C58   S    
C12   H104  S    
C71   H95   S    
C104  O12   A    
C39   H127  S    
C72   H96   S    
C37   H125  S    
Cr4   O20   S    
C87   H99   S    
C3    O27   A    
C24   C40   S    
C31   C39   S    
C32   C40   S    
Cr9   O13   S    
C100  O52   A    
C102  O10   A    
C39   H15   S    
C69   H67   S    
C103  O7    A    
C93   H89   S    
C37   H13   S    
C23   C39   S    
C14   H114  S    
