data_mof_unit_30318.cif
_audit_creation_date              2012-12-10T19:00:16-0500
_audit_creation_method            fapswitch 2.2
_symmetry_space_group_name_H-M    P1
_symmetry_Int_Tables_number       1
_space_group_crystal_system       triclinic
_cell_length_a                    9.55621
_cell_length_b                    10.923861
_cell_length_c                    13.48662
_cell_angle_alpha                 91.439484
_cell_angle_beta                  71.690638
_cell_angle_gamma                 91.372261
_cell_volume                      1335.98978974

loop_
_atom_site_label
_atom_site_type_symbol
_atom_type_description
_atom_site_fract_x
_atom_site_fract_y
_atom_site_fract_z
_atom_type_partial_charge
C1    C     C_R   0.500681 0.736944 0.502058 0.780911
C2    C     C_R   0.449498 0.541401 0.971057 -0.049642
C3    C     C_R   0.466666 0.481551 0.873234 -0.050781
C4    C     C_R   0.549472 0.515555 0.027134 0.082440
C5    C     C_R   0.678929 0.449622 0.975181 0.027963
C6    C     C_R   0.692701 0.389520 0.880465 -0.290123
C7    C     C_R   0.580465 0.394948 0.834714 0.455044
C8    C     C_R   0.521874 0.545749 0.134519 0.363361
C9    C     C_R   0.763052 0.470904 0.125916 -0.148028
C10   C     C_R   0.370710 0.511383 0.815651 -0.156858
C11   C     C_R   0.380690 0.932012 0.501853 0.134096
C12   C     C_R   0.419922 0.498082 0.700497 0.916580
C13   C     C_R   0.501584 0.868864 0.506629 -0.097562
C14   C     C_R   0.622829 0.938342 0.516107 -0.203240
C15   C     C_R   0.619378 0.067029 0.516882 -0.134647
C16   C     C_R   0.496400 0.128759 0.505824 -0.085173
C17   C     C_R   0.377692 0.055409 0.499944 0.107337
C18   C     C_3   0.228729 0.050330 0.485327 -0.488563
C19   C     C_3   0.234189 0.910806 0.488505 -0.424813
C20   C     C_R   0.958994 0.439569 0.421993 0.135131
C21   C     C_R   0.896295 0.568499 0.570540 -0.071032
C22   C     C_R   0.044975 0.568381 0.570593 -0.072100
C23   C     C_R   0.498123 0.262201 0.501394 0.856345
C24   C     C_R   0.107295 0.441327 0.422100 0.233357
C25   C     C_3   0.124549 0.309047 0.400976 0.091665
C26   C     C_3   0.965435 0.303381 0.402127 0.272124
C27   C     C_R   0.579193 0.507039 0.299986 0.839233
C28   C     C_R   0.789019 0.436302 0.022117 -0.171633
C29   C     C_R   0.624805 0.513166 0.185120 -0.179001
C30   C     C_R   0.241842 0.578438 0.864509 0.266581
C31   C     C_R   0.230614 0.643844 0.958070 0.343860
C32   C     C_R   0.337603 0.629289 0.006480 -0.113050
Cu1   Cu    Cu3+1 0.359330 0.500020 0.500010 0.981345
Cu2   Cu    Cu3+1 0.640670 0.499980 0.499990 0.998409
H1    H     H_    0.846212 0.454720 0.162215 0.243452
H2    H     H_    0.713141 0.117115 0.526054 0.160202
H3    H     H_    0.141513 0.089541 0.553323 0.192158
H4    H     H_    0.232093 0.080238 0.406627 0.243070
H5    H     H_    0.153289 0.870454 0.558844 0.195889
H6    H     H_    0.241343 0.864327 0.412811 0.216177
H7    H     H_    0.816356 0.622413 0.628857 0.143090
H8    H     H_    0.076331 0.622161 0.628869 0.181203
H9    H     H_    0.142465 0.263452 0.467714 0.072844
H10   H     H_    0.785966 0.330631 0.846001 0.142684
H11   H     H_    0.894519 0.252236 0.469818 0.024208
H12   H     H_    0.891784 0.392093 0.980511 0.176440
H13   H     H_    0.334558 0.694143 0.068492 0.218587
H14   H     H_    0.719699 0.894120 0.522664 0.169525
N1    N     N_R   0.852320 0.499070 0.499340 -0.214066
N2    N     N_R   0.148230 0.499110 0.499340 -0.223190
O1    O     O_R   0.381190 0.680360 0.500000 -0.589403
O2    O     O_R   0.618780 0.680320 0.499990 -0.592843
O3    O     O_R   0.323230 0.500000 0.650990 -0.535848
O4    O     O_R   0.560820 0.499960 0.650980 -0.574943
O5    O     O_R   0.381220 0.319680 0.500010 -0.614942
O6    O     O_R   0.618810 0.319640 0.500000 -0.555123
O7    O     O_R   0.439180 0.500040 0.349020 -0.552831
O8    O     O_R   0.676770 0.500000 0.349010 -0.544620
O9    O     O_3   0.229213 0.284506 0.303470 -0.604116
H15   H     H_    0.325835 0.280401 0.315958 0.344196
S1    S     S_3+6 0.942325 0.252704 0.280484 0.046504
O10   O     O_2   0.783355 0.259975 0.286031 -0.326671
O11   O     O_2   0.036359 0.329495 0.192619 -0.254240
O12   O     O_3   0.995041 0.106108 0.258671 -0.495894
H16   H     H_    0.979396 0.082708 0.191453 0.378350
O13   O     O_3   0.387900 0.592859 0.192386 -0.707072
H17   H     H_    0.407567 0.658378 0.238847 0.316301
O14   O     O_3   0.134567 0.585465 0.816204 -0.745332
H18   H     H_    0.037792 0.596246 0.870567 0.325162
O15   O     O_3   0.123584 0.729776 0.000736 -0.719038
H19   H     H_    0.085992 0.759916 0.945449 0.331620
O16   O     O_3   0.576477 0.312594 0.755939 -0.733623
H20   H     H_    0.663453 0.258932 0.738921 0.312597

loop_
_geom_bond_atom_site_label_1
_geom_bond_atom_site_label_2
_ccdc_geom_bond_type
Cu1   O5    S    
Cu2   O6    S    
C27   C29   S    
C4    C8    A    
C25   H9    S    
C21   N1    A    
C23   O6    A    
C22   H8    S    
C8    O13   S    
C11   C19   S    
C8    C29   A    
C19   H5    S    
C18   H3    S    
C3    C7    A    
C30   C31   A    
C16   C17   A    
C15   C16   A    
C2    C32   A    
C18   C19   S    
S1    O11   D    
C26   H11   S    
C31   O15   S    
C20   C24   A    
O14   H18   S    
O15   H19   S    
C12   O3    A    
C9    C29   A    
C22   N2    A    
O13   H17   S    
O9    H15   S    
C6    H10   S    
C13   C14   A    
C24   N2    A    
Cu1   Cu2   S    
Cu1   O3    S    
C24   C25   S    
C27   O7    A    
C7    O16   S    
O16   H20   S    
C14   H14   S    
C25   C26   S    
S1    O12   S    
C2    C4    A    
C20   N1    A    
C5    C28   A    
C10   C30   A    
C31   C32   A    
C28   H12   S    
C17   C18   S    
C1    O1    A    
C10   C12   S    
C21   H7    S    
Cu2   O4    S    
C16   C23   S    
C32   H13   S    
C1    C13   S    
C15   H2    S    
C9    H1    S    
C11   C17   A    
Cu2   N1    S    
Cu1   O7    S    
C26   S1    S    
C4    C5    A    
C27   O8    A    
C23   O5    A    
C6    C7    A    
Cu1   O1    S    
Cu2   O2    S    
O12   H16   S    
C2    C3    A    
Cu1   N2    S    
C3    C10   A    
C11   C13   A    
C5    C6    A    
C20   C26   S    
C18   H4    S    
S1    O10   D    
C1    O2    A    
C12   O4    A    
C19   H6    S    
Cu2   O8    S    
C14   C15   A    
C25   O9    S    
C21   C22   A    
C30   O14   S    
C9    C28   A    
