data_mof_unit_60368.cif
_audit_creation_date              2012-12-10T21:34:45-0500
_audit_creation_method            fapswitch 2.2
_symmetry_space_group_name_H-M    P1
_symmetry_Int_Tables_number       1
_space_group_crystal_system       triclinic
_cell_length_a                    10.650622
_cell_length_b                    16.099406
_cell_length_c                    16.872303
_cell_angle_alpha                 87.200649
_cell_angle_beta                  89.977928
_cell_angle_gamma                 92.460633
_cell_volume                      2886.9460384

loop_
_atom_site_label
_atom_site_type_symbol
_atom_type_description
_atom_site_fract_x
_atom_site_fract_y
_atom_site_fract_z
_atom_type_partial_charge
C1    C     C_R   0.502577 0.488476 0.652730 0.874876
C2    C     C_3   0.121567 0.499399 0.498024 0.098936
C3    C     C_3   0.076370 0.570201 0.440296 -0.456127
C4    C     C_3   0.075649 0.517870 0.583570 -0.181633
C5    C     C_R   0.516546 0.480364 0.737935 -0.024368
C6    C     C_R   0.570246 0.547236 0.777770 -0.224019
C7    C     C_R   0.580690 0.541651 0.859367 -0.169381
C8    C     C_R   0.535440 0.469151 0.902137 0.324623
C9    C     C_R   0.489081 0.400667 0.861862 -0.194605
C10   C     C_R   0.479383 0.406071 0.779758 -0.226705
C11   C     C_R   0.442054 0.465309 0.135166 -0.217659
C12   C     C_R   0.742387 0.499935 0.498597 0.908149
C13   C     C_R   0.432285 0.459749 0.217273 0.068815
C14   C     C_R   0.515814 0.530112 0.097235 0.309306
C15   C     C_R   0.496493 0.519898 0.261529 -0.033307
C16   C     C_R   0.562897 0.587442 0.223248 -0.279141
C17   C     C_R   0.571933 0.592558 0.141181 -0.197070
C18   C     C_R   0.435517 0.762918 0.464396 -0.019190
C19   C     C_R   0.439308 0.850132 0.466342 -0.276084
C20   C     C_R   0.526846 0.890958 0.515691 0.332069
C21   C     C_R   0.607692 0.841660 0.561581 -0.308123
C22   C     C_R   0.600673 0.754666 0.557835 -0.004751
C23   C     C_R   0.498270 0.511509 0.347259 0.887090
C24   C     C_R   0.560975 0.149890 0.533534 -0.276975
C25   C     C_R   0.564704 0.237104 0.535479 -0.023616
C26   C     C_R   0.473274 0.109028 0.484316 0.334280
C27   C     C_R   0.399175 0.245271 0.442304 -0.002625
C28   C     C_R   0.392224 0.158288 0.438548 -0.313658
C29   C     C_R   0.257784 0.500218 0.497321 0.880688
C30   C     C_3   0.921438 0.415134 0.469416 -0.488462
C31   C     C_3   0.064825 0.413538 0.470969 -0.038860
C32   C     C_3   0.932453 0.568435 0.439110 -0.472221
C33   C     C_3   0.928242 0.513103 0.586421 0.235674
C34   C     C_3   0.878674 0.499471 0.499437 0.117492
H1    H     H_    0.884922 0.406880 0.408292 0.181024
H2    H     H_    0.108085 0.583215 0.594162 0.156799
H3    H     H_    0.899485 0.631004 0.451687 0.192010
H4    H     H_    0.111771 0.632084 0.459578 0.180881
H5    H     H_    0.392833 0.418718 0.101205 0.146022
H6    H     H_    0.455398 0.344475 0.894482 0.137330
H7    H     H_    0.439531 0.353424 0.749349 0.158545
H8    H     H_    0.611362 0.634615 0.256896 0.167001
H9    H     H_    0.620610 0.594802 0.888952 0.146742
H10   H     H_    0.881301 0.360710 0.505444 0.174478
H11   H     H_    0.603285 0.604112 0.745963 0.160118
H12   H     H_    0.631828 0.268233 0.573318 0.133775
H13   H     H_    0.625944 0.115279 0.570180 0.151780
H14   H     H_    0.676115 0.870591 0.600161 0.143145
H15   H     H_    0.663491 0.717222 0.593393 0.137411
H16   H     H_    0.336193 0.282660 0.406860 0.152164
H17   H     H_    0.374517 0.884770 0.429585 0.151781
H18   H     H_    0.323679 0.129336 0.400062 0.142935
H19   H     H_    0.899051 0.555714 0.378159 0.173655
N1    N     N_2   0.526305 0.465017 0.985406 -0.206153
N2    N     N_2   0.533397 0.534572 0.014643 -0.204244
N3    N     N_R   0.515460 0.716920 0.509720 -0.087594
N4    N     N_2   0.537363 0.979778 0.521267 -0.190991
N5    N     N_2   0.462785 0.020209 0.478747 -0.190889
N6    N     N_R   0.484530 0.283060 0.490290 -0.088706
O1    O     O_R   0.494470 0.422540 0.612660 -0.624468
O2    O     O_R   0.504400 0.561840 0.618900 -0.618870
O3    O     O_R   0.680240 0.430340 0.496890 -0.633567
O4    O     O_R   0.690170 0.569650 0.503130 -0.620532
O5    O     O_R   0.495600 0.438160 0.381100 -0.593651
O6    O     O_R   0.505530 0.577460 0.387340 -0.635526
O7    O     O_R   0.309830 0.430350 0.496870 -0.614927
O8    O     O_R   0.319760 0.569660 0.503110 -0.641159
Zn1   Zn    Zn3+2 0.493370 0.406980 0.495830 0.949019
Zn2   Zn    Zn3+2 0.506630 0.593020 0.504170 0.937433
N7    N     N_3   0.356286 0.393763 0.255357 -0.446621
H20   H     H_    0.390659 0.337102 0.239200 0.183500
H21   H     H_    0.264671 0.397532 0.233635 0.173056
H22   H     H_    0.626257 0.643576 0.111867 0.143761
H23   H     H_    0.368527 0.731825 0.426447 0.129157
H24   H     H_    0.090586 0.363131 0.514532 0.148401
N8    N     N_3   0.114769 0.392529 0.393441 -0.449216
H25   H     H_    0.076857 0.429883 0.347844 0.189765
H26   H     H_    0.086635 0.330948 0.383110 0.174848
H27   H     H_    0.113597 0.564335 0.379347 0.180172
N9    N     N_3   0.882154 0.591441 0.615316 -0.456174
H28   H     H_    0.919706 0.642878 0.581814 0.164096
H29   H     H_    0.913373 0.598795 0.673445 0.176973
N10   N     N_3   0.878522 0.444384 0.640429 -0.450653
H30   H     H_    0.899584 0.457229 0.699252 0.205694
H31   H     H_    0.920035 0.388492 0.629579 0.175000
N11   N     N_3   0.132130 0.466073 0.647420 -0.477238
H32   H     H_    0.223854 0.488773 0.657689 0.187254
H33   H     H_    0.138129 0.404560 0.631672 0.182036

loop_
_geom_bond_atom_site_label_1
_geom_bond_atom_site_label_2
_ccdc_geom_bond_type
O7    Zn1   S    
C4    H2    S    
C6    H11   S    
C11   C13   A    
C19   C20   A    
C3    H27   S    
N4    N5    D    
C7    C8    A    
C30   H1    S    
C2    C29   S    
C1    C5    S    
O5    Zn1   S    
N8    H26   S    
C30   C31   S    
C11   C14   A    
N11   H33   S    
C4    N11   S    
C13   N7    S    
C15   C16   A    
C12   O3    A    
C18   C19   A    
C4    C33   S    
O4    Zn2   S    
C3    H4    S    
C8    C9    A    
N7    H20   S    
C7    H9    S    
C9    C10   A    
C27   H16   S    
C18   N3    A    
C21   H14   S    
C15   C23   S    
C14   N2    S    
C18   H23   S    
C29   O8    A    
C21   C22   A    
C10   H7    S    
C17   H22   S    
C14   C17   A    
C30   H10   S    
C30   C34   S    
N8    H25   S    
N9    H29   S    
C1    O1    A    
C8    N1    S    
C12   O4    A    
N11   H32   S    
C16   C17   A    
C22   N3    A    
C9    H6    S    
C2    C31   S    
O8    Zn2   S    
C32   C34   S    
C2    C4    S    
N6    Zn1   S    
C33   N10   S    
C31   H24   S    
N10   H30   S    
C33   C34   S    
C32   H3    S    
C24   C25   A    
C11   H5    S    
C26   N5    S    
C22   H15   S    
C23   O5    A    
N10   H31   S    
C13   C15   A    
C12   C34   S    
C16   H8    S    
C32   H19   S    
O2    Zn2   S    
N1    N2    D    
C24   H13   S    
C24   C26   A    
N9    H28   S    
C1    O2    A    
C33   N9    S    
C6    C7    A    
C26   C28   A    
O3    Zn1   S    
C23   O6    A    
C2    C3    S    
C5    C10   A    
C27   N6    A    
C28   H18   S    
C31   N8    S    
C5    C6    A    
O6    Zn2   S    
C3    C32   S    
C29   O7    A    
C19   H17   S    
C20   C21   A    
O1    Zn1   S    
N3    Zn2   S    
C27   C28   A    
N7    H21   S    
C25   N6    A    
C20   N4    S    
C25   H12   S    
