data_mof_unit_25512.cif
_audit_creation_date              2012-12-11T14:17:29-0500
_audit_creation_method            fapswitch 2.2
_symmetry_space_group_name_H-M    P1
_symmetry_Int_Tables_number       1
_space_group_crystal_system       triclinic
_cell_length_a                    6.943487
_cell_length_b                    13.632559
_cell_length_c                    20.425285
_cell_angle_alpha                 102.133787
_cell_angle_beta                  89.617251
_cell_angle_gamma                 90.664246
_cell_volume                      1890.06815693

loop_
_atom_site_label
_atom_site_type_symbol
_atom_type_description
_atom_site_fract_x
_atom_site_fract_y
_atom_site_fract_z
_atom_type_partial_charge
O1    O     O_R   0.506860 0.599390 0.449240 -0.543579
O2    O     O_R   0.180220 0.594600 0.586780 -0.503758
O3    O     O_R   0.004500 0.400610 0.550760 -0.534182
C1    C     C_R   0.347357 0.614282 0.614246 0.802288
O4    O     O_R   0.177490 0.611290 0.451970 -0.544945
O5    O     O_R   0.001750 0.417420 0.414990 -0.545398
C2    C     C_R   0.347265 0.637895 0.435186 0.680253
O6    O     O_R   0.509610 0.582580 0.585010 -0.530226
O7    O     O_3   0.337420 0.436370 0.488020 -0.384934
V1    V     V_3+5 0.064680 0.511800 0.502220 1.497128
O8    O     O_R   0.671710 0.405400 0.413220 -0.551525
C3    C     C_R   0.840112 0.384101 0.386538 0.721747
O9    O     O_R   0.674440 0.388710 0.548030 -0.543284
C4    C     C_R   0.842200 0.362244 0.564938 0.726515
V2    V     V_3+5 0.564010 0.488200 0.497780 1.453137
O10   O     O_3   0.841140 0.563630 0.511980 -0.355014
C5    C     C_R   0.829205 0.111256 0.612824 -0.152680
H1    H     H_    0.820957 0.161509 0.520170 0.102874
H2    H     H_    0.825701 0.985936 0.695918 0.135040
H3    H     H_    0.817796 0.032966 0.587890 0.115174
C6    C     C_R   0.847028 0.285291 0.605011 -0.042714
C7    C     C_R   0.878385 0.315461 0.928482 -0.171342
C8    C     C_R   0.880889 0.391607 0.892757 -0.112947
C9    C     C_R   0.872421 0.368909 0.823056 -0.150802
C10   C     C_R   0.860782 0.268149 0.786953 0.072441
C11   C     C_R   0.856334 0.190382 0.824059 0.067873
C12   C     C_R   0.853519 0.241966 0.715431 0.066687
C13   C     C_R   0.839719 0.139052 0.682925 0.141353
C14   C     C_R   0.835702 0.064478 0.720437 -0.200832
C15   C     C_R   0.844343 0.089502 0.789802 -0.193269
C16   C     C_R   0.858699 0.314191 0.674767 -0.206207
C17   C     C_R   0.831504 0.184051 0.574158 -0.181655
C18   C     C_R   0.865622 0.215181 0.894934 -0.073934
H4    H     H_    0.869388 0.393542 0.695450 0.136904
H5    H     H_    0.886859 0.334761 0.982642 0.102812
H6    H     H_    0.875345 0.432165 0.799161 0.137052
H7    H     H_    0.890349 0.469098 0.919307 0.125523
H8    H     H_    0.841079 0.028674 0.816404 0.122561
C19   C     C_2   0.005666 0.288744 0.284647 -0.135627
C20   C     C_2   0.842711 0.315769 0.319780 -0.306368
H9    H     H_    0.143005 0.317205 0.306252 0.132050
H10   H     H_    0.703966 0.287792 0.299762 0.126245
C21   C     C_2   0.013351 0.220693 0.217019 -0.132229
C22   C     C_2   0.857951 0.183201 0.180404 -0.308124
H11   H     H_    0.156182 0.201581 0.196627 0.132355
H12   H     H_    0.713745 0.201454 0.199163 0.125464
C23   C     C_2   0.203618 0.781505 0.787098 -0.173201
C24   C     C_2   0.365094 0.813450 0.820980 -0.373143
H13   H     H_    0.065935 0.807968 0.809129 0.174110
H14   H     H_    0.504028 0.785321 0.801557 0.158200
C25   C     C_2   0.197943 0.706775 0.722361 0.405632
C26   C     C_2   0.353575 0.683571 0.680993 -0.362653
H15   H     H_    0.492119 0.718553 0.695282 0.137660
C27   C     C_R   0.415451 0.886628 0.386684 -0.159052
H16   H     H_    0.412863 0.836336 0.479406 0.106231
H17   H     H_    0.445839 0.010874 0.303250 0.121657
H18   H     H_    0.443972 0.963853 0.411356 0.112771
C28   C     C_R   0.360030 0.714618 0.395007 -0.027379
C29   C     C_R   0.317876 0.686060 0.071883 -0.165966
C30   C     C_R   0.298916 0.610563 0.107804 -0.118632
C31   C     C_R   0.313279 0.632721 0.177383 -0.157896
C32   C     C_R   0.347692 0.732242 0.213160 0.077457
C33   C     C_R   0.368608 0.809246 0.175845 0.067048
C34   C     C_R   0.361893 0.757931 0.284553 0.071808
C35   C     C_R   0.398393 0.859495 0.316719 0.141605
C36   C     C_R   0.418324 0.933345 0.278998 -0.202678
C37   C     C_R   0.403355 0.908871 0.209761 -0.195228
C38   C     C_R   0.341817 0.686453 0.325407 -0.215376
C39   C     C_R   0.397409 0.814445 0.425539 -0.172784
C40   C     C_R   0.352991 0.785035 0.105113 -0.074954
H19   H     H_    0.313919 0.608132 0.304979 0.093028
H20   H     H_    0.304696 0.667310 0.017834 0.107661
H21   H     H_    0.296615 0.570044 0.201443 0.107009
H22   H     H_    0.272044 0.534051 0.081511 0.119359
H23   H     H_    0.419742 0.969103 0.182981 0.118264
O11   O     O_R   0.203230 0.917310 0.915020 -0.539390
O12   O     O_R   0.535500 0.888690 0.048040 -0.541028
O13   O     O_R   0.711080 0.082610 0.085000 -0.545718
C41   C     C_R   0.365787 0.862283 0.065005 0.688057
O14   O     O_R   0.532630 0.905370 0.913230 -0.545038
O15   O     O_R   0.708190 0.099410 0.949230 -0.539439
C42   C     C_R   0.364962 0.883803 0.886723 0.772178
O16   O     O_R   0.206120 0.900510 0.050790 -0.538698
O17   O     O_3   0.375360 0.063570 0.011990 -0.374885
V3    V     V_3+5 0.648170 0.988200 0.997780 1.425251
O18   O     O_R   0.038240 0.111390 0.951940 -0.541291
C43   C     C_R   0.870489 0.137662 0.934927 0.686342
O19   O     O_R   0.041120 0.094710 0.086750 -0.542685
C44   C     C_R   0.872169 0.115700 0.113534 0.741869
V4    V     V_3+5 0.148810 0.011930 0.002180 1.425613
O20   O     O_3   0.871750 0.936430 0.988010 -0.370521
Cl1   Cl    Cl    0.969184 0.649646 0.703660 -0.699073

loop_
_geom_bond_atom_site_label_1
_geom_bond_atom_site_label_2
_ccdc_geom_bond_type
C1    O6    A    
V3    O20   S    
C23   H13   S    
C27   C35   A    
C7    H5    S    
C6    C16   A    
C9    H6    S    
C1    C26   S    
C34   C38   A    
C4    C6    S    
C13   C14   A    
O5    C3    A    
V2    O10   S    
C5    H3    S    
C15   H8    S    
C30   H22   S    
O16   V4    S    
C32   C34   A    
O8    V2    S    
C8    C9    A    
O1    V2    S    
C14   C15   A    
O7    V1    S    
C2    C28   S    
C29   H20   S    
C20   H10   S    
C36   C37   A    
O12   V3    S    
C29   C30   A    
O9    C4    A    
O17   V4    S    
C22   H12   S    
O12   C41   A    
O13   C44   A    
C6    C17   A    
C33   C37   A    
C12   C16   A    
C25   C26   D    
C9    C10   A    
O14   C42   A    
O18   V4    S    
O11   C42   A    
C19   C20   D    
O4    C2    A    
O18   C43   A    
C23   C25   S    
C31   H21   S    
C10   C11   A    
C8    H7    S    
C30   C31   A    
C3    C20   S    
O2    C1    A    
C21   C22   D    
O14   V3    S    
C25   Cl1   S    
C11   C18   A    
C23   C24   D    
C33   C40   A    
C32   C33   A    
C16   H4    S    
O15   C43   A    
O17   V3    S    
C21   H11   S    
H16   C39   S    
O3    C4    A    
O13   V3    S    
C28   C38   A    
O19   V4    S    
C11   C15   A    
O6    V2    S    
O9    V2    S    
C37   H23   S    
O2    V1    S    
C26   H15   S    
C7    C18   A    
C40   C41   S    
O1    C2    A    
C5    C13   A    
O5    V1    S    
C19   C21   S    
O8    C3    A    
C28   C39   A    
C10   C12   A    
C34   C35   A    
O7    V2    S    
O4    V1    S    
O3    V1    S    
V1    O10   S    
C41   O16   A    
V4    O20   S    
C27   C39   A    
C38   H19   S    
H17   C36   S    
C24   H14   S    
C24   C42   S    
C18   C43   S    
C31   C32   A    
C29   C40   A    
H1    C17   S    
O19   C44   A    
C19   H9    S    
C35   C36   A    
C12   C13   A    
C5    C17   A    
C7    C8    A    
O15   V3    S    
C22   C44   S    
O11   V4    S    
C27   H18   S    
H2    C14   S    
