data_mof_unit_19512.cif
_audit_creation_date              2012-12-10T17:12:00-0500
_audit_creation_method            fapswitch 2.2
_symmetry_space_group_name_H-M    P1
_symmetry_Int_Tables_number       1
_space_group_crystal_system       triclinic
_cell_length_a                    11.840588
_cell_length_b                    13.069606
_cell_length_c                    15.941114
_cell_angle_alpha                 94.467241
_cell_angle_beta                  74.904847
_cell_angle_gamma                 98.266649
_cell_volume                      2354.93421173

loop_
_atom_site_label
_atom_site_type_symbol
_atom_type_description
_atom_site_fract_x
_atom_site_fract_y
_atom_site_fract_z
_atom_type_partial_charge
C1    C     C_R   0.524296 0.699598 0.491728 0.852557
C2    C     C_R   0.476017 0.299354 0.506703 0.841311
C3    C     C_R   0.357531 0.473808 0.086212 -0.134924
C4    C     C_R   0.615314 0.593955 0.924470 -0.151027
C5    C     C_R   0.272350 0.450234 0.037785 0.168074
C6    C     C_R   0.704231 0.609069 0.968869 0.155928
C7    C     C_R   0.458448 0.184898 0.519544 -0.216952
C8    C     C_R   0.541610 0.812844 0.479011 -0.198668
C9    C     C_R   0.660093 0.982955 0.460161 0.327143
C10   C     C_R   0.344125 0.013616 0.544055 0.339564
C11   C     C_R   0.654652 0.873458 0.454841 0.015424
C12   C     C_R   0.345512 0.120710 0.537542 0.004529
C13   C     C_R   0.441823 0.862550 0.488528 0.312961
C14   C     C_R   0.559082 0.136421 0.516686 0.313497
C15   C     C_R   0.447181 0.968165 0.510487 -0.116215
C16   C     C_R   0.556839 0.029558 0.497097 -0.103115
C17   C     C_R   0.956640 0.628129 0.538600 0.244221
C18   C     C_R   0.046384 0.374333 0.455537 0.239892
C19   C     C_R   0.832903 0.606245 0.555505 0.190126
C20   C     C_R   0.170211 0.396570 0.440545 0.207515
C21   C     C_R   0.856053 0.445848 0.476277 0.491651
C22   C     C_R   0.144516 0.554575 0.523264 0.472282
C23   C     C_R   0.427934 0.488501 0.667570 0.842448
C24   C     C_R   0.571863 0.511894 0.332158 0.821808
C25   C     C_R   0.975445 0.454429 0.482581 -0.172812
C26   C     C_R   0.026949 0.547645 0.513751 -0.172916
C27   C     C_R   0.385026 0.475845 0.763928 -0.170908
C28   C     C_R   0.610298 0.537833 0.237362 -0.178340
C29   C     C_R   0.223203 0.457619 0.895042 0.222820
C30   C     C_R   0.756243 0.609941 0.111183 0.225015
C31   C     C_R   0.264478 0.447585 0.804113 0.095263
C32   C     C_R   0.730553 0.561452 0.190969 0.053070
C33   C     C_R   0.465063 0.488836 0.816634 0.157238
C34   C     C_R   0.523825 0.551848 0.193122 0.160612
C35   C     C_R   0.424874 0.504085 0.908039 -0.016944
C36   C     C_R   0.554996 0.554628 0.101237 -0.016139
C37   C     C_R   0.304123 0.474321 0.948260 -0.014319
C38   C     C_R   0.673926 0.591475 0.059473 0.015694
C39   C     C_R   0.503944 0.540882 0.960608 0.075970
C40   C     C_R   0.470711 0.525632 0.050690 0.055808
Cu1   Cu    Cu3+1 0.386820 0.492450 0.493500 1.009781
Cu2   Cu    Cu3+1 0.613180 0.507550 0.506500 1.011651
H1    H     H_    0.336488 0.448872 0.151804 0.177165
H2    H     H_    0.636097 0.617712 0.858244 0.164932
N1    N     N_R   0.216750 0.481110 0.483710 -0.242867
N2    N     N_R   0.783250 0.518890 0.516290 -0.238333
O1    O     O_R   0.419950 0.645670 0.495380 -0.487615
O2    O     O_R   0.580050 0.354330 0.504620 -0.489003
O3    O     O_R   0.611110 0.658410 0.506370 -0.641292
O4    O     O_R   0.388890 0.341590 0.493630 -0.637420
O5    O     O_R   0.350820 0.490050 0.621260 -0.558396
O6    O     O_R   0.649180 0.509950 0.378740 -0.571859
O7    O     O_R   0.541970 0.502800 0.632250 -0.555946
O8    O     O_R   0.458030 0.497200 0.367750 -0.563037
C41   C     C_3   0.153986 0.387758 0.078253 -0.351680
C42   C     C_3   0.149561 0.323916 0.155101 -0.878816
H3    H     H_    0.226108 0.279541 0.140755 0.269647
H4    H     H_    0.146978 0.375845 0.213710 0.265469
H5    H     H_    0.067533 0.268079 0.168398 0.277986
H6    H     H_    0.086715 0.441578 0.100283 0.254754
H7    H     H_    0.129340 0.330629 0.028635 0.246912
C43   C     C_3   0.829524 0.634603 0.913826 -0.352937
C44   C     C_3   0.861186 0.556275 0.838398 -0.766429
H8    H     H_    0.852061 0.477531 0.862934 0.301293
H9    H     H_    0.805745 0.554587 0.792537 0.272216
H10   H     H_    0.953009 0.579915 0.801826 0.261403
H11   H     H_    0.840825 0.713261 0.888489 0.226374
H12   H     H_    0.896184 0.631333 0.949738 0.290843
C45   C     C_3   0.248387 0.346185 0.360866 -0.375633
C46   C     C_3   0.199907 0.239400 0.329207 -0.803176
H13   H     H_    0.192341 0.180654 0.377283 0.276865
H14   H     H_    0.113030 0.240370 0.315443 0.303904
H15   H     H_    0.262275 0.215214 0.268372 0.243782
H16   H     H_    0.335015 0.337278 0.369196 0.256119
H17   H     H_    0.266053 0.399731 0.307171 0.214968
C47   C     C_3   0.759913 0.684132 0.614002 -0.315403
C48   C     C_3   0.807883 0.729568 0.691767 -0.784749
H18   H     H_    0.873272 0.684106 0.704150 0.269503
H19   H     H_    0.852015 0.809854 0.679469 0.294280
H20   H     H_    0.734676 0.733649 0.751219 0.227419
H21   H     H_    0.756362 0.750613 0.576433 0.214435
H22   H     H_    0.669246 0.648721 0.641160 0.251441
Br1   Br    Br    0.023493 0.769090 0.515937 -0.389763
Br2   Br    Br    0.978634 0.238035 0.492893 -0.422034
Br3   Br    Br    0.383059 0.612299 0.254246 -0.447407
Br4   Br    Br    0.608869 0.426116 0.772677 -0.483411
C49   C     C_3   0.832794 0.526253 0.216571 -0.361105
C50   C     C_3   0.833749 0.410618 0.194561 -0.722622
H23   H     H_    0.908235 0.383999 0.213142 0.265770
H24   H     H_    0.749740 0.366066 0.229386 0.271977
H25   H     H_    0.845488 0.394989 0.123478 0.264840
H26   H     H_    0.832719 0.546070 0.285205 0.238925
H27   H     H_    0.918497 0.565172 0.178808 0.246293
C51   C     C_3   0.188287 0.376558 0.755306 -0.356845
C52   C     C_3   0.101084 0.430773 0.725317 -0.670755
H28   H     H_    0.116658 0.515034 0.738809 0.285686
H29   H     H_    0.110508 0.415449 0.654616 0.233540
H30   H     H_    0.009483 0.400637 0.759333 0.257322
H31   H     H_    0.139432 0.311743 0.796875 0.217291
H32   H     H_    0.245492 0.338996 0.698572 0.199817
Br5   Br    Br    0.056665 0.467759 0.939837 -0.611835
Br6   Br    Br    0.878208 0.727874 0.095603 -0.528043
Br7   Br    Br    0.670695 0.199592 0.580496 -0.306694
Br8   Br    Br    0.327039 0.805068 0.425619 -0.297154
C53   C     C_3   0.225446 0.156251 0.545765 -0.333042
C54   C     C_3   0.147565 0.160204 0.638910 -0.695128
H33   H     H_    0.078456 0.092286 0.650319 0.294695
H34   H     H_    0.200273 0.162833 0.687512 0.244533
H35   H     H_    0.098744 0.228121 0.648902 0.247028
H36   H     H_    0.228637 0.229908 0.516886 0.239512
H37   H     H_    0.177524 0.100665 0.506540 0.245789
C55   C     C_3   0.764973 0.824993 0.407437 -0.372116
C56   C     C_3   0.764263 0.796894 0.313223 -0.675106
H38   H     H_    0.684794 0.741924 0.309721 0.239511
H39   H     H_    0.765168 0.867241 0.278113 0.293493
H40   H     H_    0.844044 0.759696 0.281447 0.265218
H41   H     H_    0.846537 0.877611 0.409289 0.265851
H42   H     H_    0.777100 0.755607 0.436849 0.224160
Br9   Br    Br    0.798183 0.067000 0.395560 -0.377554
Br10  Br    Br    0.209242 0.930645 0.613605 -0.381893
Br11  Br    Br    0.190430 0.653199 0.608151 -0.394058
Br12  Br    Br    0.808659 0.344588 0.394563 -0.422376

loop_
_geom_bond_atom_site_label_1
_geom_bond_atom_site_label_2
_ccdc_geom_bond_type
C24   O6    A    
C30   C32   A    
C53   H36   S    
C44   H9    S    
C8    C13   A    
C5    C37   A    
C1    C8    S    
Cu1   Cu2   S    
C2    C7    S    
C49   C50   S    
C19   N2    A    
C48   H18   S    
C27   C33   A    
C3    H1    S    
C43   H11   S    
C17   C26   A    
C19   C47   S    
C35   C37   A    
C9    C16   A    
C21   N2    A    
C10   C15   A    
Cu2   O7    S    
C12   C53   S    
C41   C42   S    
C54   H33   S    
C24   O8    A    
C15   C16   A    
C41   H7    S    
C42   H3    S    
C30   C38   A    
Cu2   N2    S    
C21   Br12  S    
C36   C40   A    
C2    O4    A    
C17   C19   A    
C7    C14   A    
C52   H28   S    
C18   Br2   S    
C6    C38   A    
C46   H13   S    
C23   C27   S    
C18   C20   A    
C20   N1    A    
C56   H40   S    
C53   H37   S    
C44   H10   S    
C28   C34   A    
C41   H6    S    
C45   C46   S    
C18   C25   A    
C55   C56   S    
C23   O7    A    
C48   H19   S    
C7    C12   A    
C52   H30   S    
C27   C31   A    
C28   C32   A    
C47   C48   S    
C4    C6    A    
C47   H22   S    
C39   C40   A    
C1    O1    A    
C4    H2    S    
C2    O2    A    
C25   C26   A    
C32   C49   S    
C17   Br1   S    
C34   Br3   S    
C35   C39   A    
C33   Br4   S    
C43   C44   S    
C23   O5    A    
C50   H25   S    
C51   H32   S    
C30   Br6   S    
C46   H15   S    
Cu1   O1    S    
C29   Br5   S    
C45   H16   S    
Cu2   O2    S    
C13   Br8   S    
C9    C11   A    
C10   C12   A    
C50   H24   S    
C3    C40   A    
C13   C15   A    
C9    Br9   S    
C14   C16   A    
C20   C45   S    
Cu1   O4    S    
C22   Br11  S    
C56   H38   S    
C48   H20   S    
C21   C25   A    
C11   C55   S    
C5    C41   S    
C24   C28   S    
C3    C5    A    
C47   H21   S    
C52   H29   S    
C31   C51   S    
C53   C54   S    
C4    C39   A    
C42   H5    S    
C43   H12   S    
C6    C43   S    
C36   C38   A    
C29   C31   A    
C55   H42   S    
C14   Br7   S    
C55   H41   S    
C54   H34   S    
C51   H31   S    
C8    C11   A    
C49   H27   S    
C33   C35   A    
C42   H4    S    
C45   H17   S    
C34   C36   A    
C51   C52   S    
Cu1   O8    S    
C10   Br10  S    
Cu2   O3    S    
C44   H8    S    
C22   N1    A    
C50   H23   S    
C22   C26   A    
C29   C37   A    
Cu1   N1    S    
C46   H14   S    
C49   H26   S    
C1    O3    A    
Cu1   O5    S    
Cu2   O6    S    
C56   H39   S    
C54   H35   S    
