data_mof_unit_11832.cif
_audit_creation_date              2013-03-05T15:52:31-0500
_audit_creation_method            fapswitch 2.2
_symmetry_space_group_name_H-M    P1
_symmetry_Int_Tables_number       1
_space_group_crystal_system       triclinic
_cell_length_a                    11.02386
_cell_length_b                    11.012156
_cell_length_c                    18.708358
_cell_angle_alpha                 90.247159
_cell_angle_beta                  90.51385
_cell_angle_gamma                 59.38088
_cell_volume                      1954.39119653

loop_
_atom_site_label
_atom_site_type_symbol
_atom_site_description
_atom_site_fract_x
_atom_site_fract_y
_atom_site_fract_z
_atom_type_partial_charge
O1    O     O_R   0.748670 0.497520 0.427970 -0.548928
O2    O     O_R   0.476470 0.723930 0.429450 -0.515480
C1    C     C_R   0.388681 0.706340 0.390170 0.562174
O3    O     O_R   0.264730 0.744140 0.416740 -0.508368
O4    O     O_R   0.309440 0.472410 0.418220 -0.517960
C2    C     C_R   0.388188 0.355355 0.386940 0.527876
O5    O     O_R   0.501630 0.260530 0.414310 -0.530388
O6    O     O_R   0.727920 0.305730 0.428950 -0.503250
C3    C     C_R   0.773875 0.381295 0.402195 0.536715
O7    O     O_R   0.738670 0.496020 0.588600 -0.528373
O8    O     O_R   0.467190 0.722540 0.578350 -0.507763
C4    C     C_R   0.348961 0.758737 0.607389 0.561751
O9    O     O_R   0.254720 0.742640 0.577370 -0.516844
O10   O     O_R   0.300170 0.471020 0.567120 -0.509747
C5    C     C_R   0.369041 0.349427 0.595209 0.552932
O11   O     O_R   0.491630 0.259030 0.574940 -0.524083
O12   O     O_R   0.718640 0.304340 0.577850 -0.504836
C6    C     C_R   0.757067 0.379704 0.612333 0.546618
Cr1   Cr    Cr6+3 0.601740 0.606840 0.505840 0.974362
Cr2   Cr    Cr6+3 0.291500 0.601560 0.495070 1.004715
Cr3   Cr    Cr6+3 0.606780 0.291630 0.499130 0.992850
O13   O     O_3   0.500010 0.500010 0.500020 -0.266803
C7    C     C_R   0.809524 0.011104 0.048336 -0.059504
C8    C     C_R   0.721587 0.155089 0.035063 -0.057760
C9    C     C_R   0.628109 0.243001 0.087247 -0.082045
C10   C     C_R   0.613483 0.185754 0.151504 0.044795
H1    H     H_    0.593351 0.211501 0.294481 0.136820
C11   C     C_R   0.350120 0.340684 0.162114 0.014812
C12   C     C_R   0.490389 0.268456 0.269186 -0.148674
C13   C     C_R   0.483814 0.269197 0.194947 -0.038163
C14   C     C_R   0.070898 0.469860 0.380891 -0.048078
C15   C     C_R   0.966720 0.565005 0.427128 -0.064758
C16   C     C_R   0.706510 0.041704 0.165664 -0.099922
C17   C     C_R   0.803028 0.954714 0.113903 -0.129448
C18   C     C_R   0.228636 0.426055 0.203017 -0.097337
C19   C     C_R   0.234089 0.425803 0.277294 0.014886
C20   C     C_R   0.882243 0.707643 0.408336 0.034735
C21   C     C_R   0.902240 0.752860 0.341805 -0.112435
C22   C     C_R   0.012187 0.659609 0.297442 -0.128596
C23   C     C_R   0.101685 0.518002 0.317914 0.052450
C24   C     C_R   0.367177 0.343382 0.310785 0.029966
H2    H     H_    0.872302 0.843388 0.124624 0.097070
H3    H     H_    0.952420 0.527298 0.477911 0.126940
H4    H     H_    0.882429 0.943393 0.007838 0.150181
H5    H     H_    0.722409 0.198612 0.983648 0.122567
H6    H     H_    0.558051 0.353601 0.074964 0.085620
H7    H     H_    0.134821 0.360688 0.397197 0.139963
H8    H     H_    0.702987 0.995276 0.215770 0.074989
H9    H     H_    0.125804 0.483742 0.177578 0.143599
H10   H     H_    0.835637 0.861389 0.325243 0.086382
H11   H     H_    0.030920 0.699991 0.248685 0.086053
C25   C     C_R   0.850620 0.337753 0.181401 0.042523
C26   C     C_R   0.861454 0.224968 0.221661 0.029083
C27   C     C_R   0.839665 0.238467 0.294092 0.000641
C28   C     C_R   0.783386 0.480385 0.287155 -0.131114
C29   C     C_R   0.800025 0.469178 0.213919 -0.151710
C30   C     C_3   0.977680 0.073816 0.230223 -0.216453
C31   C     C_3   0.951474 0.090637 0.309896 -0.264674
C32   C     C_R   0.812639 0.361370 0.328420 0.045583
H12   H     H_    0.749388 0.582242 0.311210 0.152480
H13   H     H_    0.784583 0.560198 0.184083 0.129935
H14   H     H_    0.082333 0.054203 0.215457 0.230085
H15   H     H_    0.954347 0.995812 0.206933 0.131412
H16   H     H_    0.906744 0.027898 0.331006 0.127398
H17   H     H_    0.040571 0.083132 0.341757 0.191246
C33   C     C_R   0.366450 0.815428 0.170064 0.015370
C34   C     C_R   0.439644 0.850277 0.219418 -0.008866
C35   C     C_R   0.463123 0.799995 0.288872 -0.031126
C36   C     C_R   0.332036 0.684708 0.264303 -0.159942
C37   C     C_R   0.321476 0.722676 0.192309 -0.165205
C38   C     C_3   0.421141 0.989069 0.243232 0.100845
C39   C     C_3   0.461056 0.926986 0.318315 -0.224690
C40   C     C_R   0.394151 0.731670 0.314163 0.022899
H18   H     H_    0.283552 0.627301 0.282151 0.130166
H19   H     H_    0.264746 0.691988 0.155929 0.124512
H20   H     H_    0.496843 0.012252 0.218225 0.115487
H21   H     H_    0.568389 0.902264 0.334499 0.088156
H22   H     H_    0.380813 0.979980 0.360642 0.191911
C41   C     C_R   0.277295 0.281594 0.803936 0.009336
C42   C     C_R   0.362408 0.166774 0.759983 0.001068
C43   C     C_R   0.379480 0.185460 0.688564 0.009669
C44   C     C_R   0.217019 0.435841 0.701195 -0.165395
C45   C     C_R   0.201295 0.416512 0.773426 -0.166321
C46   C     C_3   0.515654 0.059620 0.769093 -0.221720
C47   C     C_3   0.532308 0.073810 0.690331 -0.252805
C48   C     C_R   0.314506 0.321359 0.659421 0.015322
H23   H     H_    0.164789 0.542567 0.680580 0.144627
H24   H     H_    0.139154 0.508517 0.806149 0.188486
H25   H     H_    0.536591 0.954221 0.783904 0.147552
H26   H     H_    0.572539 0.098722 0.802643 0.184003
H27   H     H_    0.604975 0.113014 0.679742 0.164473
H28   H     H_    0.553698 0.978946 0.659037 0.128633
C49   C     C_R   0.798290 0.345603 0.839049 0.010490
C50   C     C_R   0.768883 0.468895 0.802015 0.015554
C51   C     C_R   0.763424 0.472168 0.728924 0.029574
C52   C     C_R   0.777676 0.247686 0.725826 -0.162468
C53   C     C_R   0.784857 0.242477 0.801120 -0.170452
C54   C     C_3   0.839813 0.555344 0.802056 -0.227671
C55   C     C_3   0.836396 0.553828 0.721560 -0.267350
C56   C     C_R   0.779504 0.358362 0.689082 0.016976
H29   H     H_    0.778092 0.162654 0.696662 0.132185
H30   H     H_    0.793574 0.152167 0.828670 0.155206
H31   H     H_    0.948346 0.498290 0.823093 0.182570
H32   H     H_    0.772753 0.662166 0.825154 0.171273
H33   H     H_    0.770849 0.659997 0.697668 0.146776
H34   H     H_    0.941977 0.489755 0.697107 0.141301
C57   C     C_R   0.316437 0.810245 0.833022 0.005492
C58   C     C_R   0.216251 0.795427 0.793462 0.058130
C59   C     C_R   0.226802 0.781635 0.720121 -0.023778
C60   C     C_R   0.449473 0.771007 0.724683 -0.153947
C61   C     C_R   0.441760 0.779042 0.799265 -0.160873
C62   C     C_3   0.059320 0.889013 0.788875 0.110052
C63   C     C_3   0.071835 0.871283 0.708244 -0.253586
C64   C     C_R   0.335963 0.783712 0.684004 0.009289
H35   H     H_    0.540810 0.760980 0.698731 0.132700
H36   H     H_    0.526673 0.776219 0.829854 0.126703
H37   H     H_    0.022928 0.997567 0.807527 0.115959
H38   H     H_    0.026062 0.809926 0.685292 0.160564
H39   H     H_    0.042449 0.970766 0.679419 0.105955
O14   O     O_R   0.186620 0.923750 0.087000 -0.525388
O15   O     O_R   0.957350 0.194160 0.084660 -0.490464
C65   C     C_R   0.912421 0.314604 0.111945 0.584636
O16   O     O_R   0.935120 0.407280 0.085350 -0.520152
O17   O     O_R   0.203800 0.365060 0.067090 -0.491198
C66   C     C_R   0.328089 0.297212 0.091463 0.589483
O18   O     O_R   0.417470 0.174910 0.067830 -0.485247
O19   O     O_R   0.375160 0.946380 0.070880 -0.476467
C67   C     C_R   0.309934 0.894611 0.103979 0.581209
O20   O     O_R   0.160500 0.919670 0.926690 -0.491046
O21   O     O_R   0.933140 0.190380 0.936050 -0.527629
C68   C     C_R   0.877348 0.312828 0.906319 0.514383
O22   O     O_R   0.909010 0.403210 0.925030 -0.530897
O23   O     O_R   0.179590 0.361290 0.918480 -0.497984
C69   C     C_R   0.270815 0.256732 0.879656 0.550528
O24   O     O_R   0.391360 0.170840 0.907510 -0.520761
O25   O     O_R   0.350950 0.942600 0.922260 -0.529441
C70   C     C_R   0.277697 0.889256 0.899620 0.529669
Cr4   Cr    Cr6+3 0.062440 0.063060 0.008240 1.025551
Cr5   Cr    Cr6+3 0.062950 0.375000 0.998920 1.048983
Cr6   Cr    Cr6+3 0.374550 0.061770 0.992470 1.044223
O26   O     O_3   0.166650 0.166610 0.999880 -0.254215
C71   C     C_3   0.771496 0.810624 0.459031 -0.283409
C72   C     C_3   0.838058 0.829854 0.526922 -0.425171
H40   H     H_    0.754393 0.911719 0.561210 0.135791
H41   H     H_    0.893915 0.729769 0.557786 0.136232
H42   H     H_    0.913799 0.864412 0.513210 0.163576
H43   H     H_    0.706965 0.915668 0.433308 0.138107
H44   H     H_    0.699295 0.772126 0.473392 0.177776
N1    N     N_R   0.275124 0.106327 0.237483 0.049603
O27   O     O_R   0.202681 0.171338 0.293922 -0.420725
O28   O     O_R   0.220895 0.156481 0.175052 -0.348401
N2    N     N_R   0.983945 0.825547 0.820771 0.065937
O29   O     O_R   0.031702 0.750828 0.878914 -0.356545
O30   O     O_R   0.856345 0.865856 0.799376 -0.422333

loop_
_geom_bond_atom_site_label_1
_geom_bond_atom_site_label_2
_geom_bond_distance
_ccdc_geom_bond_type
C72   H42   1.111826 S    
C22   H11   1.082983 S    
C28   C29   1.380620 A    
C49   C50   1.408628 A    
C28   C32   1.411169 A    
H1    C12   1.083219 S    
O17   Cr5   1.960091 S    
C18   C19   1.390321 A    
C17   H2    1.082602 S    
O25   Cr6   1.960095 S    
O23   C69   1.300390 A    
C47   H27   1.105990 S    
C30   H14   1.097869 S    
O4    Cr2   1.957001 S    
C33   C37   1.409069 A    
C26   C27   1.372487 A    
C58   C59   1.379237 A    
O22   Cr5   2.076509 S    
O8    Cr1   1.938996 S    
C20   C21   1.402816 A    
C6    C56   1.454432 S    
O4    C2    1.272934 A    
Cr3   O13   1.974860 S    
N1    O28   1.297418 A    
C62   H37   1.105492 S    
C51   C55   1.488194 S    
C50   C54   1.508616 S    
C72   H40   1.110629 S    
O16   Cr5   2.062124 S    
C14   C23   1.407198 A    
C41   C69   1.453233 S    
C60   C61   1.398346 A    
C39   H22   1.110330 S    
C31   H17   1.110875 S    
C39   H21   1.109945 S    
C63   H39   1.111934 S    
C25   C65   1.433073 S    
O20   Cr4   2.063875 S    
C11   C18   1.411580 A    
O6    C3    1.279540 A    
C2    C24   1.457568 S    
C18   H9    1.083734 S    
C57   C58   1.400733 A    
C62   N2    1.462545 S    
C8    C9    1.394947 A    
C36   C40   1.396979 A    
C61   H36   1.079619 S    
C60   C64   1.403582 A    
C43   C48   1.399306 A    
C59   C63   1.489795 S    
C45   H24   1.079685 S    
C14   H7    1.082260 S    
C28   H12   1.082396 S    
C19   C24   1.414501 A    
C36   C37   1.398200 A    
C46   H26   1.112781 S    
C62   C63   1.518675 S    
C16   C17   1.399894 A    
C47   H28   1.111730 S    
C30   H15   1.101689 S    
C4    C64   1.452845 S    
C27   C32   1.384970 A    
C31   H16   1.108751 S    
O24   Cr6   2.062001 S    
C55   H33   1.107693 S    
O1    Cr1   2.058157 S    
C20   C71   1.509040 S    
C42   C46   1.497104 S    
O10   Cr2   1.940879 S    
C19   C23   1.497477 S    
Cr1   O13   1.998534 S    
O1    C3    1.258038 A    
Cr6   O26   1.978310 S    
C22   C23   1.408183 A    
C26   C30   1.504668 S    
C51   C56   1.387683 A    
C42   C43   1.381785 A    
C9    C10   1.407883 A    
C44   C48   1.407661 A    
C44   C45   1.394894 A    
O12   Cr3   1.962285 S    
C7    H4    1.082389 S    
C34   C35   1.384261 A    
C3    C32   1.431146 S    
C21   C22   1.398288 A    
O15   Cr4   1.943853 S    
C57   C70   1.453781 S    
C12   C13   1.389975 A    
C71   H44   1.110841 S    
C10   C16   1.407067 A    
O21   C68   1.288958 A    
C14   C15   1.396155 A    
O10   C5    1.268403 A    
O7    Cr1   2.064702 S    
C35   C39   1.490190 S    
C7    C17   1.396004 A    
O18   Cr6   2.082606 S    
C52   C53   1.409920 A    
O12   C6    1.277891 A    
C1    O3    1.310902 A    
C36   H18   1.070537 S    
C15   C20   1.402471 A    
C46   C47   1.505128 S    
O15   C65   1.262776 A    
C69   O24   1.282008 A    
C59   C64   1.395690 A    
C5    C48   1.451034 S    
N2    O30   1.300504 A    
C68   O22   1.258439 A    
O23   Cr5   1.943155 S    
C66   O18   1.277150 A    
C44   H23   1.082663 S    
C41   C42   1.397007 A    
O14   Cr4   2.059765 S    
O19   Cr6   1.942619 S    
C8    H5    1.078703 S    
O19   C67   1.286103 A    
O21   Cr4   1.941021 S    
C49   C53   1.406274 A    
C38   H20   1.097966 S    
C11   C66   1.463699 S    
C27   C31   1.486760 S    
O5    Cr3   2.084641 S    
C72   H41   1.111356 S    
C55   H34   1.109964 S    
O9    Cr2   2.073068 S    
C12   C24   1.415327 A    
O2    Cr1   1.943888 S    
C71   C72   1.528307 S    
C57   C61   1.398489 A    
C71   H43   1.111830 S    
C53   H30   1.081720 S    
Cr2   O13   1.980222 S    
O25   C70   1.285110 A    
Cr4   O26   1.995919 S    
O6    Cr3   1.943131 S    
C60   H35   1.075542 S    
O8    C4    1.278416 A    
O14   C67   1.265161 A    
O11   Cr3   2.062199 S    
C10   C13   1.491518 S    
C2    O5    1.256746 A    
C21   H10   1.081063 S    
C11   C13   1.405441 A    
O2    C1    1.300414 A    
C35   C40   1.400136 A    
C38   C39   1.524764 S    
C49   C68   1.462011 S    
N1    O27   1.300543 A    
C41   C45   1.402107 A    
Cr5   O26   1.975106 S    
C30   C31   1.513389 S    
C38   N1    1.466557 S    
C25   C29   1.397143 A    
O7    C6    1.271861 A    
C54   H32   1.110193 S    
C5    O11   1.263566 A    
C52   C56   1.410982 A    
C15   H3    1.082898 S    
C33   C67   1.455709 S    
C33   C34   1.396380 A    
C34   C38   1.501429 S    
C50   C51   1.368021 A    
C1    C40   1.457917 S    
C7    C8    1.395993 A    
C63   H38   1.111953 S    
O3    Cr2   2.059105 S    
C58   C62   1.498082 S    
O20   C70   1.267803 A    
C4    O9    1.265868 A    
C54   C55   1.506314 S    
C46   H25   1.098150 S    
C37   H19   1.083609 S    
C16   H8    1.080123 S    
C29   H13   1.083751 S    
N2    O29   1.301371 A    
C65   O16   1.272190 A    
C52   H29   1.079703 S    
C9    H6    1.083383 S    
C43   C47   1.496821 S    
C54   H31   1.099585 S    
C25   C26   1.406949 A    
O17   C66   1.261898 A    
