data_mof_unit_35362.cif
_audit_creation_date              2012-12-10T18:57:50-0500
_audit_creation_method            fapswitch 2.2
_symmetry_space_group_name_H-M    P1
_symmetry_Int_Tables_number       1
_space_group_crystal_system       triclinic
_cell_length_a                    10.653818
_cell_length_b                    10.021099
_cell_length_c                    8.869128
_cell_angle_alpha                 89.805022
_cell_angle_beta                  90.464172
_cell_angle_gamma                 89.124414
_cell_volume                      946.746877921

loop_
_atom_site_label
_atom_site_type_symbol
_atom_type_description
_atom_site_fract_x
_atom_site_fract_y
_atom_site_fract_z
_atom_type_partial_charge
C1    C     C_R   0.260601 0.501348 0.500479 0.999478
C2    C     C_R   0.061177 0.593142 0.408700 0.353466
C3    C     C_R   0.871602 0.495947 0.497774 -0.391954
C4    C     C_R   0.127664 0.504835 0.504360 -0.402335
C5    C     C_R   0.487317 0.068512 0.630168 0.172264
C6    C     C_R   0.491941 0.931882 0.368898 0.176118
C7    C     C_R   0.518145 0.070237 0.370742 0.156004
C8    C     C_R   0.513776 0.929373 0.630179 0.153025
C9    C     C_3   0.143835 0.423672 0.843626 -0.197005
C10   C     C_3   0.852629 0.588429 0.160578 -0.191712
C11   C     C_3   0.882249 0.197325 0.651234 -0.148394
C12   C     C_R   0.739119 0.498793 0.500237 1.010819
C13   C     C_3   0.107233 0.812294 0.381468 -0.144040
C14   C     C_R   0.499932 0.500128 0.219295 0.919144
C15   C     C_R   0.500179 0.499857 0.780705 0.924259
C16   C     C_1   0.500085 0.500151 0.065587 -0.132020
C17   C     C_1   0.500189 0.499784 0.934406 -0.128672
C18   C     C_R   0.066824 0.419578 0.604893 0.365528
C19   C     C_R   0.932163 0.582026 0.398440 0.354897
C20   C     C_R   0.937272 0.410810 0.597365 0.350405
H1    H     H_    0.197618 0.516210 0.822782 0.129357
H2    H     H_    0.150644 0.886331 0.305929 0.189334
H3    H     H_    0.154712 0.818499 0.493373 0.149701
H4    H     H_    0.006800 0.842401 0.391977 0.177936
H5    H     H_    0.195660 0.364786 0.930680 0.199581
H6    H     H_    0.049809 0.448968 0.890245 0.165832
H7    H     H_    0.796531 0.649755 0.079504 0.206320
H8    H     H_    0.801971 0.493293 0.177949 0.131958
H9    H     H_    0.945921 0.568445 0.109143 0.163909
H10   H     H_    0.851447 0.185370 0.531759 0.150113
H11   H     H_    0.818913 0.136942 0.721882 0.195340
H12   H     H_    0.978998 0.156354 0.666833 0.187670
I1    I     I_    0.393654 0.138416 0.825120 -0.212913
I2    I     I_    0.407609 0.865113 0.165608 -0.223063
I3    I     I_    0.629935 0.140602 0.190244 -0.256895
I4    I     I_    0.626279 0.858388 0.813126 -0.275603
N1    N     N_R   0.500000 0.857200 0.500000 -0.152361
N2    N     N_R   0.500000 0.142800 0.500000 -0.156418
O1    O     O_R   0.316770 0.614620 0.499990 -0.601997
O2    O     O_3   0.864737 0.660203 0.296236 -0.570275
O3    O     O_3   0.873671 0.331458 0.698713 -0.586585
O4    O     O_3   0.122631 0.683752 0.318286 -0.572022
O5    O     O_R   0.683230 0.385380 0.500010 -0.603324
O6    O     O_R   0.683230 0.614620 0.500010 -0.571857
O7    O     O_R   0.316770 0.385380 0.499990 -0.579006
O8    O     O_R   0.500010 0.614640 0.285340 -0.577177
O9    O     O_R   0.499990 0.385360 0.714660 -0.578556
O10   O     O_R   0.499990 0.614640 0.714660 -0.603968
O11   O     O_R   0.500010 0.385360 0.285340 -0.604260
O12   O     O_3   0.133802 0.346143 0.711655 -0.568654
Zn1   Zn    Zn3+2 0.500000 0.653120 0.500000 1.026801
Zn2   Zn    Zn3+2 0.500000 0.346880 0.500000 1.021806

loop_
_geom_bond_atom_site_label_1
_geom_bond_atom_site_label_2
_ccdc_geom_bond_type
C10   H7    S    
C9    H6    S    
C5    C8    A    
O1    Zn1   S    
C3    C19   A    
O9    Zn2   S    
C2    C4    A    
C18   O12   S    
C15   O9    A    
O11   Zn2   S    
C9    H1    S    
C1    C4    S    
C20   O3    S    
C6    N1    A    
C9    H5    S    
C3    C20   A    
C14   O8    A    
C5    N2    A    
C10   H9    S    
C1    O7    A    
C6    C7    A    
C13   H2    S    
C15   O10   A    
C2    O4    S    
O8    Zn1   S    
O6    Zn1   S    
C13   O4    S    
C13   H4    S    
C7    N2    A    
C11   H12   S    
C11   O3    S    
C12   O5    A    
C18   C20   A    
C8    I4    S    
N1    Zn1   S    
C14   C16   S    
O5    Zn2   S    
C14   O11   A    
N2    Zn2   S    
C19   O2    S    
C1    O1    A    
C11   H11   S    
C13   H3    S    
C10   O2    S    
C8    N1    A    
C10   H8    S    
C15   C17   S    
C12   O6    A    
C3    C12   S    
O7    Zn2   S    
C2    C19   A    
C7    I3    S    
C4    C18   A    
O10   Zn1   S    
C9    O12   S    
C6    I2    S    
C11   H10   S    
C16   C17   T    
C5    I1    S    
