data_mof_unit_32207.cif
_audit_creation_date              2013-03-05T16:02:48-0500
_audit_creation_method            fapswitch 2.2
_symmetry_space_group_name_H-M    P1
_symmetry_Int_Tables_number       1
_space_group_crystal_system       triclinic
_cell_length_a                    23.556023
_cell_length_b                    11.816676
_cell_length_c                    10.458329
_cell_angle_alpha                 89.929315
_cell_angle_beta                  89.997686
_cell_angle_gamma                 89.998633
_cell_volume                      2911.11435867

loop_
_atom_site_label
_atom_site_type_symbol
_atom_site_description
_atom_site_fract_x
_atom_site_fract_y
_atom_site_fract_z
_atom_type_partial_charge
O1    O     O_R   0.500000 0.337200 0.605810 -0.564405
O2    O     O_R   0.500000 0.662800 0.394190 -0.564401
O3    O     O_R   0.500000 0.662800 0.605810 -0.566148
O4    O     O_R   0.500000 0.337200 0.394190 -0.566151
C1    C     C_R   0.500003 0.283191 0.500061 0.829900
C2    C     C_R   0.500003 0.716809 0.499939 0.829912
O5    O     O_R   0.417880 0.500000 0.605840 -0.575946
O6    O     O_R   0.582120 0.500000 0.394160 -0.573610
O7    O     O_R   0.582120 0.500000 0.605840 -0.573603
O8    O     O_R   0.417880 0.500000 0.394160 -0.575944
C3    C     C_R   0.390546 0.500001 0.500002 0.853836
C4    C     C_R   0.609378 0.499994 0.499997 0.853490
Cu1   Cu    Cu3+1 0.500000 0.500000 0.625300 1.023721
Cu2   Cu    Cu3+1 0.500000 0.500000 0.374700 1.023718
C5    C     C_R   0.880174 0.598470 0.476364 0.718431
C6    C     C_R   0.119500 0.400252 0.517587 0.712057
C7    C     C_R   0.880174 0.401321 0.523515 0.718472
C8    C     C_R   0.119497 0.599526 0.482297 0.711758
N1    N     N_R   0.851976 0.499899 0.499947 -0.452391
N2    N     N_R   0.147662 0.499892 0.499960 -0.448595
C9    C     C_R   0.939907 0.397301 0.515548 -0.142709
C10   C     C_R   0.059770 0.601012 0.473068 -0.152653
C11   C     C_R   0.939907 0.602483 0.484317 -0.142697
C12   C     C_R   0.059770 0.398762 0.526789 -0.152666
C13   C     C_R   0.969861 0.499890 0.499930 -0.079827
C14   C     C_R   0.029866 0.499887 0.499928 -0.080058
C15   C     C_R   0.970568 0.295206 0.527590 0.259887
C16   C     C_R   0.028908 0.700701 0.444270 0.295297
C17   C     C_R   0.970568 0.704575 0.472269 0.259865
C18   C     C_R   0.028909 0.299074 0.555584 0.295326
O9    O     O_2   0.850275 0.690421 0.440343 -0.424061
O10   O     O_2   0.149517 0.303203 0.520851 -0.431331
O11   O     O_2   0.850274 0.309373 0.559538 -0.424057
O12   O     O_2   0.149510 0.696579 0.479039 -0.431369
C19   C     C_R   0.238613 0.509171 0.383062 0.334167
C20   C     C_R   0.761067 0.462634 0.390314 0.339667
C21   C     C_R   0.238603 0.490696 0.616952 0.334051
C22   C     C_R   0.761079 0.537211 0.609622 0.339674
C23   C     C_R   0.298045 0.510055 0.384859 -0.240347
C24   C     C_R   0.701618 0.463303 0.392039 -0.236859
C25   C     C_R   0.298039 0.489894 0.615151 -0.240420
C26   C     C_R   0.701630 0.536600 0.607923 -0.236839
H1    H     H_    0.321014 0.517119 0.295484 0.208585
H2    H     H_    0.678433 0.435130 0.308487 0.206275
H3    H     H_    0.321011 0.482868 0.704522 0.208647
H4    H     H_    0.678455 0.564798 0.691485 0.206260
C27   C     C_R   0.327997 0.499986 0.500005 -0.160026
C28   C     C_R   0.671785 0.499968 0.499987 -0.157779
C29   C     C_R   0.208641 0.499902 0.499995 0.104562
C30   C     C_R   0.791039 0.499908 0.499963 0.100760
C31   C     C_1   0.500008 0.161764 0.500146 -0.140291
C32   C     C_1   0.500008 0.838236 0.499854 -0.140290
C33   C     C_1   0.500010 0.059742 0.500073 0.043848
C34   C     C_1   0.500010 0.940258 0.499927 0.043850
N3    N     N_1   0.500000 0.500000 0.186410 -0.136788
N4    N     N_1   0.500000 0.500000 0.813590 -0.136786
C35   C     C_1   0.499999 0.500000 0.072033 0.128883
C36   C     C_1   0.499999 0.500000 0.927967 0.128886
S1    S     S_3+6 0.941582 0.166225 0.470479 0.184353
O13   O     O_2   0.912765 0.104740 0.578230 -0.079005
O14   O     O_2   0.898961 0.188392 0.366347 -0.203499
O15   O     O_3   0.993639 0.085467 0.409704 -0.386620
H5    H     H_    0.009282 0.129933 0.337494 0.346187
S2    S     S_3+6 0.058390 0.809295 0.346280 0.142901
O16   O     O_2   0.088726 0.894584 0.427841 -0.148845
O17   O     O_2   0.099727 0.758357 0.253073 -0.203413
O18   O     O_3   0.006907 0.874338 0.262631 -0.438473
H6    H     H_    0.027016 0.929005 0.206845 0.387169
S3    S     S_3+6 0.941581 0.833559 0.529387 0.184361
O19   O     O_2   0.912767 0.895050 0.421639 -0.079017
O20   O     O_2   0.898959 0.811394 0.633522 -0.203462
O21   O     O_3   0.993637 0.914312 0.590160 -0.386611
H7    H     H_    0.009303 0.869816 0.662315 0.346172
S4    S     S_3+6 0.058388 0.190477 0.653573 0.142914
O22   O     O_2   0.088731 0.105191 0.572012 -0.148847
O23   O     O_2   0.099717 0.241410 0.746787 -0.203420
O24   O     O_3   0.006902 0.125432 0.737215 -0.438448
H8    H     H_    0.027010 0.070767 0.793004 0.387174
N5    N     N_R   0.209457 0.517268 0.262210 0.167408
O25   O     O_R   0.160948 0.466985 0.244478 -0.290076
O26   O     O_R   0.233729 0.566775 0.165314 -0.264342
N6    N     N_R   0.790108 0.423787 0.277124 0.166934
O27   O     O_R   0.840048 0.462413 0.246801 -0.287161
O28   O     O_R   0.764709 0.355673 0.197888 -0.275898
N7    N     N_R   0.209446 0.482601 0.737827 0.167552
O29   O     O_R   0.160790 0.532342 0.755379 -0.290157
O30   O     O_R   0.233821 0.433566 0.834900 -0.264479
N8    N     N_R   0.790133 0.576044 0.722790 0.166906
O31   O     O_R   0.840055 0.537341 0.753130 -0.287154
O32   O     O_R   0.764771 0.644264 0.801970 -0.275840

loop_
_geom_bond_atom_site_label_1
_geom_bond_atom_site_label_2
_geom_bond_distance
_ccdc_geom_bond_type
C3    C27   1.473410 S    
C4    C28   1.470049 S    
O3    C2    1.277312 A    
O24   H8    0.990520 S    
O5    C3    1.280557 A    
O15   H5    0.990550 S    
S4    O23   1.503987 D    
O1    C1    1.277579 A    
C11   C17   1.411576 A    
C21   N7    1.441729 S    
C16   C17   1.405861 A    
C12   C14   1.415006 A    
C22   C26   1.400524 A    
C19   C23   1.400141 A    
C18   S4    1.782120 S    
C26   H4    1.083248 S    
S3    O20   1.503979 D    
O7    Cu1   1.945089 S    
C33   C34   1.411914 S    
C20   N6    1.442661 S    
S4    O24   1.680817 S    
C19   C29   1.416193 A    
O3    Cu1   1.934273 S    
C6    N2    1.363760 A    
Cu1   N4    1.969200 S    
C5    C11   1.410335 A    
Cu2   N3    1.969199 S    
C9    C15   1.411583 A    
S1    O13   1.502174 D    
C6    C12   1.410378 A    
C10   C16   1.416324 A    
Cu1   Cu2   2.620857 S    
C15   C18   1.405869 A    
C21   C25   1.400238 A    
O2    C2    1.277579 A    
C7    O11   1.348164 S    
C32   C34   1.205560 T    
C17   S3    1.774340 S    
N7    O30   1.301802 A    
S1    O14   1.503981 D    
S4    O22   1.502052 D    
O18   H6    0.990517 S    
S2    O18   1.680830 S    
C20   C24   1.400529 A    
O8    Cu2   1.945091 S    
N5    O26   1.301753 A    
O4    C1    1.277312 A    
C23   H1    1.083130 S    
C13   C14   1.413484 A    
N7    O29   1.301175 A    
C7    C9    1.410348 A    
C22   N8    1.442629 S    
C31   C33   1.205559 T    
S2    O17   1.503989 D    
S3    O21   1.679213 S    
C5    N1    1.363122 A    
N2    C29   1.436435 S    
C21   C29   1.416280 A    
O5    Cu1   1.945108 S    
O6    C4    1.279658 A    
C25   C27   1.400710 A    
C26   C28   1.398990 A    
C8    O12   1.347657 S    
C16   S2    1.782116 S    
N8    O32   1.301577 A    
N6    O28   1.301621 A    
N3    C35   1.196189 T    
O1    Cu1   1.934773 S    
C20   C30   1.417329 A    
C23   C27   1.400666 A    
C24   C28   1.399004 A    
C9    C13   1.411964 A    
S1    O15   1.679220 S    
O6    Cu2   1.945105 S    
C8    C10   1.410363 A    
O21   H7    0.990508 S    
C5    O9    1.348167 S    
C22   C30   1.417324 A    
C6    O10   1.347655 S    
S2    O16   1.502052 D    
C15   S1    1.774330 S    
N1    C30   1.435422 S    
C35   C36   1.506695 S    
C19   N5    1.441557 S    
C7    N1    1.363127 A    
N4    C36   1.196189 T    
C8    N2    1.363764 A    
C11   C13   1.411970 A    
O4    Cu2   1.934273 S    
S3    O19   1.502175 D    
O2    Cu2   1.934774 S    
O7    C4    1.279668 A    
C12   C18   1.416328 A    
O8    C3    1.280553 A    
N5    O25   1.301325 A    
C24   H2    1.083243 S    
N8    O31   1.300903 A    
N6    O27   1.300939 A    
C10   C14   1.414998 A    
C25   H3    1.083118 S    
C1    C31   1.434857 S    
C2    C32   1.434857 S    
