data_mof_unit_50092.cif
_audit_creation_date              2012-12-11T14:30:18-0500
_audit_creation_method            fapswitch 2.2
_symmetry_space_group_name_H-M    P1
_symmetry_Int_Tables_number       1
_space_group_crystal_system       triclinic
_cell_length_a                    12.861887
_cell_length_b                    12.876975
_cell_length_c                    27.087019
_cell_angle_alpha                 90.088609
_cell_angle_beta                  90.123699
_cell_angle_gamma                 120.062745
_cell_volume                      3882.68749915

loop_
_atom_site_label
_atom_site_type_symbol
_atom_type_description
_atom_site_fract_x
_atom_site_fract_y
_atom_site_fract_z
_atom_type_partial_charge
C1    C     C_R   0.557598 0.455512 0.821483 0.533048
C2    C     C_R   0.455565 0.560974 0.177163 0.528537
C3    C     C_R   0.890736 0.286302 0.461833 0.172920
C4    C     C_R   0.274913 0.885718 0.011552 0.153718
C5    C     C_R   0.717260 0.600238 0.461895 0.146898
C6    C     C_R   0.417888 0.144790 0.512303 0.145521
C7    C     C_R   0.130459 0.416234 0.961521 0.164759
C8    C     C_R   0.729591 0.607392 0.512945 0.143473
C9    C     C_R   0.286917 0.885743 0.960362 0.105121
C10   C     C_R   0.892548 0.274308 0.512802 0.158945
C11   C     C_R   0.598791 0.716633 0.960271 0.122010
C12   C     C_R   0.442115 0.897210 0.321904 0.570039
C13   C     C_R   0.102977 0.542164 0.177573 0.526058
C14   C     C_R   0.007511 0.510662 0.971731 -0.036207
C15   C     C_R   0.511907 0.022677 0.523095 -0.041957
C16   C     C_R   0.497469 0.498750 0.971533 -0.043817
C17   C     C_R   0.992114 0.490198 0.524326 0.000289
C18   C     C_R   0.505343 0.000916 0.971706 -0.046178
C19   C     C_R   0.513022 0.505447 0.524092 -0.026056
C20   C     C_R   0.513350 0.011065 0.471261 -0.016547
C21   C     C_R   0.897214 0.440261 0.677823 0.549051
C22   C     C_R   0.019123 0.508755 0.023570 -0.016756
C23   C     C_R   0.499104 0.505420 0.472416 -0.005681
C24   C     C_R   0.490798 0.985514 0.023265 -0.029778
C25   C     C_R   0.004058 0.504553 0.472658 -0.024237
C26   C     C_R   0.497934 0.513141 0.023099 -0.027084
C27   C     C_R   0.883415 0.603284 0.982936 0.137621
C28   C     C_R   0.612595 0.906192 0.533816 0.108756
C29   C     C_R   0.404469 0.282635 0.983209 0.170545
C30   C     C_R   0.117384 0.706458 0.536529 0.118227
C31   C     C_R   0.721256 0.132333 0.984909 0.094967
C32   C     C_R   0.544924 0.102500 0.821550 0.535901
C33   C     C_R   0.297305 0.421128 0.535872 0.170643
C34   C     C_R   0.614020 0.894316 0.482029 0.132295
C35   C     C_R   0.898263 0.605263 0.034403 0.097638
C36   C     C_R   0.282932 0.419115 0.484579 0.164987
C37   C     C_R   0.706231 0.111745 0.036068 0.144908
C38   C     C_R   0.132275 0.721718 0.484630 0.141812
C39   C     C_R   0.406930 0.296690 0.034726 0.129088
C40   C     C_R   0.908119 0.538672 0.901473 -0.139955
C41   C     C_R   0.571128 0.994997 0.605752 -0.159680
C42   C     C_R   0.465830 0.370109 0.901476 -0.137061
C43   C     C_R   0.560278 0.455971 0.677447 0.534556
C44   C     C_R   0.020596 0.575057 0.607550 -0.159655
C45   C     C_R   0.632315 0.102796 0.902171 -0.156182
C46   C     C_R   0.428228 0.451907 0.607417 -0.185099
C47   C     C_R   0.547404 0.917461 0.400562 -0.146237
C48   C     C_R   0.995761 0.572105 0.105930 -0.143384
C49   C     C_R   0.370861 0.471172 0.401957 -0.162448
C50   C     C_R   0.574531 0.012916 0.106696 -0.123841
C51   C     C_R   0.101035 0.631788 0.402457 -0.148693
C52   C     C_R   0.445432 0.428604 0.106465 -0.188399
C53   C     C_R   0.053344 0.515102 0.126461 0.001224
C54   C     C_R   0.897909 0.442543 0.821692 0.532464
C55   C     C_R   0.485003 0.956017 0.370291 0.020332
C56   C     C_R   0.473944 0.541044 0.124793 -0.011712
C57   C     C_R   0.049075 0.531851 0.370910 -0.016323
C58   C     C_R   0.459583 0.937311 0.125372 -0.016492
C59   C     C_R   0.470367 0.519193 0.370648 0.006157
C60   C     C_R   0.515795 0.054513 0.626217 0.000631
C61   C     C_R   0.954615 0.484893 0.870418 -0.016876
C62   C     C_R   0.539857 0.475535 0.625338 0.003076
C63   C     C_R   0.532523 0.049682 0.870521 0.013728
C64   C     C_R   0.940524 0.461413 0.626026 0.022631
C65   C     C_R   0.542457 0.103524 0.677405 0.550471
C66   C     C_R   0.517063 0.469816 0.870186 -0.024758
C67   C     C_R   0.935055 0.553714 0.951846 0.020234
C68   C     C_R   0.562938 0.971707 0.554488 0.018153
C69   C     C_R   0.453677 0.383059 0.951928 0.042686
C70   C     C_R   0.045840 0.590993 0.556382 0.029310
C71   C     C_R   0.620821 0.077545 0.952682 -0.022180
C72   C     C_R   0.412368 0.462165 0.556256 -0.004905
C73   C     C_R   0.560296 0.942336 0.451134 0.045482
C74   C     C_R   0.969026 0.560832 0.055013 0.012424
C75   C     C_R   0.383385 0.463195 0.452809 0.008154
C76   C     C_R   0.455842 0.557684 0.321474 0.538396
C77   C     C_R   0.591262 0.037257 0.055561 0.060264
C78   C     C_R   0.077117 0.620269 0.453131 0.025337
C79   C     C_R   0.452946 0.412344 0.055207 0.005064
C80   C     C_R   0.042319 0.459927 0.888236 0.080662
C81   C     C_R   0.441276 0.079461 0.595164 0.085291
C82   C     C_R   0.543632 0.582673 0.888012 0.118947
C83   C     C_R   0.892474 0.361318 0.593909 0.091785
C84   C     C_R   0.421028 0.960284 0.887965 0.108735
C85   C     C_R   0.638631 0.519715 0.592603 0.084380
C86   C     C_R   0.450190 0.035879 0.388603 0.098317
C87   C     C_R   0.439180 0.895684 0.177412 0.519590
C88   C     C_R   0.073919 0.436853 0.095855 0.083599
C89   C     C_R   0.583334 0.546064 0.388770 0.091416
C90   C     C_R   0.359601 0.890553 0.092565 0.120211
C91   C     C_R   0.961089 0.419873 0.388890 0.074106
C92   C     C_R   0.519374 0.640052 0.092103 0.104139
C93   C     C_R   0.064047 0.465186 0.939895 0.035489
C94   C     C_R   0.454995 0.081319 0.543668 0.008682
C95   C     C_R   0.542576 0.600089 0.939568 0.066553
C96   C     C_R   0.926647 0.374339 0.544040 0.024066
C97   C     C_R   0.403480 0.943297 0.939428 0.052307
C98   C     C_R   0.102396 0.544808 0.321699 0.536660
C99   C     C_R   0.627816 0.545852 0.543577 0.023670
C100  C     C_R   0.466358 0.066584 0.439668 0.008650
C101  C     C_R   0.074652 0.448529 0.044152 0.035213
C102  C     C_R   0.600818 0.546810 0.440430 0.038846
C103  C     C_R   0.374858 0.921008 0.042648 0.082887
C104  C     C_R   0.945689 0.402538 0.440592 0.033624
C105  C     C_R   0.541620 0.628490 0.042555 0.071079
C106  C     C_R   0.129353 0.401807 0.012477 0.159154
C107  C     C_R   0.431665 0.144708 0.461387 0.136239
C108  C     C_R   0.603340 0.730768 0.011992 0.126831
Cr1   Cr    Cr6+3 0.487630 0.241180 0.750000 1.004945
Cr2   Cr    Cr6+3 0.753550 0.512370 0.750000 1.009457
Cr3   Cr    Cr6+3 0.758820 0.246450 0.750000 1.018802
Cr4   Cr    Cr6+3 0.241180 0.487630 0.250000 0.996665
Cr5   Cr    Cr6+3 0.512370 0.753550 0.250000 1.004420
Cr6   Cr    Cr6+3 0.246450 0.758820 0.250000 1.015552
H1    H     H_    0.972358 0.624458 0.129933 0.119494
H2    H     H_    0.718239 0.168844 0.887250 0.144155
H3    H     H_    0.057093 0.650783 0.632686 0.151971
H4    H     H_    0.442755 0.282753 0.886838 0.181607
H5    H     H_    0.910144 0.731392 0.082894 0.235536
H6    H     H_    0.788090 0.592002 0.090636 0.236723
H7    H     H_    0.761151 0.878758 0.470548 0.258784
H8    H     H_    0.629245 0.748206 0.475486 0.231566
H9    H     H_    0.285674 0.184933 0.085076 0.233994
H10   H     H_    0.424728 0.199544 0.089675 0.232523
H11   H     H_    0.245593 0.905749 0.489219 0.236337
H12   H     H_    0.576132 0.858088 0.385349 0.181430
H13   H     H_    0.139345 0.858537 0.445655 0.238268
H14   H     H_    0.844767 0.260600 0.065298 0.261199
H15   H     H_    0.871738 0.145505 0.056858 0.261007
H16   H     H_    0.162310 0.437442 0.444609 0.218653
H17   H     H_    0.146070 0.298227 0.442093 0.228989
H18   H     H_    0.616967 0.761186 0.560397 0.239432
H19   H     H_    0.753633 0.888157 0.556365 0.237891
H20   H     H_    0.859742 0.745043 0.972029 0.248481
H21   H     H_    0.733379 0.610974 0.978577 0.254061
H22   H     H_    0.182078 0.302807 0.586129 0.218823
H23   H     H_    0.410785 0.353951 0.131873 0.115935
H24   H     H_    0.204407 0.444615 0.591022 0.225529
H25   H     H_    0.839479 0.280454 0.948483 0.235750
H26   H     H_    0.860700 0.161147 0.941155 0.228481
H27   H     H_    0.143490 0.867692 0.560443 0.247970
H28   H     H_    0.265221 0.847881 0.565957 0.251589
H29   H     H_    0.260460 0.118044 0.973048 0.252862
H30   H     H_    0.394397 0.124317 0.978279 0.252503
H31   H     H_    0.162074 0.364435 0.133412 0.266273
H32   H     H_    0.007572 0.288417 0.140165 0.265234
H33   H     H_    0.437408 0.164074 0.348069 0.225013
H34   H     H_    0.166842 0.718157 0.387669 0.178733
H35   H     H_    0.301234 0.044655 0.368727 0.239317
H36   H     H_    0.440351 0.723916 0.122998 0.232480
H37   H     H_    0.595602 0.797615 0.129717 0.281520
H38   H     H_    0.937446 0.296622 0.335987 0.254517
H39   H     H_    0.849812 0.360068 0.329340 0.237877
H40   H     H_    0.257622 0.726329 0.121631 0.237466
H41   H     H_    0.201914 0.823431 0.130885 0.279726
H42   H     H_    0.707097 0.648950 0.336815 0.259984
H43   H     H_    0.644036 0.498070 0.328578 0.228990
H44   H     H_    0.373629 0.172200 0.632401 0.267726
H45   H     H_    0.650355 0.048576 0.131839 0.151059
H46   H     H_    0.290764 0.017803 0.637953 0.264468
H47   H     H_    0.052537 0.344537 0.839398 0.255002
H48   H     H_    0.140275 0.492911 0.825354 0.239431
H49   H     H_    0.718276 0.433562 0.622144 0.262466
H50   H     H_    0.796831 0.588665 0.629405 0.270818
H51   H     H_    0.297671 0.935007 0.834695 0.254757
H52   H     H_    0.363997 0.850011 0.828091 0.236651
H53   H     H_    0.814861 0.188880 0.618263 0.241700
H54   H     H_    0.723078 0.223354 0.582964 0.226230
H55   H     H_    0.652656 0.708688 0.838021 0.269451
H56   H     H_    0.284159 0.446912 0.386381 0.136153
H57   H     H_    0.502644 0.645152 0.826267 0.221546
H58   H     H_    0.249847 0.398375 0.058509 0.245260
H59   H     H_    0.130017 0.259108 0.044164 0.256060
H60   H     H_    0.494969 0.283158 0.411946 0.234947
H61   H     H_    0.338534 0.196213 0.414859 0.229391
H62   H     H_    0.747895 0.842584 0.053150 0.234641
H63   H     H_    0.720108 0.915767 0.009234 0.226149
H64   H     H_    0.770475 0.164949 0.412872 0.261327
H65   H     H_    0.912960 0.183123 0.410284 0.247732
H66   H     H_    0.097040 0.782717 0.017552 0.270234
H67   H     H_    0.622317 0.969735 0.629694 0.159236
H68   H     H_    0.145893 0.930186 0.019625 0.234776
H69   H     H_    0.834690 0.595684 0.412549 0.266458
H70   H     H_    0.826934 0.726119 0.411888 0.253645
H71   H     H_    0.289184 0.169630 0.544354 0.256611
H72   H     H_    0.435884 0.273445 0.559157 0.247682
H73   H     H_    0.135508 0.299147 0.911805 0.250029
H74   H     H_    0.260622 0.442138 0.911884 0.266262
H75   H     H_    0.834125 0.742026 0.560972 0.224724
H76   H     H_    0.885572 0.647314 0.546545 0.273635
H77   H     H_    0.183130 0.907870 0.908913 0.256961
H78   H     H_    0.843398 0.561084 0.886788 0.185563
H79   H     H_    0.166548 0.765949 0.910848 0.278706
H80   H     H_    0.946528 0.183959 0.558335 0.243592
H81   H     H_    0.796765 0.112131 0.545336 0.232827
H82   H     H_    0.752283 0.863747 0.936330 0.220851
H83   H     H_    0.625473 0.876266 0.934817 0.250541
H84   H     H_    0.353787 0.418774 0.632921 0.110921
N1    N     N_3   0.843017 0.655816 0.064622 -0.661217
N2    N     N_3   0.839867 0.209207 0.966535 -0.649638
N3    N     N_3   0.172150 0.807140 0.569559 -0.660235
N4    N     N_3   0.350540 0.165068 0.962342 -0.638831
N5    N     N_3   0.079514 0.336544 0.116127 -0.662951
N6    N     N_3   0.387426 0.072459 0.355451 -0.614352
N7    N     N_3   0.522322 0.747953 0.106374 -0.577318
N8    N     N_3   0.886329 0.326140 0.354836 -0.660137
N9    N     N_3   0.244888 0.793670 0.106823 -0.586999
N10   N     N_3   0.677400 0.567233 0.354749 -0.664067
N11   N     N_3   0.342864 0.089927 0.614555 -0.661187
N12   N     N_3   0.670449 0.833724 0.460469 -0.645018
N13   N     N_3   0.108367 0.430075 0.853950 -0.660512
N14   N     N_3   0.744190 0.516583 0.606000 -0.640672
N15   N     N_3   0.328425 0.884932 0.853549 -0.652205
N16   N     N_3   0.789940 0.252565 0.610014 -0.604424
N17   N     N_3   0.568386 0.677789 0.853940 -0.576979
N18   N     N_3   0.191734 0.344182 0.030867 -0.586913
N19   N     N_3   0.419636 0.233556 0.434114 -0.599901
N20   N     N_3   0.678559 0.846481 0.034595 -0.597247
N21   N     N_3   0.845356 0.178264 0.433154 -0.580452
N22   N     N_3   0.163114 0.863439 0.032046 -0.592741
N23   N     N_3   0.358190 0.191448 0.065136 -0.648843
N24   N     N_3   0.826164 0.658899 0.433711 -0.588133
N25   N     N_3   0.376839 0.221326 0.531248 -0.581131
N26   N     N_3   0.195144 0.372725 0.933230 -0.578734
N27   N     N_3   0.844875 0.692944 0.532665 -0.597152
N28   N     N_3   0.179048 0.840076 0.931401 -0.640633
N29   N     N_3   0.881835 0.164929 0.531008 -0.590371
N30   N     N_3   0.660113 0.819479 0.928874 -0.593773
N31   N     N_3   0.200329 0.839048 0.462928 -0.645401
N32   N     N_3   0.808002 0.167973 0.068490 -0.639849
N33   N     N_3   0.164049 0.370284 0.465329 -0.582591
N34   N     N_3   0.663502 0.854040 0.565643 -0.660230
N35   N     N_3   0.817297 0.654445 0.961980 -0.630038
N36   N     N_3   0.192467 0.377005 0.566319 -0.599195
O1    O     O_R   0.460870 0.120930 0.805240 -0.521276
O2    O     O_R   0.120930 0.460870 0.194760 -0.522157
O3    O     O_R   0.539130 0.660060 0.305240 -0.516896
O4    O     O_R   0.339940 0.879070 0.194760 -0.518138
O5    O     O_R   0.498910 0.350470 0.801870 -0.503522
O6    O     O_R   0.851560 0.501090 0.698130 -0.520097
O7    O     O_R   0.649530 0.148440 0.801870 -0.505819
O8    O     O_R   0.498910 0.350470 0.698130 -0.511409
O9    O     O_R   0.851560 0.501090 0.801870 -0.502562
O10   O     O_R   0.649530 0.148440 0.698130 -0.481385
O11   O     O_R   0.350470 0.498910 0.301870 -0.505142
O12   O     O_R   0.660060 0.539130 0.694760 -0.515203
O13   O     O_R   0.501090 0.851560 0.198130 -0.515037
O14   O     O_R   0.148440 0.649530 0.301870 -0.504070
O15   O     O_R   0.350470 0.498910 0.198130 -0.509030
O16   O     O_R   0.501090 0.851560 0.301870 -0.514385
O17   O     O_R   0.148440 0.649530 0.198130 -0.515544
O18   O     O_3   0.666667 0.333333 0.750000 -0.243545
O19   O     O_3   0.333333 0.666667 0.250000 -0.247499
O20   O     O_R   0.879070 0.339940 0.805240 -0.525942
O21   O     O_R   0.460870 0.120930 0.694760 -0.527377
O22   O     O_R   0.660060 0.539130 0.805240 -0.518457
O23   O     O_R   0.879070 0.339940 0.694760 -0.484754
O24   O     O_R   0.120930 0.460870 0.305240 -0.522532
O25   O     O_R   0.539130 0.660060 0.194760 -0.521375
O26   O     O_R   0.339940 0.879070 0.305240 -0.473006

loop_
_geom_bond_atom_site_label_1
_geom_bond_atom_site_label_2
_ccdc_geom_bond_type
C3    C104  A    
C81   N11   S    
H72   N25   S    
H82   N30   S    
C35   C74   A    
H68   N22   S    
Cr3   O10   S    
C81   C94   A    
C86   N6    S    
C32   O7    A    
C45   C71   A    
H76   N27   S    
C54   O20   A    
C76   O11   A    
H63   N20   S    
C58   C87   S    
H6    N1    S    
C15   C94   A    
C88   C101  A    
Cr4   O19   S    
C64   C83   A    
C35   N1    S    
Cr4   O15   S    
Cr1   O18   S    
C44   C64   A    
H70   N24   S    
H46   N11   S    
H47   N13   S    
C22   C101  A    
C46   C62   A    
H5    N1    S    
C84   C97   A    
C51   H34   S    
H38   N8    S    
H33   N6    S    
C28   C68   A    
C8    C99   A    
H27   N3    S    
H79   N28   S    
H41   N9    S    
C40   H78   S    
C36   N33   S    
C49   H56   S    
C89   C102  A    
Cr2   O6    S    
C46   H84   S    
C23   C102  A    
H73   N26   S    
C15   C68   A    
C61   C80   A    
H17   N33   S    
C4    C103  A    
H13   N31   S    
C33   C36   A    
C12   O16   A    
C30   C38   A    
C27   N35   S    
C59   C89   A    
H54   N16   S    
Cr6   O19   S    
C21   C64   S    
C92   N7    S    
C34   N12   S    
C33   C72   A    
Cr4   O24   S    
C107  N19   S    
Cr2   O9    S    
Cr6   O14   S    
Cr2   O22   S    
C11   N30   S    
C4    N22   S    
C40   C67   A    
H22   N36   S    
C9    C97   A    
C6    C107  A    
H8    N12   S    
C44   C70   A    
C9    N28   S    
C51   C57   A    
C18   C97   A    
C38   N31   S    
C52   C79   A    
C86   C100  A    
C91   C104  A    
C14   C93   A    
C46   C72   A    
H40   N9    S    
C29   N4    S    
C1    O22   A    
Cr6   O4    S    
H57   N17   S    
Cr2   O12   S    
Cr3   O20   S    
C31   C71   A    
C5    N24   S    
H29   N4    S    
C28   C34   A    
C17   C70   A    
Cr3   O7    S    
C87   O4    A    
H62   N20   S    
H61   N19   S    
C41   H67   S    
C19   C72   A    
C37   N32   S    
H43   N10   S    
C17   C96   A    
C108  N20   S    
C7    C93   A    
H18   N34   S    
C26   C105  A    
C31   N2    S    
C62   C85   A    
C1    C66   S    
C41   C68   A    
C29   C69   A    
Cr1   O5    S    
C43   O8    A    
C16   C26   A    
C15   C20   A    
C13   O17   A    
C65   O10   A    
Cr5   O19   S    
C25   C78   A    
C50   C58   A    
H28   N3    S    
C48   C74   A    
H64   N21   S    
H59   N18   S    
C27   C67   A    
C47   C73   A    
C2    O15   A    
H31   N5    S    
C19   C99   A    
H25   N2    S    
C42   H4    S    
C38   C78   A    
Cr2   O18   S    
Cr3   O18   S    
Cr5   O13   S    
C37   C77   A    
H15   N32   S    
C45   C63   A    
C42   C69   A    
C1    O5    A    
Cr5   O16   S    
H39   N8    S    
C76   O3    A    
C39   C79   A    
H80   N29   S    
C19   C23   A    
C13   C53   S    
C98   O14   A    
H32   N5    S    
C85   C99   A    
C36   C75   A    
Cr4   O11   S    
C66   C82   A    
H9    N23   S    
C60   C81   A    
C92   C105  A    
C20   C100  A    
C10   C96   A    
C4    C9    A    
C14   C67   A    
C29   C39   A    
H21   N35   S    
C52   H23   S    
C7    C106  A    
H60   N19   S    
C105  C108  A    
H37   N7    S    
H55   N17   S    
C58   C90   A    
H35   N6    S    
C49   C75   A    
C80   N13   S    
H30   N4    S    
Cr1   O1    S    
H51   N15   S    
C60   C65   S    
H77   N28   S    
C48   H1    S    
C10   N29   S    
C18   C24   A    
H24   N36   S    
C22   C74   A    
C85   N14   S    
H74   N26   S    
C101  C106  A    
C91   N8    S    
C84   N15   S    
C47   H12   S    
C47   C55   A    
C6    N25   S    
C11   C95   A    
C18   C71   A    
C30   N3    S    
C28   N34   S    
C5    C102  A    
C100  C107  A    
H14   N32   S    
C82   C95   A    
C57   C91   A    
H65   N21   S    
H52   N15   S    
C82   N17   S    
H75   N27   S    
C16   C69   A    
C41   C60   A    
C23   C75   A    
C5    C8    A    
H49   N14   S    
C25   C104  A    
C87   O13   A    
C54   C61   S    
C50   H45   S    
C32   C63   S    
C106  N18   S    
H11   N31   S    
C26   C79   A    
C49   C59   A    
H48   N13   S    
H81   N29   S    
C63   C84   A    
C24   C103  A    
C27   C35   A    
C54   O9    A    
C14   C22   A    
C55   C86   A    
H26   N2    S    
C51   C78   A    
C17   C25   A    
C3    C10   A    
Cr4   O2    S    
H7    N12   S    
C7    N26   S    
C16   C95   A    
C45   H2    S    
C21   O23   A    
C98   O24   A    
C83   C96   A    
Cr1   O8    S    
H50   N14   S    
H69   N24   S    
C43   O12   A    
C57   C98   S    
C65   O21   A    
C8    N27   S    
Cr5   O3    S    
C48   C53   A    
H20   N35   S    
Cr1   O21   S    
C20   C73   A    
C2    O25   A    
C53   C88   A    
H16   N33   S    
C83   N16   S    
C88   N5    S    
H42   N10   S    
C12   O26   A    
C90   C103  A    
H19   N34   S    
C12   C55   S    
H66   N22   S    
H36   N7    S    
C40   C61   A    
C34   C73   A    
C90   N9    S    
C89   N10   S    
H83   N30   S    
C31   C37   A    
C24   C77   A    
C30   C70   A    
C21   O6    A    
C44   H3    S    
H10   N23   S    
C33   N36   S    
H44   N11   S    
C3    N21   S    
C11   C108  A    
H71   N25   S    
C6    C94   A    
C13   O2    A    
C50   C77   A    
C42   C66   A    
C39   N23   S    
C2    C56   S    
Cr5   O25   S    
H53   N16   S    
C80   C93   A    
H58   N18   S    
C56   C92   A    
Cr6   O26   S    
C59   C76   S    
Cr3   O23   S    
Cr6   O17   S    
C52   C56   A    
C43   C62   S    
C32   O1    A    
