data_mof_unit_6053.cif
_audit_creation_date              2012-12-10T17:44:34-0500
_audit_creation_method            fapswitch 2.2
_symmetry_space_group_name_H-M    P1
_symmetry_Int_Tables_number       1
_space_group_crystal_system       triclinic
_cell_length_a                    9.891742
_cell_length_b                    10.703176
_cell_length_c                    15.551999
_cell_angle_alpha                 91.562408
_cell_angle_beta                  67.969562
_cell_angle_gamma                 89.327715
_cell_volume                      1525.3192541

loop_
_atom_site_label
_atom_site_type_symbol
_atom_type_description
_atom_site_fract_x
_atom_site_fract_y
_atom_site_fract_z
_atom_type_partial_charge
C1    C     C_R   0.505190 0.738785 0.488522 0.884396
C2    C     C_R   0.708877 0.598507 0.044737 0.175992
C3    C     C_R   0.571638 0.545836 0.093960 0.096108
C4    C     C_R   0.408719 0.501730 0.675813 0.857268
C5    C     C_R   0.811589 0.612008 0.086673 -0.223379
C6    C     C_R   0.778535 0.574168 0.177277 -0.215748
C7    C     C_R   0.547294 0.498070 0.180786 -0.254834
C8    C     C_R   0.255307 0.888460 0.473254 -0.192247
C9    C     C_R   0.119640 0.949898 0.507900 -0.156537
C10   C     C_R   0.101202 0.061745 0.559453 0.240514
C11   C     C_R   0.223472 0.117055 0.567824 -0.152070
C12   C     C_R   0.403130 0.543137 0.916723 0.097536
C13   C     C_R   0.364611 0.061698 0.523159 0.042218
C14   C     C_R   0.376327 0.938726 0.488971 0.056831
C15   C     C_R   0.509150 0.871604 0.471902 -0.145065
C16   C     C_R   0.496684 0.260093 0.506151 0.896073
C17   C     C_R   0.639662 0.936183 0.455185 0.184812
C18   C     C_R   0.630750 0.063539 0.472433 -0.212304
C19   C     C_R   0.495252 0.126044 0.507550 -0.166298
C20   C     C_R   0.789661 0.670106 0.618725 -0.186206
C21   C     C_R   0.826320 0.753490 0.676242 -0.241558
C22   C     C_R   0.964664 0.749029 0.678668 -0.182571
C23   C     C_R   0.258600 0.508407 0.970083 0.178626
C24   C     C_R   0.068516 0.663606 0.621462 -0.157867
C25   C     C_R   0.036938 0.581578 0.559489 0.145195
C26   C     C_R   0.892638 0.582989 0.558793 0.180829
C27   C     C_R   0.962598 0.420742 0.443765 -0.135654
C28   C     C_R   0.591031 0.500687 0.324305 0.867464
C29   C     C_R   0.105956 0.421057 0.443572 -0.111061
C30   C     C_R   0.351324 0.509427 0.777029 -0.055927
C31   C     C_R   0.644792 0.518605 0.224719 -0.056141
C32   C     C_R   0.160242 0.481543 0.926710 -0.217931
C33   C     C_R   0.206170 0.482983 0.830369 -0.207456
C34   C     C_R   0.502813 0.569267 0.960393 0.064811
C35   C     C_R   0.447121 0.541248 0.820343 -0.271024
C36   C     C_3   0.789343 0.874156 0.413936 -0.871013
C37   C     C_3   0.952735 0.123393 0.601567 -0.919306
C38   C     C_R   0.463495 0.540848 0.054753 0.070607
C39   C     C_R   0.316750 0.511242 0.107264 -0.230863
C40   C     C_R   0.215603 0.497466 0.065541 -0.248549
C41   C     C_R   0.640353 0.622425 0.912925 -0.231961
C42   C     C_R   0.740734 0.638253 0.955002 -0.239229
H1    H     H_    0.104702 0.473594 0.107704 0.149966
H2    H     H_    0.450680 0.446153 0.216822 0.149309
H3    H     H_    0.992005 0.812470 0.724800 0.153228
H4    H     H_    0.172453 0.664802 0.627175 0.208742
H5    H     H_    0.187828 0.356538 0.397535 0.150542
H6    H     H_    0.854622 0.592053 0.211035 0.154466
H7    H     H_    0.844363 0.680282 0.916648 0.151158
H8    H     H_    0.049540 0.455229 0.966944 0.151048
H9    H     H_    0.130213 0.459028 0.797650 0.160108
H10   H     H_    0.558858 0.557453 0.777148 0.161523
H11   H     H_    0.275820 0.501601 0.181487 0.148397
H12   H     H_    0.915212 0.655251 0.050502 0.145937
H13   H     H_    0.671193 0.657172 0.844171 0.159465
H14   H     H_    0.874894 0.942813 0.380085 0.218077
H15   H     H_    0.817101 0.830302 0.469103 0.254964
H16   H     H_    0.793166 0.802770 0.359799 0.243629
H17   H     H_    0.911578 0.144251 0.546043 0.243061
H18   H     H_    0.876325 0.059740 0.651123 0.244549
H19   H     H_    0.955329 0.212407 0.639302 0.240623
H20   H     H_    0.264735 0.803792 0.431706 0.178540
H21   H     H_    0.028234 0.908493 0.496521 0.155450
H22   H     H_    0.207450 0.203184 0.608849 0.157438
H23   H     H_    0.730934 0.114367 0.456700 0.167030
H24   H     H_    0.936476 0.356004 0.397938 0.140626
H25   H     H_    0.679655 0.677308 0.623804 0.209168
H26   H     H_    0.745726 0.820492 0.720575 0.153263
N1    N     N_R   0.856800 0.501200 0.500850 -0.115673
N2    N     N_R   0.142390 0.501280 0.500880 -0.124610
O1    O     O_R   0.385310 0.683220 0.500000 -0.647185
O2    O     O_R   0.614640 0.683250 0.500010 -0.628455
O3    O     O_R   0.319840 0.499980 0.632240 -0.640441
O4    O     O_R   0.549160 0.500000 0.632250 -0.627597
O5    O     O_R   0.385360 0.316750 0.499990 -0.618633
O6    O     O_R   0.614690 0.316780 0.500000 -0.614579
O7    O     O_R   0.450840 0.500000 0.367750 -0.617099
O8    O     O_R   0.680160 0.500020 0.367760 -0.617203
Zn1   Zn    Zn3+2 0.346880 0.499980 0.499990 0.918229
Zn2   Zn    Zn3+2 0.653120 0.500020 0.500010 0.926457

loop_
_geom_bond_atom_site_label_1
_geom_bond_atom_site_label_2
_ccdc_geom_bond_type
C27   C29   A    
C16   O5    A    
C41   C42   A    
C20   H25   S    
O1    Zn1   S    
C18   H23   S    
C12   C23   A    
C1    O1    A    
C6    H6    S    
C30   C35   A    
C29   H5    S    
C10   C37   S    
C3    C7    A    
C5    C6    A    
O8    Zn2   S    
C23   C40   A    
C18   C19   A    
C41   H13   S    
C40   H1    S    
C3    C38   A    
C8    C9    A    
C1    C15   S    
C17   C36   S    
C28   O8    A    
C9    C10   A    
C4    O4    A    
C27   N1    A    
C6    C31   A    
O4    Zn2   S    
C13   C14   A    
C34   C41   A    
O7    Zn1   S    
C38   C39   A    
C1    O2    A    
C7    C31   A    
C13   C19   A    
C5    H12   S    
C24   C25   A    
C36   H15   S    
C39   C40   A    
C25   C26   A    
C34   C38   A    
C36   H14   S    
C17   C18   A    
O3    Zn1   S    
C7    H2    S    
C12   C35   A    
C28   O7    A    
C32   H8    S    
C4    O3    A    
C37   H17   S    
C11   H22   S    
C21   H26   S    
C22   C24   A    
C2    C5    A    
C12   C34   A    
C29   N2    A    
C15   C17   A    
C8    C14   A    
C30   C33   A    
N2    Zn1   S    
C16   O6    A    
C9    H21   S    
C28   C31   S    
O6    Zn2   S    
C37   H19   S    
C33   H9    S    
C36   H16   S    
C24   H4    S    
C23   C32   A    
C2    C3    A    
O2    Zn2   S    
C27   H24   S    
C32   C33   A    
C11   C13   A    
C39   H11   S    
C20   C26   A    
C2    C42   A    
C16   C19   S    
C37   H18   S    
C10   C11   A    
C42   H7    S    
C22   H3    S    
C20   C21   A    
C35   H10   S    
C26   N1    A    
C14   C15   A    
N1    Zn2   S    
C25   N2    A    
C21   C22   A    
O5    Zn1   S    
C4    C30   S    
C8    H20   S    
