data_mof_unit_63724.cif
_audit_creation_date              2012-12-11T14:34:38-0500
_audit_creation_method            fapswitch 2.2
_symmetry_space_group_name_H-M    P1
_symmetry_Int_Tables_number       1
_space_group_crystal_system       triclinic
_cell_length_a                    33.523529
_cell_length_b                    7.248515
_cell_length_c                    27.910041
_cell_angle_alpha                 89.999505
_cell_angle_beta                  140.511177
_cell_angle_gamma                 90.000394
_cell_volume                      4312.87605843

loop_
_atom_site_label
_atom_site_type_symbol
_atom_type_description
_atom_site_fract_x
_atom_site_fract_y
_atom_site_fract_z
_atom_type_partial_charge
O1    O     O_R   0.335930 0.530330 0.836120 -0.537758
O2    O     O_R   0.664070 0.469670 0.163880 -0.537758
O3    O     O_R   0.664070 0.530330 0.663880 -0.537757
O4    O     O_R   0.335930 0.469670 0.336120 -0.537757
O5    O     O_R   0.835930 0.030330 0.836120 -0.537758
O6    O     O_R   0.164070 0.969670 0.163880 -0.537758
O7    O     O_R   0.164070 0.030330 0.663880 -0.537757
O8    O     O_R   0.835930 0.969670 0.336120 -0.537757
O9    O     O_R   0.254100 0.856860 0.685510 -0.532504
O10   O     O_R   0.745900 0.143140 0.314490 -0.532504
O11   O     O_R   0.745900 0.856860 0.814490 -0.532500
O12   O     O_R   0.254100 0.143140 0.185510 -0.532500
O13   O     O_R   0.754100 0.356860 0.685510 -0.532504
O14   O     O_R   0.245900 0.643140 0.314490 -0.532504
O15   O     O_R   0.245900 0.356860 0.814490 -0.532500
O16   O     O_R   0.754100 0.643140 0.185510 -0.532500
C1    C     C_R   0.250992 0.692265 0.662858 0.716784
C2    C     C_R   0.749008 0.307735 0.337142 0.716784
C3    C     C_R   0.749008 0.692264 0.837142 0.716795
C4    C     C_R   0.250992 0.307736 0.162858 0.716795
C5    C     C_R   0.750992 0.192265 0.662858 0.716784
C6    C     C_R   0.249008 0.807735 0.337142 0.716784
C7    C     C_R   0.249008 0.192264 0.837142 0.716795
C8    C     C_R   0.750992 0.807736 0.162858 0.716795
O17   O     O_R   0.341180 0.859830 0.836880 -0.541057
O18   O     O_R   0.658820 0.140170 0.163120 -0.541057
O19   O     O_R   0.658820 0.859830 0.663120 -0.541055
O20   O     O_R   0.341180 0.140170 0.336880 -0.541056
O21   O     O_R   0.841180 0.359830 0.836880 -0.541057
O22   O     O_R   0.158820 0.640170 0.163120 -0.541057
O23   O     O_R   0.158820 0.359830 0.663120 -0.541056
O24   O     O_R   0.841180 0.640170 0.336880 -0.541056
O25   O     O_R   0.251370 0.033430 0.816330 -0.531855
O26   O     O_R   0.748630 0.966570 0.183670 -0.531855
O27   O     O_R   0.748630 0.033430 0.683670 -0.531857
O28   O     O_R   0.251370 0.966570 0.316330 -0.531857
O29   O     O_R   0.751370 0.533430 0.816330 -0.531855
O30   O     O_R   0.248630 0.466570 0.183670 -0.531855
O31   O     O_R   0.248630 0.533430 0.683670 -0.531857
O32   O     O_R   0.751370 0.466570 0.316330 -0.531857
C9    C     C_R   0.366307 0.689978 0.864075 0.745577
C10   C     C_R   0.633693 0.310022 0.135925 0.745577
C11   C     C_R   0.633693 0.689978 0.635925 0.745579
C12   C     C_R   0.366307 0.310022 0.364075 0.745580
C13   C     C_R   0.866307 0.189978 0.864075 0.745577
C14   C     C_R   0.133693 0.810022 0.135925 0.745577
C15   C     C_R   0.133693 0.189977 0.635925 0.745580
C16   C     C_R   0.866307 0.810022 0.364075 0.745580
O33   O     O_3   0.220230 0.697940 0.743080 -0.377774
O34   O     O_3   0.779770 0.302060 0.256920 -0.377774
O35   O     O_3   0.779770 0.697940 0.756920 -0.377781
O36   O     O_3   0.220230 0.302060 0.243080 -0.377782
O37   O     O_3   0.720230 0.197940 0.743080 -0.377774
O38   O     O_3   0.279770 0.802060 0.256920 -0.377774
O39   O     O_3   0.279770 0.197940 0.756920 -0.377781
O40   O     O_3   0.720230 0.802060 0.243080 -0.377782
V1    V     V_3+5 0.255280 0.971510 0.751280 1.461652
V2    V     V_3+5 0.744720 0.028490 0.248720 1.461652
V3    V     V_3+5 0.744720 0.971510 0.748720 1.461656
V4    V     V_3+5 0.255280 0.028490 0.251280 1.461656
V5    V     V_3+5 0.755280 0.471510 0.751280 1.461652
V6    V     V_3+5 0.244720 0.528490 0.248720 1.461652
V7    V     V_3+5 0.244720 0.471510 0.748720 1.461656
V8    V     V_3+5 0.755280 0.528490 0.251280 1.461656
H1    H     H_    0.937930 0.117736 0.441065 0.156699
H2    H     H_    0.062070 0.882264 0.558935 0.156699
H3    H     H_    0.062063 0.117773 0.058999 0.156694
H4    H     H_    0.937936 0.882226 0.941001 0.156694
H5    H     H_    0.437930 0.617736 0.441065 0.156699
H6    H     H_    0.562070 0.382264 0.558935 0.156699
H7    H     H_    0.562064 0.617773 0.058999 0.156694
H8    H     H_    0.437936 0.382226 0.941001 0.156694
C17   C     C_2   0.064027 0.174106 0.566935 -0.318516
C18   C     C_2   0.935973 0.825894 0.433065 -0.318515
C19   C     C_2   0.935972 0.174112 0.933079 -0.318497
C20   C     C_2   0.064028 0.825888 0.066921 -0.318497
C21   C     C_2   0.564027 0.674106 0.566935 -0.318516
C22   C     C_2   0.435973 0.325894 0.433065 -0.318515
C23   C     C_2   0.435972 0.674112 0.933079 -0.318496
C24   C     C_2   0.564028 0.325888 0.066921 -0.318496
C25   C     C_2   0.034696 0.008589 0.534517 -0.111114
C26   C     C_2   0.965304 0.991410 0.465483 -0.111114
C27   C     C_2   0.965306 0.008579 0.965467 -0.111103
C28   C     C_2   0.034694 0.991421 0.034533 -0.111103
C29   C     C_2   0.534696 0.508589 0.534517 -0.111114
C30   C     C_2   0.465304 0.491410 0.465483 -0.111114
C31   C     C_2   0.465306 0.508579 0.965467 -0.111103
C32   C     C_2   0.534694 0.491421 0.034533 -0.111103
C33   C     C_1   0.251715 0.187606 0.891676 -0.128042
C34   C     C_1   0.748285 0.812394 0.108324 -0.128042
C35   C     C_1   0.748285 0.187610 0.608324 -0.128046
C36   C     C_1   0.251715 0.812390 0.391676 -0.128046
C37   C     C_1   0.751715 0.687606 0.891676 -0.128042
C38   C     C_1   0.248285 0.312394 0.108324 -0.128042
C39   C     C_1   0.248285 0.687610 0.608324 -0.128046
C40   C     C_1   0.751715 0.312390 0.391676 -0.128046
C41   C     C_2   0.262394 0.183818 0.997174 0.132708
C42   C     C_2   0.737606 0.816182 0.002826 0.132708
C43   C     C_2   0.737605 0.183822 0.502824 0.132706
C44   C     C_2   0.262395 0.816178 0.497176 0.132706
C45   C     C_2   0.762394 0.683818 0.997174 0.132708
C46   C     C_2   0.237606 0.316182 0.002826 0.132708
C47   C     C_2   0.237605 0.683822 0.502824 0.132706
C48   C     C_2   0.762395 0.316178 0.497176 0.132706
C49   C     C_1   0.244356 0.313188 0.061181 0.068963
C50   C     C_1   0.755644 0.686812 0.938819 0.068963
C51   C     C_1   0.755645 0.313184 0.438819 0.068961
C52   C     C_1   0.244355 0.686816 0.561181 0.068961
C53   C     C_1   0.744356 0.813188 0.061181 0.068963
C54   C     C_1   0.255644 0.186811 0.938819 0.068963
C55   C     C_1   0.255644 0.813184 0.438819 0.068961
C56   C     C_1   0.744355 0.186816 0.561181 0.068961
H9    H     H_    0.963678 0.700147 0.457991 0.130202
H10   H     H_    0.036322 0.299853 0.542008 0.130202
H11   H     H_    0.036327 0.700120 0.041952 0.130182
H12   H     H_    0.963673 0.299880 0.958048 0.130182
H13   H     H_    0.463678 0.200147 0.457991 0.130202
H14   H     H_    0.536322 0.799852 0.542008 0.130202
H15   H     H_    0.536327 0.200120 0.041952 0.130182
H16   H     H_    0.463673 0.799880 0.958048 0.130182
I1    I     I_    0.184743 0.538357 0.925082 -0.333965
I2    I     I_    0.815257 0.461643 0.074918 -0.333965
I3    I     I_    0.815273 0.538325 0.574929 -0.333978
I4    I     I_    0.184727 0.461675 0.425071 -0.333978
I5    I     I_    0.684743 0.038357 0.925082 -0.333965
I6    I     I_    0.315257 0.961643 0.074918 -0.333965
I7    I     I_    0.315273 0.038325 0.574929 -0.333978
I8    I     I_    0.684727 0.961675 0.425071 -0.333978

loop_
_geom_bond_atom_site_label_1
_geom_bond_atom_site_label_2
_ccdc_geom_bond_type
C31   C32   S    
C38   C49   T    
C10   C24   S    
O33   V7    S    
C44   I7    S    
C2    C40   S    
O35   V5    S    
C20   C28   D    
C23   C31   D    
C25   C26   S    
O37   V3    S    
C48   I3    S    
O38   V4    S    
C29   C30   S    
O11   C3    A    
O10   V2    S    
O2    C10   A    
O3    V5    S    
O14   V6    S    
O4    V6    S    
O23   V7    S    
C20   H11   S    
O34   V8    S    
C46   C49   S    
O27   V3    S    
C1    O31   A    
C17   C25   D    
C2    O32   A    
C3    O29   A    
O8    V2    S    
C42   I5    S    
C7    O25   A    
C7    C33   S    
C47   C52   S    
C1    C39   S    
C46   I1    S    
C41   C46   D    
C3    C37   S    
C22   C30   D    
O15   C7    A    
C43   C48   D    
C24   H15   S    
C21   C29   D    
H3    C28   S    
O16   C8    A    
C42   C53   S    
O23   C15   A    
O24   C16   A    
O17   V1    S    
C18   C26   D    
O11   V3    S    
C47   I4    S    
O1    V7    S    
C14   C20   S    
O2    V8    S    
O20   V4    S    
O21   V5    S    
O5    V3    S    
C16   C18   S    
C22   H13   S    
C15   C17   S    
C21   H14   S    
O17   C9    A    
O4    C12   A    
C18   H9    S    
O5    C13   A    
C33   C54   T    
O20   C12   A    
C44   C47   D    
C8    O26   A    
C17   H10   S    
O21   C13   A    
O7    C15   A    
C35   C56   T    
O8    C16   A    
O6    V4    S    
C37   C50   T    
C4    O30   A    
C27   C28   S    
O3    C11   A    
C23   H16   S    
O12   C4    A    
O13   C5    A    
O18   V2    S    
O24   V8    S    
O1    C9    A    
C40   C51   T    
O22   V6    S    
H8    C31   S    
C6    O28   A    
O18   C10   A    
C5    C35   S    
O9    C1    A    
C45   C50   S    
C4    C38   S    
O25   V1    S    
O6    C14   A    
H4    C27   S    
O22   C14   A    
C41   I6    S    
O28   V4    S    
C8    C34   S    
C9    C23   S    
O29   V5    S    
C36   C55   T    
C43   I8    S    
C5    O27   A    
C11   C21   S    
C42   C45   D    
O31   V7    S    
C45   I2    S    
O32   V8    S    
O15   V7    S    
C13   C19   S    
O14   C6    A    
O39   V1    S    
C24   C32   D    
O36   V6    S    
H2    C25   S    
C41   C54   S    
C19   C27   D    
H1    C26   S    
O10   C2    A    
C43   C56   S    
C12   C22   S    
O40   V2    S    
O9    V1    S    
C39   C52   T    
H7    C32   S    
O12   V4    S    
O19   C11   A    
O13   V5    S    
C44   C55   S    
O26   V2    S    
C6    C36   S    
O19   V3    S    
C19   H12   S    
O16   V8    S    
C34   C53   T    
H6    C29   S    
O7    V1    S    
C48   C51   S    
H5    C30   S    
O30   V6    S    
