data_mof_unit_61292.cif
_audit_creation_date              2012-12-10T17:25:23-0500
_audit_creation_method            fapswitch 2.2
_symmetry_space_group_name_H-M    P1
_symmetry_Int_Tables_number       1
_space_group_crystal_system       triclinic
_cell_length_a                    18.821407
_cell_length_b                    18.76469
_cell_length_c                    18.806396
_cell_angle_alpha                 109.520416
_cell_angle_beta                  109.554714
_cell_angle_gamma                 109.390486
_cell_volume                      5109.72640352

loop_
_atom_site_label
_atom_site_type_symbol
_atom_type_description
_atom_site_fract_x
_atom_site_fract_y
_atom_site_fract_z
_atom_type_partial_charge
C1    C     C_R   0.617559 0.618913 0.498856 0.855525
C2    C     C_R   0.346396 0.804718 0.280474 -0.197021
C3    C     C_R   0.292389 0.831923 0.302625 -0.309702
C4    C     C_R   0.380305 0.499123 0.381154 0.803368
C5    C     C_R   0.227888 0.777519 0.310933 -0.194483
C6    C     C_R   0.216670 0.695412 0.296384 0.558638
C7    C     C_R   0.270540 0.667467 0.273687 -0.132491
C8    C     C_R   0.755853 0.755688 0.579174 0.544359
C9    C     C_R   0.821467 0.822936 0.583351 0.046114
C10   C     C_R   0.814340 0.817983 0.504167 -0.147339
C11   C     C_R   0.741225 0.749499 0.424128 -0.232459
C12   C     C_R   0.184466 0.170186 0.220935 -0.205413
C13   C     C_R   0.674795 0.683830 0.420109 0.074080
C14   C     C_R   0.683478 0.686477 0.498584 -0.195288
C15   C     C_R   0.679019 0.500929 0.757967 -0.172696
C16   C     C_R   0.381297 0.380739 0.500296 0.816529
C17   C     C_R   0.742365 0.499418 0.821290 -0.170606
C18   C     C_R   0.814301 0.500150 0.814194 -0.011711
C19   C     C_R   0.822027 0.500921 0.742903 -0.173195
C20   C     C_R   0.757160 0.499392 0.678053 -0.153677
C21   C     C_R   0.685960 0.500129 0.685893 -0.004902
C22   C     C_R   0.265850 0.333465 0.537399 -0.117921
C23   C     C_R   0.175150 0.422187 0.181028 -0.224928
C24   C     C_R   0.201201 0.268617 0.535631 -0.216801
C25   C     C_R   0.185126 0.182918 0.497506 -0.036456
C26   C     C_R   0.233382 0.160905 0.459506 0.148229
C27   C     C_R   0.298422 0.226865 0.461853 -0.213805
C28   C     C_R   0.618995 0.500057 0.618964 0.794280
C29   C     C_R   0.314680 0.312964 0.500401 -0.066618
C30   C     C_R   0.999958 0.619041 0.118761 0.816303
C31   C     C_R   0.118872 0.501067 0.119920 0.825865
C32   C     C_R   0.000052 0.380991 0.881224 0.769841
C33   C     C_R   0.881150 0.500026 0.881055 0.771460
C34   C     C_R   0.185742 0.502136 0.188122 -0.046519
C35   C     C_R   0.000121 0.881193 0.381045 0.772005
C36   C     C_R   0.881261 0.883086 0.502099 0.834191
C37   C     C_R   0.000358 0.119200 0.618872 0.768518
C38   C     C_R   0.118652 0.118177 0.499458 0.782375
C39   C     C_R   0.010729 0.763083 0.184195 -0.193094
C40   C     C_R   0.212122 0.194275 0.168069 -0.124911
C41   C     C_R   0.009358 0.826592 0.247587 -0.186713
C42   C     C_R   0.000389 0.814622 0.314300 -0.012718
C43   C     C_R   0.991466 0.738676 0.316966 -0.183089
C44   C     C_R   0.989616 0.673774 0.251824 -0.107093
C45   C     C_R   0.259739 0.581223 0.259723 0.138647
C46   C     C_R   0.000009 0.686167 0.185730 -0.031348
C47   C     C_R   0.079125 0.320218 0.823440 -0.175117
C48   C     C_R   0.079156 0.255491 0.759918 -0.174682
C49   C     C_R   0.000250 0.186029 0.685887 -0.012351
C50   C     C_R   0.921236 0.180574 0.676318 -0.177626
C51   C     C_R   0.921079 0.243640 0.741340 -0.169177
C52   C     C_R   0.229731 0.275794 0.175649 -0.214924
C53   C     C_R   0.000061 0.313948 0.814495 -0.008256
C54   C     C_R   0.220922 0.334169 0.237200 -0.000615
C55   C     C_R   0.193329 0.309765 0.290389 0.628967
C56   C     C_R   0.322804 0.578419 0.322162 -0.169685
C57   C     C_R   0.174447 0.227603 0.281504 -0.200238
C58   C     C_3   0.894611 0.900551 0.672318 -0.348302
C59   C     C_3   0.883661 0.980678 0.690174 -0.795370
C60   C     C_3   0.594650 0.615173 0.331760 -0.342955
C61   C     C_3   0.611105 0.545958 0.281108 -0.788116
C62   C     C_3   0.215212 0.068170 0.413502 -0.428346
C63   C     C_3   0.282764 0.054346 0.470498 -0.783526
C64   C     C_R   0.312542 0.498413 0.314454 -0.058930
C65   C     C_R   0.237847 0.419543 0.243927 0.067066
C66   C     C_R   0.335979 0.722942 0.266401 0.581653
Cu1   Cu    Cu3+1 0.500020 0.438210 0.438220 0.952720
Cu2   Cu    Cu3+1 0.499980 0.561790 0.561780 1.021136
Cu3   Cu    Cu3+1 0.938210 0.438200 0.999980 0.978184
Cu4   Cu    Cu3+1 0.061840 0.561770 0.999960 0.977438
Cu5   Cu    Cu3+1 0.061800 0.999890 0.561700 0.948815
Cu6   Cu    Cu3+1 0.938200 0.999930 0.438120 0.964711
F1    F     F_    0.154400 0.643734 0.305719 -0.677303
F2    F     F_    0.761969 0.757320 0.653940 -0.670459
F3    F     F_    0.183524 0.364889 0.349719 -0.669240
F4    F     F_    0.388994 0.697519 0.244963 -0.673673
H1    H     H_    0.170403 0.106902 0.214715 0.147425
H2    H     H_    0.276983 0.399378 0.566897 0.173695
H3    H     H_    0.163939 0.285331 0.564611 0.142871
H4    H     H_    0.335647 0.210564 0.432607 0.162471
H5    H     H_    0.018584 0.773189 0.133245 0.150268
H6    H     H_    0.016592 0.885465 0.245458 0.133893
H7    H     H_    0.984324 0.729085 0.368416 0.146103
H8    H     H_    0.981736 0.614740 0.253858 0.186141
H9    H     H_    0.140454 0.374327 0.880089 0.143398
H10   H     H_    0.250502 0.293602 0.133946 0.150541
H11   H     H_    0.140562 0.260342 0.767664 0.141915
H12   H     H_    0.300768 0.895335 0.313727 0.180545
H13   H     H_    0.859881 0.126807 0.619448 0.144336
H14   H     H_    0.859693 0.238597 0.733916 0.140670
H15   H     H_    0.151881 0.208323 0.321500 0.168226
H16   H     H_    0.117626 0.361611 0.126447 0.152211
H17   H     H_    0.379947 0.638913 0.377346 0.148952
H18   H     H_    0.396504 0.847175 0.274387 0.172392
H19   H     H_    0.880999 0.997795 0.638751 0.230464
H20   H     H_    0.822611 0.967720 0.692352 0.261654
H21   H     H_    0.939447 0.037186 0.753933 0.243586
H22   H     H_    0.896020 0.886341 0.725391 0.252070
H23   H     H_    0.186820 0.799238 0.328992 0.179561
H24   H     H_    0.959186 0.915564 0.678602 0.213805
H25   H     H_    0.664355 0.576034 0.269143 0.241721
H26   H     H_    0.629146 0.513349 0.317924 0.265207
H27   H     H_    0.551117 0.495974 0.217270 0.237055
H28   H     H_    0.537188 0.583243 0.337488 0.201167
H29   H     H_    0.576628 0.646730 0.293555 0.218999
H30   H     H_    0.348801 0.098156 0.485396 0.242773
H31   H     H_    0.282257 0.067609 0.532427 0.266367
H32   H     H_    0.267176 0.985647 0.435567 0.236349
H33   H     H_    0.149579 0.019998 0.395350 0.189984
H34   H     H_    0.735740 0.747235 0.364027 0.171619
H35   H     H_    0.215917 0.053831 0.351473 0.192290
H36   H     H_    0.623955 0.501174 0.764314 0.139933
H37   H     H_    0.736112 0.499171 0.876435 0.141473
H38   H     H_    0.877326 0.501149 0.736794 0.143469
H39   H     H_    0.219467 0.149591 0.120890 0.143897
H40   H     H_    0.763150 0.499135 0.622652 0.144613
O1    O     O_R   0.590200 0.537990 0.447840 -0.599053
O2    O     O_R   0.947800 0.909770 0.357550 -0.583637
O3    O     O_R   0.962000 0.909720 0.552080 -0.591047
O4    O     O_R   0.590170 0.642360 0.552180 -0.535176
O5    O     O_R   0.857620 0.909750 0.447720 -0.585402
O6    O     O_R   0.052200 0.090060 0.642270 -0.585828
O7    O     O_R   0.947820 0.090090 0.537910 -0.582652
O8    O     O_R   0.142380 0.090070 0.552100 -0.579672
O9    O     O_R   0.038000 0.090100 0.447740 -0.582184
O10   O     O_R   0.409840 0.447810 0.357640 -0.596680
O11   O     O_R   0.409810 0.552180 0.461990 -0.570254
O12   O     O_R   0.052220 0.642350 0.090110 -0.589008
O13   O     O_R   0.409830 0.357640 0.447820 -0.594540
O14   O     O_R   0.409800 0.462010 0.552160 -0.585029
O15   O     O_R   0.590190 0.447820 0.538010 -0.594958
O16   O     O_R   0.590160 0.552190 0.642360 -0.568443
O17   O     O_R   0.947830 0.537990 0.090130 -0.582438
O18   O     O_R   0.038000 0.447810 0.090170 -0.567698
O19   O     O_R   0.142390 0.552170 0.090150 -0.586821
O20   O     O_R   0.947830 0.357620 0.909840 -0.587344
O21   O     O_R   0.052230 0.461980 0.909820 -0.582313
O22   O     O_R   0.857660 0.447800 0.909790 -0.588907
O23   O     O_R   0.962050 0.552160 0.909780 -0.584719
O24   O     O_R   0.052180 0.909730 0.461910 -0.579433

loop_
_geom_bond_atom_site_label_1
_geom_bond_atom_site_label_2
_ccdc_geom_bond_type
Cu3   O18   S    
C22   C29   A    
Cu6   O5    S    
C27   C29   A    
C43   H7    S    
C41   C42   A    
Cu5   O6    S    
C19   C20   A    
C58   H22   S    
C17   H37   S    
C39   C41   A    
C13   C60   S    
C26   C27   A    
C7    C45   S    
C61   H27   S    
C18   C19   A    
C2    C3    A    
C51   H14   S    
C5    C6    A    
C35   O24   A    
C40   H39   S    
C9    C58   S    
Cu2   O16   S    
C35   C42   S    
C24   H3    S    
C37   O7    A    
C62   H35   S    
C5    H23   S    
C45   C56   A    
C44   C46   A    
C8    C9    A    
C8    C14   A    
C56   C64   A    
C16   O14   A    
C9    C10   A    
C47   C53   A    
C55   F3    S    
C23   C34   A    
Cu4   O23   S    
C13   C14   A    
C11   H34   S    
Cu1   O13   S    
C59   H19   S    
C31   O18   A    
C52   C54   A    
C50   C51   A    
C56   H17   S    
C30   O12   A    
C31   C34   S    
Cu1   Cu2   S    
Cu5   O8    S    
C2    H18   S    
C58   H24   S    
C24   C25   A    
C39   H5    S    
C31   O19   A    
C27   H4    S    
Cu1   O10   S    
C54   C65   S    
C19   H38   S    
C44   H8    S    
C25   C26   A    
C40   C52   A    
C60   C61   S    
C28   O16   A    
C1    O4    A    
C12   C40   A    
C61   H25   S    
C43   C44   A    
C62   C63   S    
C25   C38   S    
C37   C49   S    
C50   H13   S    
C47   C48   A    
C15   C21   A    
C33   O22   A    
C30   O17   A    
C66   F4    S    
C12   H1    S    
C8    F2    S    
C17   C18   A    
C48   H11   S    
C34   C45   A    
C1    O1    A    
C63   H30   S    
Cu2   O14   S    
C16   O13   A    
Cu1   O1    S    
Cu2   O11   S    
C22   H2    S    
C6    C7    A    
C39   C46   A    
C12   C57   A    
C48   C49   A    
C21   C28   S    
Cu3   O20   S    
C32   O20   A    
C55   C57   A    
Cu6   O7    S    
Cu4   O19   S    
C59   H21   S    
C22   C24   A    
C42   C43   A    
C63   H31   S    
C47   H9    S    
C32   C53   S    
C38   O9    A    
C6    F1    S    
C20   H40   S    
Cu4   O12   S    
Cu3   O22   S    
C15   C17   A    
C54   C55   A    
Cu3   O17   S    
C57   H15   S    
C4    O11   A    
C3    H12   S    
C15   H36   S    
C30   C46   S    
Cu1   O15   S    
C3    C5    A    
C2    C66   A    
Cu5   O24   S    
C4    O10   A    
C36   O3    A    
C4    C64   S    
Cu5   O3    S    
Cu6   O9    S    
C28   O15   A    
C64   C65   A    
C23   C65   A    
C52   H10   S    
C61   H26   S    
C58   C59   S    
C32   O21   A    
Cu2   O4    S    
C7    C66   A    
C11   C13   A    
C62   H33   S    
C33   O23   A    
C41   H6    S    
C36   O5    A    
C26   C62   S    
Cu3   Cu4   S    
C18   C33   S    
C10   C11   A    
C37   O6    A    
Cu5   Cu6   S    
C20   C21   A    
C16   C29   S    
Cu4   O21   S    
C49   C50   A    
C59   H20   S    
Cu6   O2    S    
C23   H16   S    
C35   O2    A    
C10   C36   S    
C1    C14   S    
C51   C53   A    
C63   H32   S    
C60   H28   S    
C38   O8    A    
C60   H29   S    
