data_mof_unit_36724.cif
_audit_creation_date              2013-03-05T16:01:46-0500
_audit_creation_method            fapswitch 2.2
_symmetry_space_group_name_H-M    P1
_symmetry_Int_Tables_number       1
_space_group_crystal_system       triclinic
_cell_length_a                    14.919993
_cell_length_b                    14.034105
_cell_length_c                    11.538496
_cell_angle_alpha                 89.934538
_cell_angle_beta                  90.035121
_cell_angle_gamma                 89.888492
_cell_volume                      2416.0246258

loop_
_atom_site_label
_atom_site_type_symbol
_atom_site_description
_atom_site_fract_x
_atom_site_fract_y
_atom_site_fract_z
_atom_type_partial_charge
O1    O     O_R   0.367850 0.580280 0.500030 -0.626188
O2    O     O_R   0.632150 0.419720 0.499970 -0.600984
O3    O     O_R   0.632150 0.580280 0.499970 -0.620885
O4    O     O_R   0.367850 0.419720 0.500030 -0.602889
C1    C     C_R   0.327008 0.500037 0.499985 1.024282
C2    C     C_R   0.672845 0.499866 0.500533 1.007569
O5    O     O_R   0.500010 0.580270 0.334450 -0.622166
O6    O     O_R   0.499990 0.419730 0.665550 -0.621903
O7    O     O_R   0.499990 0.580270 0.665550 -0.600351
O8    O     O_R   0.500010 0.419730 0.334450 -0.603998
C3    C     C_R   0.500704 0.500045 0.281781 0.959893
C4    C     C_R   0.499921 0.499962 0.718228 0.957607
Zn1   Zn    Zn3+2 0.500000 0.607200 0.500000 1.016526
Zn2   Zn    Zn3+2 0.500000 0.392800 0.500000 1.043046
C5    C     C_1   0.501208 0.500135 0.161419 -0.067295
C6    C     C_1   0.500449 0.499928 0.838588 -0.056635
C7    C     C_1   0.501290 0.500118 0.059289 0.082855
C8    C     C_1   0.500947 0.500013 0.940720 0.091924
C9    C     C_R   0.812732 0.484060 0.396956 0.433844
C10   C     C_R   0.186399 0.519350 0.602236 0.424727
C11   C     C_R   0.768109 0.498748 0.501693 -0.278707
C12   C     C_R   0.231493 0.499155 0.499197 -0.277378
C13   C     C_R   0.812761 0.504300 0.607675 0.227100
C14   C     C_R   0.186952 0.470473 0.398738 0.225630
C15   C     C_R   0.906094 0.499094 0.608766 -0.028879
C16   C     C_R   0.093569 0.465965 0.399643 -0.030741
C17   C     C_R   0.952808 0.482739 0.503803 -0.018575
C18   C     C_R   0.046747 0.482951 0.504294 -0.014432
C19   C     C_R   0.905680 0.468867 0.397974 -0.088929
C20   C     C_R   0.093792 0.502919 0.608616 -0.090226
C21   C     C_R   0.953324 0.509858 0.712798 -0.153756
C22   C     C_R   0.046418 0.445180 0.297864 -0.151566
C23   C     C_R   0.046386 0.509253 0.714537 0.288291
C24   C     C_R   0.953373 0.444125 0.296308 0.290536
H1    H     H_    0.918302 0.518249 0.794277 0.239249
H2    H     H_    0.081450 0.429076 0.218129 0.240713
C25   C     C_R   0.554575 0.797780 0.425505 0.057052
C26   C     C_R   0.445935 0.202167 0.575043 0.061986
C27   C     C_R   0.445881 0.797951 0.574929 0.047290
C28   C     C_R   0.554126 0.202116 0.424967 0.062987
N1    N     N_R   0.500000 0.750030 0.500000 -0.126625
N2    N     N_R   0.500000 0.249970 0.500000 -0.134967
C29   C     C_R   0.444902 0.898773 0.578152 -0.109560
C30   C     C_R   0.556800 0.101255 0.423643 -0.112066
C31   C     C_R   0.555547 0.898645 0.422100 -0.107809
C32   C     C_R   0.443388 0.101327 0.576410 -0.113127
C33   C     C_R   0.500126 0.949435 0.500005 0.020827
C34   C     C_R   0.500089 0.050572 0.499992 0.023195
C35   C     C_R   0.389084 0.949636 0.655667 0.229642
C36   C     C_R   0.613163 0.050349 0.346722 0.211953
C37   C     C_R   0.611670 0.949443 0.344901 0.225768
C38   C     C_R   0.387319 0.050499 0.653647 0.218642
H3    H     H_    0.597457 0.756225 0.369477 0.161139
H4    H     H_    0.405331 0.243660 0.633904 0.181514
H5    H     H_    0.403610 0.756613 0.631782 0.154510
H6    H     H_    0.594740 0.243586 0.366149 0.186251
O9    O     O_3   0.763830 0.483164 0.294832 -0.585478
C39   C     C_3   0.762055 0.576403 0.248941 -0.166877
H7    H     H_    0.830696 0.601867 0.227602 0.187125
H8    H     H_    0.728735 0.627187 0.309127 0.149071
H9    H     H_    0.722680 0.575657 0.167363 0.215292
O10   O     O_3   0.234662 0.552941 0.696246 -0.594018
C40   C     C_3   0.226856 0.653156 0.699294 -0.124997
H10   H     H_    0.156837 0.675757 0.717751 0.182051
H11   H     H_    0.250113 0.686482 0.617111 0.143254
H12   H     H_    0.269784 0.680415 0.770323 0.234351
N3    N     N_R   0.762834 0.515385 0.713319 0.187636
O11   O     O_R   0.760010 0.446228 0.788404 -0.337040
O12   O     O_R   0.716366 0.592436 0.731600 -0.365631
N4    N     N_R   0.236914 0.449408 0.295424 0.202943
O13   O     O_R   0.238815 0.362985 0.254811 -0.318046
O14   O     O_R   0.284636 0.515355 0.245883 -0.379973
N5    N     N_R   0.090910 0.509732 0.824982 0.250762
O15   O     O_R   0.148113 0.442680 0.850105 -0.250721
O16   O     O_R   0.062275 0.565179 0.907415 -0.322777
N6    N     N_R   0.909264 0.413142 0.192363 0.248491
O17   O     O_R   0.855554 0.340245 0.196049 -0.229438
O18   O     O_R   0.935930 0.444652 0.092049 -0.307891
N7    N     N_R   0.332803 0.899367 0.735793 0.207384
O19   O     O_R   0.246511 0.912867 0.734807 -0.308614
O20   O     O_R   0.368500 0.846903 0.816664 -0.354577
N8    N     N_R   0.671195 0.100563 0.268564 0.231034
O21   O     O_R   0.666043 0.085520 0.157520 -0.257386
O22   O     O_R   0.734436 0.154955 0.308940 -0.303494
N9    N     N_R   0.668891 0.899111 0.265777 0.218318
O23   O     O_R   0.754965 0.913770 0.266797 -0.288029
O24   O     O_R   0.634330 0.844716 0.186259 -0.350281
N10   N     N_R   0.329410 0.100732 0.732021 0.229910
O25   O     O_R   0.334943 0.085611 0.843066 -0.258117
O26   O     O_R   0.265905 0.155227 0.691873 -0.320149

loop_
_geom_bond_atom_site_label_1
_geom_bond_atom_site_label_2
_geom_bond_distance
_ccdc_geom_bond_type
C15   C21   1.400026 A    
C40   H11   1.112823 S    
C16   C22   1.399909 A    
C17   C19   1.422481 A    
N5    O15   1.301502 A    
N10   O26   1.301182 A    
O3    C2    1.280477 A    
C37   N9    1.435765 S    
Zn1   N1    2.004491 S    
C14   N4    1.437073 S    
C27   N1    1.360825 A    
C10   C20   1.403204 A    
N9    O23   1.301034 A    
C9    O9    1.385656 S    
O5    C3    1.280060 A    
O1    C1    1.281478 A    
C22   H2    1.082278 S    
C9    C11   1.395437 A    
C14   C16   1.394874 A    
C26   N2    1.360937 A    
C31   C37   1.415849 A    
C39   H8    1.112448 S    
C32   C38   1.415861 A    
C13   N3    1.437384 S    
O7    Zn1   1.946804 S    
C3    C5    1.388824 S    
C27   H5    1.079689 S    
C1    C12   1.425178 S    
C4    C6    1.388798 S    
C28   H6    1.080493 S    
C21   C23   1.388620 A    
N4    O13   1.301020 A    
O3    Zn1   2.006824 S    
Zn2   N2    2.004493 S    
C25   H3    1.080419 S    
C39   H9    1.109336 S    
C28   N2    1.361179 A    
C40   H12   1.108725 S    
C25   N1    1.361104 A    
N5    O16   1.301393 A    
O2    C2    1.279256 A    
C7    C8    1.368125 S    
C31   C33   1.414187 A    
C32   C34   1.414406 A    
N9    O24   1.301175 A    
N3    O11   1.301010 A    
C38   N10   1.435732 S    
N6    O17   1.301432 A    
O8    Zn2   1.946805 S    
N7    O20   1.301072 A    
C29   C35   1.415317 A    
C27   C29   1.415523 A    
C39   H7    1.112959 S    
C2    C11   1.421447 S    
C19   C24   1.415627 A    
C35   N7    1.435046 S    
N3    O12   1.300861 A    
C22   C24   1.388438 A    
O10   C40   1.411501 S    
C33   C34   1.419375 A    
C26   H4    1.080458 S    
C28   C30   1.416085 A    
O6    C4    1.280181 A    
C35   C38   1.415879 A    
C36   C37   1.416533 A    
C23   N5    1.436780 S    
C10   C12   1.395546 A    
N8    O22   1.301195 A    
C11   C13   1.394539 A    
C12   C14   1.395859 A    
N7    O19   1.301010 A    
O1    Zn1   2.008270 S    
C25   C31   1.416154 A    
C9    C19   1.402700 A    
C36   N8    1.435774 S    
C30   C36   1.416093 A    
C5    C7    1.178426 T    
O6    Zn2   1.947651 S    
C20   C23   1.415259 A    
N6    O18   1.301406 A    
O4    C1    1.280305 A    
C15   C17   1.416437 A    
C16   C18   1.415622 A    
C18   C20   1.421494 A    
O4    Zn2   2.006825 S    
O9    C39   1.411232 S    
C21   H1    1.082311 S    
C13   C15   1.394353 A    
C10   O10   1.385253 S    
O2    Zn2   2.008268 S    
O7    C4    1.279888 A    
C26   C32   1.415852 A    
O8    C3    1.279996 A    
C40   H10   1.111963 S    
O5    Zn1   1.947652 S    
N10   O25   1.301053 A    
C6    C8    1.178461 T    
N8    O21   1.301046 A    
C17   C18   1.401589 A    
N4    O14   1.300823 A    
C29   C33   1.413913 A    
C30   C34   1.414130 A    
C24   N6    1.435972 S    
