data_mof_unit_36180.cif
_audit_creation_date              2012-12-10T20:45:34-0500
_audit_creation_method            fapswitch 2.2
_symmetry_space_group_name_H-M    P1
_symmetry_Int_Tables_number       1
_space_group_crystal_system       triclinic
_cell_length_a                    10.699669
_cell_length_b                    10.680326
_cell_length_c                    9.846608
_cell_angle_alpha                 89.671088
_cell_angle_beta                  90.512357
_cell_angle_gamma                 90.040941
_cell_volume                      1125.16673652

loop_
_atom_site_label
_atom_site_type_symbol
_atom_type_description
_atom_site_fract_x
_atom_site_fract_y
_atom_site_fract_z
_atom_type_partial_charge
C1    C     C_R   0.502588 0.259875 0.500587 0.875436
C2    C     C_R   0.841140 0.370194 0.968218 -0.174288
C3    C     C_R   0.773724 0.258309 0.951658 0.185118
C4    C     C_R   0.260261 0.504925 0.499360 0.869435
C5    C     C_R   0.762373 0.205756 0.821884 -0.114562
C6    C     C_R   0.815956 0.264877 0.709523 -0.167037
C7    C     C_R   0.882720 0.376857 0.726171 0.143450
C8    C     C_R   0.501202 0.062428 0.624041 0.124907
C9    C     C_R   0.518942 0.128221 0.503124 -0.135998
C10   C     C_R   0.558111 0.065481 0.386159 -0.233066
C11   C     C_R   0.559095 0.935960 0.385524 -0.241789
C12   C     C_R   0.223819 0.819245 0.099704 -0.113512
C13   C     C_R   0.519276 0.871287 0.501388 -0.097957
C14   C     C_R   0.499488 0.934681 0.622014 0.095314
C15   C     C_3   0.392590 0.924451 0.718015 -0.539946
C16   C     C_R   0.503316 0.739896 0.499765 0.874490
C17   C     C_3   0.394879 0.066766 0.722405 -0.095499
C18   C     C_R   0.435748 0.410082 0.071246 0.195422
C19   C     C_R   0.573497 0.580460 0.072278 -0.133412
C20   C     C_R   0.573825 0.580170 0.928149 -0.126086
C21   C     C_R   0.433724 0.411874 0.928547 0.271717
C22   C     C_3   0.295460 0.393570 0.924113 -0.521075
C23   C     C_R   0.931647 0.564252 0.398323 -0.253115
C24   C     C_3   0.298961 0.385887 0.077942 -0.504570
C25   C     C_R   0.739946 0.497612 0.500811 0.865982
C26   C     C_R   0.253169 0.833923 0.237228 -0.123809
C27   C     C_R   0.200725 0.753956 0.334250 -0.091605
C28   C     C_R   0.118374 0.658056 0.294181 0.130307
C29   C     C_R   0.086526 0.646597 0.155826 -0.197531
C30   C     C_R   0.140307 0.725832 0.059051 -0.136103
C31   C     C_R   0.872542 0.498144 0.502360 -0.077498
C32   C     C_R   0.940566 0.440587 0.608494 0.004015
C33   C     C_R   0.068516 0.445343 0.603953 -0.263885
C34   C     C_R   0.127849 0.509956 0.499279 -0.081862
C35   C     C_R   0.060130 0.574314 0.397174 0.000822
C36   C     C_R   0.895784 0.428633 0.856251 -0.183403
H1    H     H_    0.264953 0.880926 0.024811 0.118495
H2    H     H_    0.267314 0.304492 0.875136 0.206134
H3    H     H_    0.247705 0.462444 0.127904 0.239680
H4    H     H_    0.278253 0.290644 0.117963 0.197044
H5    H     H_    0.223498 0.767426 0.440552 0.087487
H6    H     H_    0.022247 0.574457 0.122588 0.124525
H7    H     H_    0.117075 0.714853 0.952550 0.127475
H8    H     H_    0.876972 0.613500 0.321555 0.154734
H9    H     H_    0.122068 0.396480 0.681835 0.157708
H10   H     H_    0.739523 0.243877 0.155217 0.185046
H11   H     H_    0.620999 0.202447 0.052868 0.169901
H12   H     H_    0.805843 0.223389 0.609892 0.118739
H13   H     H_    0.712696 0.118506 0.807999 0.132925
H14   H     H_    0.580736 0.115605 0.293823 0.174279
H15   H     H_    0.306748 0.886401 0.668826 0.183311
H16   H     H_    0.510883 0.065387 0.892056 0.189419
H17   H     H_    0.360851 0.099055 0.922694 0.177889
H18   H     H_    0.947383 0.514942 0.870559 0.127663
H19   H     H_    0.851202 0.412215 0.067541 0.130757
H20   H     H_    0.582825 0.887395 0.292950 0.167761
H21   H     H_    0.419962 0.877096 0.814664 0.204389
H22   H     H_    0.309418 0.113005 0.680894 0.156167
H23   H     H_    0.630792 0.647114 0.126947 0.139729
H24   H     H_    0.316033 0.907791 0.268690 0.136016
H25   H     H_    0.631608 0.646400 0.873781 0.147719
H26   H     H_    0.245096 0.477782 0.885479 0.212601
N1    N     N_R   0.499160 0.499140 0.142800 -0.103489
N2    N     N_R   0.499160 0.499180 0.857150 -0.108949
N3    N     N_3   0.717846 0.196281 0.065492 -0.482944
N4    N     N_3   0.433760 0.115468 0.854870 -0.447410
O1    O     O_R   0.500020 0.316790 0.614690 -0.598470
O2    O     O_R   0.500000 0.316760 0.385350 -0.626569
O3    O     O_R   0.316770 0.500030 0.614670 -0.628418
O4    O     O_R   0.316750 0.499990 0.385330 -0.610093
O5    O     O_R   0.500000 0.683240 0.614650 -0.619196
O6    O     O_R   0.499980 0.683210 0.385310 -0.621858
O7    O     O_R   0.683250 0.500010 0.614670 -0.608911
O8    O     O_R   0.683230 0.499970 0.385330 -0.633769
Zn1   Zn    Zn3+2 0.500010 0.500020 0.653130 0.954497
Zn2   Zn    Zn3+2 0.499990 0.499980 0.346870 0.939179

loop_
_geom_bond_atom_site_label_1
_geom_bond_atom_site_label_2
_ccdc_geom_bond_type
C25   C31   S    
C29   H6    S    
C18   C21   A    
C33   H9    S    
C7    C36   A    
C19   C20   A    
C16   O6    A    
O6    Zn2   S    
C24   H3    S    
C4    O4    A    
C17   N4    S    
C6    H12   S    
C18   C24   S    
C28   C29   A    
C34   C35   A    
C2    H19   S    
C5    C6    A    
C18   N1    A    
N1    Zn2   S    
C22   H2    S    
C20   H25   S    
C1    O2    A    
C25   O8    A    
C12   H1    S    
C21   N2    A    
C24   H4    S    
C28   C35   S    
C19   N1    A    
C8    C9    A    
C15   H15   S    
C9    C10   A    
C17   H22   S    
C21   C22   S    
C15   H21   S    
C5    H13   S    
C3    N3    S    
C16   O5    A    
C4    O3    A    
C4    C34   S    
C1    C9    S    
H10   N3    S    
C19   H23   S    
C23   H8    S    
C12   C26   A    
C23   C31   A    
C20   N2    A    
C29   C30   A    
C22   H26   S    
C27   H5    S    
C31   C32   A    
C33   C34   A    
C26   C27   A    
H17   N4    S    
O8    Zn2   S    
C23   C35   A    
O4    Zn2   S    
C22   C24   S    
C30   H7    S    
O1    Zn1   S    
O7    Zn1   S    
C10   H14   S    
H16   N4    S    
C2    C36   A    
C15   C17   S    
C8    C14   A    
C7    C32   S    
C12   C30   A    
C3    C5    A    
C6    C7    A    
O2    Zn2   S    
C8    C17   S    
C32   C33   A    
C2    C3    A    
O5    Zn1   S    
C11   C13   A    
C1    O1    A    
N2    Zn1   S    
O3    Zn1   S    
C25   O7    A    
C36   H18   S    
C10   C11   A    
C13   C16   S    
C27   C28   A    
C14   C15   S    
C13   C14   A    
C26   H24   S    
H11   N3    S    
C11   H20   S    
