data_mof_unit_30862.cif
_audit_creation_date              2013-03-05T16:30:35-0500
_audit_creation_method            fapswitch 2.2
_symmetry_space_group_name_H-M    P1
_symmetry_Int_Tables_number       1
_space_group_crystal_system       triclinic
_cell_length_a                    8.793101
_cell_length_b                    10.98375
_cell_length_c                    9.703585
_cell_angle_alpha                 92.73568
_cell_angle_beta                  98.152916
_cell_angle_gamma                 97.632022
_cell_volume                      917.375373317

loop_
_atom_site_label
_atom_site_type_symbol
_atom_site_description
_atom_site_fract_x
_atom_site_fract_y
_atom_site_fract_z
_atom_type_partial_charge
O1    O     O_R   0.500000 0.319640 0.618810 -0.536857
O2    O     O_R   0.500020 0.319680 0.381230 -0.513437
C1    C     C_R   0.499161 0.262764 0.496874 0.897291
O3    O     O_R   0.274830 0.499980 0.591380 -0.550612
O4    O     O_R   0.274850 0.500020 0.353800 -0.517997
C2    C     C_R   0.203458 0.493641 0.464552 0.843233
Cu1   Cu    Cu3+1 0.499990 0.499980 0.640670 1.134032
Cu2   Cu    Cu3+1 0.500010 0.500020 0.359330 1.147588
O5    O     O_R   0.499980 0.680320 0.618770 -0.566558
O6    O     O_R   0.500000 0.680360 0.381190 -0.560483
O7    O     O_R   0.725150 0.499980 0.646200 -0.529730
O8    O     O_R   0.725170 0.500020 0.408620 -0.574557
C3    C     C_R   0.497627 0.736779 0.502305 0.875704
C4    C     C_R   0.796048 0.504949 0.535400 0.866500
C5    C     C_2   0.035127 0.468126 0.453317 0.108700
C6    C     C_2   0.963711 0.525679 0.547721 0.176929
C7    C     C_R   0.531523 0.073049 0.615547 -0.099485
C8    C     C_R   0.494304 0.129028 0.492155 -0.130202
C9    C     C_R   0.446783 0.048674 0.369654 0.430679
C10   C     C_R   0.434655 0.920323 0.378233 -0.102283
H1    H     H_    0.389687 0.861547 0.284781 0.240480
C11   C     C_R   0.486712 0.868349 0.503126 -0.077305
C12   C     C_R   0.534355 0.949833 0.619633 -0.052526
C13   C     C_3   0.610436 0.961331 0.767592 0.454500
C14   C     C_3   0.617936 0.102481 0.759693 0.584783
C15   C     C_R   0.627649 0.548540 0.091643 0.079333
N1    N     N_R   0.500980 0.500930 0.148050 -0.249905
C16   C     C_R   0.383840 0.427999 0.052733 0.333890
C17   C     C_R   0.379615 0.437948 0.904341 0.383112
N2    N     N_R   0.500990 0.500890 0.852140 -0.266460
C18   C     C_R   0.630798 0.542169 0.946946 0.093147
C19   C     C_3   0.734000 0.662883 0.957028 0.029310
C20   C     C_3   0.724005 0.673028 0.114060 0.475587
H2    H     H_    0.678317 0.728773 0.892759 0.178690
N3    N     N_R   0.954798 0.361987 0.366820 0.135850
O9    O     O_R   0.968472 0.349722 0.235475 -0.177398
O10   O     O_R   0.873629 0.274038 0.421281 -0.299484
N4    N     N_R   0.247103 0.380083 0.809249 0.175929
O11   O     O_R   0.254098 0.281678 0.732019 -0.244851
O12   O     O_R   0.111940 0.411596 0.818183 -0.226505
N5    N     N_R   0.889410 0.650489 0.927286 0.194946
O13   O     O_R   0.996941 0.745699 0.946445 -0.154237
O14   O     O_R   0.928294 0.541918 0.907058 -0.208176
N6    N     N_R   0.871299 0.674899 0.207921 0.152270
O15   O     O_R   0.914299 0.760295 0.308849 -0.249757
O16   O     O_R   0.959699 0.590687 0.193734 -0.302152
Cl1   Cl    Cl    0.623185 0.796460 0.155694 -0.459969
Cl2   Cl    Cl    0.058188 0.658238 0.651833 -0.386365
Cl3   Cl    Cl    0.415843 0.098419 0.200751 -0.314850
Cl4   Cl    Cl    0.476059 0.889976 0.871754 -0.383841
N7    N     N_R   0.763928 0.921885 0.790618 0.118930
O17   O     O_R   0.817382 0.864522 0.691369 -0.282291
O18   O     O_R   0.852510 0.951915 0.909801 -0.171500
Cl5   Cl    Cl    0.517030 0.174765 0.879696 -0.369852
Cl6   Cl    Cl    0.805856 0.187414 0.755560 -0.342059
N8    N     N_R   0.272606 0.330856 0.094478 0.193657
O19   O     O_R   0.260372 0.312932 0.222703 -0.255374
O20   O     O_R   0.199049 0.243605 0.004570 -0.148013

loop_
_geom_bond_atom_site_label_1
_geom_bond_atom_site_label_2
_geom_bond_distance
_ccdc_geom_bond_type
C17   N4    1.433677 S    
O4    Cu2   1.972960 S    
Cu1   O7    1.972961 S    
C19   N5    1.458348 S    
C17   N2    1.365413 A    
N7    O17   1.301746 A    
N5    O13   1.300440 A    
C9    Cl3   1.748502 S    
C15   C20   1.498810 S    
C9    C10   1.406966 A    
O8    C4    1.293069 A    
Cu2   O8    1.969771 S    
C7    C14   1.492798 S    
C19   C20   1.538311 S    
C6    Cl2   1.769445 S    
C13   N7    1.462288 S    
O2    C1    1.310815 A    
C16   N8    1.461389 S    
C15   C18   1.406863 A    
Cu1   N2    2.050330 S    
C18   C19   1.494618 S    
C13   C14   1.549017 S    
N4    O12   1.294410 A    
N5    O14   1.297111 A    
C15   N1    1.363511 A    
C7    C12   1.359261 A    
C14   Cl5   1.779186 S    
O3    Cu1   1.969772 S    
O4    C2    1.319397 A    
C5    N3    1.442983 S    
C16   C17   1.444870 A    
N3    O10   1.301709 A    
C10   C11   1.407927 A    
C3    C11   1.460696 S    
C7    C8    1.389749 A    
C13   Cl4   1.788965 S    
N2    C18   1.370993 A    
C20   Cl1   1.776438 S    
O7    C4    1.316907 A    
C4    C6    1.448410 S    
C2    C5    1.456850 S    
N8    O19   1.286155 A    
C12   C13   1.487499 S    
C5    C6    1.358839 D    
Cu1   Cu2   2.730053 S    
N4    O11   1.298864 A    
N6    O15   1.301916 A    
C1    C8    1.462192 S    
O3    C2    1.293999 A    
C8    C9    1.423931 A    
N1    C16   1.413509 A    
Cu1   O5    2.002247 S    
Cu2   N1    2.051895 S    
O5    C3    1.313718 A    
C11   C12   1.387135 A    
N6    O16   1.299187 A    
N7    O18   1.301085 A    
C10   H1    1.081691 S    
O1    Cu1   1.982055 S    
C20   N6    1.471053 S    
O6    C3    1.306344 A    
Cu2   O6    1.982055 S    
O2    Cu2   2.002246 S    
C14   Cl6   1.793105 S    
N8    O20   1.301306 A    
O1    C1    1.309982 A    
N3    O9    1.299380 A    
C19   H2    1.096829 S    
