data_mof_unit_26547.cif
_audit_creation_date              2013-03-05T16:05:01-0500
_audit_creation_method            fapswitch 2.2
_symmetry_space_group_name_H-M    P1
_symmetry_Int_Tables_number       1
_space_group_crystal_system       triclinic
_cell_length_a                    9.554565
_cell_length_b                    10.840197
_cell_length_c                    13.912021
_cell_angle_alpha                 91.117924
_cell_angle_beta                  84.600846
_cell_angle_gamma                 89.707999
_cell_volume                      1434.21419261

loop_
_atom_site_label
_atom_site_type_symbol
_atom_site_description
_atom_site_fract_x
_atom_site_fract_y
_atom_site_fract_z
_atom_type_partial_charge
O1    O     O_R   0.381260 0.680340 0.500000 -0.618395
O2    O     O_R   0.618740 0.319660 0.500000 -0.618413
O3    O     O_R   0.618830 0.680370 0.500010 -0.562199
O4    O     O_R   0.381170 0.319630 0.499990 -0.562202
C1    C     C_R   0.500506 0.737593 0.497480 0.784425
C2    C     C_R   0.499494 0.262406 0.502510 0.784472
O5    O     O_R   0.364420 0.499960 0.637840 -0.556516
O6    O     O_R   0.635580 0.500040 0.362160 -0.556539
O7    O     O_R   0.601990 0.499990 0.637850 -0.587261
O8    O     O_R   0.398010 0.500010 0.362150 -0.587259
C3    C     C_R   0.477127 0.500388 0.682717 0.822897
C4    C     C_R   0.522873 0.499608 0.317283 0.822827
Cu1   Cu    Cu3+1 0.359340 0.499980 0.500000 0.945252
Cu2   Cu    Cu3+1 0.640660 0.500020 0.500000 0.945221
C5    C     C_R   0.913897 0.557879 0.572148 -0.084972
C6    C     C_R   0.086103 0.442127 0.427850 -0.085018
C7    C     C_R   0.061517 0.559709 0.572289 0.472382
C8    C     C_R   0.938483 0.440296 0.427708 0.472236
C9    C     C_1   0.536313 0.501872 0.214713 -0.175261
C10   C     C_1   0.463695 0.498109 0.785286 -0.175200
C11   C     C_2   0.556476 0.513112 0.024769 -0.025028
C12   C     C_2   0.443551 0.486839 0.975229 -0.025045
H1    H     H_    0.849093 0.605542 0.629296 0.170129
H2    H     H_    0.150907 0.394464 0.370701 0.170115
C13   C     C_1   0.454298 0.494261 0.871687 -0.054576
C14   C     C_1   0.545721 0.505705 0.128312 -0.054574
C15   C     C_R   0.622999 0.937415 0.461391 0.003558
C16   C     C_R   0.376995 0.062581 0.538552 0.003469
C17   C     C_R   0.620139 0.065297 0.467022 -0.250138
C18   C     C_R   0.379858 0.934702 0.532935 -0.250197
H3    H     H_    0.712357 0.115706 0.438937 0.149113
H4    H     H_    0.287636 0.884297 0.561021 0.149162
C19   C     C_R   0.498504 0.128467 0.504469 -0.075373
C20   C     C_R   0.501494 0.871530 0.495493 -0.075381
N1    N     N_R   0.147930 0.499970 0.499980 -0.234137
N2    N     N_R   0.852070 0.500030 0.500020 -0.234153
O9    O     O_3   0.113408 0.623837 0.647108 -0.765782
H5    H     H_    0.202621 0.661197 0.622258 0.359891
O10   O     O_3   0.886591 0.376167 0.352890 -0.765838
H6    H     H_    0.797381 0.338804 0.377742 0.359879
C21   C     C_R   0.303800 0.449539 0.022345 0.147135
C22   C     C_R   0.235849 0.345667 0.986639 -0.152468
C23   C     C_R   0.101587 0.313036 0.026326 -0.163619
C24   C     C_R   0.033760 0.383392 0.102133 -0.051008
C25   C     C_R   0.099818 0.486823 0.137987 -0.121588
C26   C     C_R   0.233365 0.520944 0.097726 -0.161083
H7    H     H_    0.286820 0.289981 0.927841 0.120866
H8    H     H_    0.050064 0.233251 0.998139 0.128617
H9    H     H_    0.929790 0.358113 0.132837 0.156735
H10   H     H_    0.046889 0.540906 0.196603 0.140987
H11   H     H_    0.280577 0.603828 0.124488 0.126954
C27   C     C_R   0.696236 0.550391 0.977652 0.147132
C28   C     C_R   0.764201 0.654260 0.013352 -0.152498
C29   C     C_R   0.898481 0.686859 0.973677 -0.163583
C30   C     C_R   0.966315 0.616471 0.897890 -0.050964
C31   C     C_R   0.900243 0.513042 0.862043 -0.121570
C32   C     C_R   0.766673 0.478958 0.902289 -0.161087
H12   H     H_    0.713229 0.709967 0.072138 0.120871
H13   H     H_    0.950016 0.766641 0.001860 0.128643
H14   H     H_    0.070302 0.641722 0.867198 0.156726
H15   H     H_    0.953184 0.458930 0.803447 0.140990
H16   H     H_    0.719447 0.396077 0.875533 0.126950
C33   C     C_R   0.753023 0.876716 0.416880 0.133418
C34   C     C_R   0.754014 0.814848 0.327153 -0.107917
C35   C     C_R   0.876857 0.756828 0.285863 -0.116912
C36   C     C_R   0.999046 0.760014 0.333905 -0.114755
C37   C     C_R   0.998552 0.821279 0.423247 -0.143517
C38   C     C_R   0.876144 0.879903 0.464605 -0.149532
H17   H     H_    0.659820 0.811457 0.289508 0.098137
H18   H     H_    0.877125 0.709576 0.216623 0.121413
H19   H     H_    0.094211 0.715128 0.302092 0.120647
H20   H     H_    0.092935 0.823015 0.460539 0.136674
H21   H     H_    0.876634 0.926375 0.534197 0.133047
C39   C     C_R   0.246960 0.123275 0.583026 0.133549
C40   C     C_R   0.123977 0.120375 0.535138 -0.149381
C41   C     C_R   0.001555 0.178984 0.576476 -0.143614
C42   C     C_R   0.000905 0.239936 0.665963 -0.114594
C43   C     C_R   0.122961 0.242842 0.714163 -0.117035
C44   C     C_R   0.245828 0.184852 0.672887 -0.108213
H22   H     H_    0.123606 0.074135 0.465440 0.132967
H23   H     H_    0.907281 0.177476 0.539059 0.136672
H24   H     H_    0.905723 0.284799 0.697765 0.120661
H25   H     H_    0.122567 0.289848 0.783519 0.121319
H26   H     H_    0.339921 0.188020 0.710657 0.098255

loop_
_geom_bond_atom_site_label_1
_geom_bond_atom_site_label_2
_geom_bond_distance
_ccdc_geom_bond_type
C24   H9    1.082521 S    
C30   C31   1.396044 A    
C15   C17   1.386937 A    
C21   C22   1.407993 A    
C23   C24   1.396016 A    
C16   C39   1.480014 S    
C32   H16   1.082624 S    
C42   C43   1.399065 A    
C24   C25   1.396035 A    
O5    C3    1.294576 A    
O1    C1    1.298098 A    
C42   H24   1.081979 S    
C11   C12   1.362229 D    
Cu1   N1    2.019958 S    
C6    N1    1.356423 A    
Cu2   N2    2.019958 S    
C44   H26   1.083520 S    
C12   C21   1.492378 S    
C10   C13   1.198456 T    
C35   H18   1.081913 S    
C17   C19   1.398211 A    
C31   C32   1.398967 A    
C37   H20   1.081931 S    
O4    Cu1   1.965062 S    
C9    C14   1.198458 T    
C8    O10   1.372916 S    
C33   C38   1.404407 A    
C43   H25   1.082008 S    
C12   C13   1.438322 S    
C21   C26   1.407835 A    
C23   H8    1.082389 S    
C5    H1    1.081900 S    
C36   C37   1.397356 A    
C6    H2    1.081901 S    
Cu1   Cu2   2.687892 S    
O2    C2    1.298105 A    
C11   C14   1.438322 S    
C29   H13   1.082395 S    
C15   C20   1.414545 A    
C3    C10   1.421335 S    
C39   C40   1.404446 A    
C18   C20   1.398207 A    
C37   C38   1.397956 A    
C41   C42   1.397456 A    
O4    C2    1.290463 A    
O10   H6    0.981641 S    
O7    Cu2   1.918605 S    
C43   C44   1.398058 A    
C38   H21   1.083050 S    
C28   C29   1.398056 A    
C26   H11   1.082616 S    
C40   C41   1.397909 A    
O9    H5    0.981641 S    
C36   H19   1.082014 S    
O6    C4    1.294568 A    
C1    C20   1.452775 S    
C7    O9    1.372918 S    
C34   H17   1.083463 S    
O7    C3    1.293294 A    
O3    Cu2   1.965064 S    
O8    C4    1.293303 A    
C16   C19   1.414518 A    
C39   C44   1.404768 A    
O1    Cu1   1.967384 S    
C22   C23   1.398045 A    
C5    N2    1.356421 A    
C27   C28   1.407998 A    
C40   H22   1.083128 S    
C5    C7    1.410872 A    
C29   C30   1.396023 A    
O6    Cu2   1.922811 S    
O3    C1    1.290470 A    
O8    Cu1   1.918605 S    
C41   H23   1.081963 S    
C28   H12   1.083266 S    
C2    C19   1.452776 S    
C34   C35   1.398091 A    
C16   C18   1.386900 A    
C17   H3    1.084464 S    
C18   H4    1.084471 S    
C25   H10   1.079429 S    
C4    C9    1.421333 S    
C22   H7    1.083261 S    
O2    Cu2   1.967384 S    
C27   C32   1.407844 A    
C33   C34   1.404684 A    
C25   C26   1.398947 A    
O5    Cu1   1.922811 S    
C6    C8    1.410872 A    
C35   C36   1.399002 A    
C31   H15   1.079443 S    
C15   C33   1.480119 S    
C7    N1    1.387744 A    
C30   H14   1.082531 S    
C8    N2    1.387744 A    
C11   C27   1.492388 S    
