data_mof_unit_27004.cif
_audit_creation_date              2012-12-10T18:09:34-0500
_audit_creation_method            fapswitch 2.2
_symmetry_space_group_name_H-M    P1
_symmetry_Int_Tables_number       1
_space_group_crystal_system       triclinic
_cell_length_a                    15.616582
_cell_length_b                    16.164528
_cell_length_c                    9.902036
_cell_angle_alpha                 91.205196
_cell_angle_beta                  89.858525
_cell_angle_gamma                 90.39267
_cell_volume                      2498.99884751

loop_
_atom_site_label
_atom_site_type_symbol
_atom_type_description
_atom_site_fract_x
_atom_site_fract_y
_atom_site_fract_z
_atom_type_partial_charge
C1    C     C_R   0.122897 0.384639 0.499000 0.805708
C2    C     C_R   0.122254 0.615823 0.501235 0.809915
C3    C     C_R   0.623532 0.885137 0.499819 0.827910
C4    C     C_R   0.621534 0.116522 0.501281 0.809009
C5    C     C_3   0.087684 0.521350 0.081968 -0.343231
C6    C     C_3   0.089830 0.508500 0.918670 -0.338095
C7    C     C_3   0.587698 0.021493 0.081335 -0.351312
C8    C     C_3   0.589888 0.009156 0.918036 -0.324047
C9    C     C_R   0.879320 0.380380 0.500150 0.774843
C10   C     C_R   0.883031 0.622789 0.500960 0.781345
C11   C     C_R   0.377129 0.882473 0.500127 0.774913
C12   C     C_R   0.384434 0.124080 0.500853 0.738480
C13   C     C_3   0.783635 0.282223 0.658208 0.301058
C14   C     C_3   0.847227 0.226455 0.425774 0.265204
C15   C     C_3   0.839738 0.769870 0.614224 0.239066
C16   C     C_3   0.813439 0.742020 0.356609 0.308013
C17   C     C_3   0.280371 0.786624 0.657526 0.292623
C18   C     C_3   0.346010 0.728263 0.427219 0.273686
C19   C     C_3   0.335780 0.269514 0.617455 0.269050
C20   C     C_3   0.320899 0.249556 0.359575 0.278550
C21   C     C_3   0.211962 0.712001 0.658525 0.277158
C22   C     C_3   0.279612 0.651057 0.434124 0.264190
C23   C     C_3   0.257708 0.334749 0.626774 0.290974
C24   C     C_3   0.255543 0.326710 0.364971 0.282207
C25   C     C_3   0.721881 0.202179 0.658748 0.258709
C26   C     C_3   0.773574 0.155654 0.415211 0.296409
C27   C     C_3   0.771212 0.845453 0.608719 0.296723
C28   C     C_3   0.739922 0.811250 0.354331 0.242433
C29   C     C_3   0.721670 0.335120 0.429942 0.312736
C30   C     C_3   0.722213 0.662565 0.536248 0.251086
C31   C     C_3   0.219434 0.835494 0.426569 0.289467
C32   C     C_3   0.222679 0.162139 0.518444 0.263241
C33   C     C_3   0.809801 0.308129 0.502781 0.007581
C34   C     C_3   0.816375 0.697270 0.502435 0.035290
C35   C     C_3   0.306905 0.810692 0.502478 0.008125
C36   C     C_3   0.317833 0.199055 0.500409 0.024714
C37   C     C_3   0.193171 0.682134 0.505910 -0.035053
C38   C     C_3   0.197705 0.321863 0.497840 0.004402
C39   C     C_3   0.692522 0.182565 0.506429 -0.021763
C40   C     C_3   0.698312 0.821918 0.500695 0.002198
C41   C     C_3   0.157702 0.758239 0.427093 -0.498734
C42   C     C_3   0.156271 0.233514 0.503706 -0.512685
C43   C     C_3   0.653656 0.264045 0.449950 -0.522885
C44   C     C_3   0.658482 0.736687 0.542553 -0.499546
C45   C     C_3   0.941822 0.563292 0.085304 0.354354
C46   C     C_3   0.954974 0.574147 0.921569 0.421877
C47   C     C_3   0.984289 0.414163 0.077744 0.466483
C48   C     C_3   0.966918 0.419783 0.915874 0.350766
C49   C     C_3   0.441905 0.063293 0.086138 0.362783
C50   C     C_3   0.454497 0.073741 0.922465 0.427593
C51   C     C_3   0.484421 0.914039 0.077955 0.460137
C52   C     C_3   0.467903 0.919428 0.916069 0.340695
Cu1   Cu    Cu3+1 0.000100 0.500000 0.642410 0.951613
Cu2   Cu    Cu3+1 0.000100 0.500000 0.357590 0.965626
Cu3   Cu    Cu3+1 0.500100 0.000000 0.642410 0.961898
Cu4   Cu    Cu3+1 0.500100 0.000000 0.357590 0.951361
H1    H     H_    0.093167 0.774746 0.464251 0.171884
H2    H     H_    0.140519 0.739862 0.322543 0.171930
H3    H     H_    0.107832 0.231315 0.585631 0.171943
H4    H     H_    0.115579 0.221672 0.413912 0.171639
H5    H     H_    0.601758 0.285589 0.516362 0.149313
H6    H     H_    0.616371 0.251043 0.356766 0.163667
H7    H     H_    0.627465 0.741377 0.642924 0.175495
H8    H     H_    0.602627 0.721673 0.479182 0.168605
H9    H     H_    0.109782 0.584358 0.107884 0.129212
H10   H     H_    0.125448 0.560130 0.874377 0.197675
H11   H     H_    0.139946 0.486947 0.130847 0.197884
H12   H     H_    0.132878 0.457784 0.888460 0.156697
H13   H     H_    0.610080 0.084326 0.106597 0.134915
H14   H     H_    0.626040 0.060549 0.872220 0.207732
H15   H     H_    0.639957 0.986943 0.129615 0.176345
H16   H     H_    0.632854 0.958444 0.888745 0.162415
N1    N     N_3   0.001260 0.500000 0.143650 -0.171201
N2    N     N_3   0.001260 0.500000 0.856350 -0.176236
N3    N     N_3   0.501260 0.000000 0.143650 -0.169242
N4    N     N_3   0.501260 0.000000 0.856350 -0.178696
O1    O     O_R   0.091250 0.408820 0.620260 -0.610825
O2    O     O_R   0.091250 0.408820 0.379740 -0.519738
O3    O     O_R   0.091250 0.591180 0.620260 -0.552676
O4    O     O_R   0.091250 0.591180 0.379740 -0.618446
O5    O     O_R   0.591250 0.908820 0.620260 -0.596418
O6    O     O_R   0.591250 0.908820 0.379740 -0.537902
O7    O     O_R   0.591250 0.091180 0.620260 -0.545761
O8    O     O_R   0.591250 0.091180 0.379740 -0.623950
O9    O     O_R   0.908940 0.408800 0.620260 -0.597682
O10   O     O_R   0.908940 0.408800 0.379740 -0.546346
O11   O     O_R   0.908940 0.591200 0.620260 -0.527435
O12   O     O_R   0.908940 0.591200 0.379740 -0.546454
O13   O     O_R   0.408940 0.908800 0.620260 -0.590573
O14   O     O_R   0.408940 0.908800 0.379740 -0.547557
O15   O     O_R   0.408940 0.091200 0.620260 -0.520950
O16   O     O_R   0.408940 0.091200 0.379740 -0.563762
N5    N     N_3   0.740382 0.353063 0.726316 -0.616051
H17   H     H_    0.736479 0.345253 0.830507 0.212509
H18   H     H_    0.676882 0.359482 0.698968 0.199842
N6    N     N_3   0.879741 0.245169 0.290633 -0.540948
H19   H     H_    0.831613 0.250591 0.220054 0.259278
H20   H     H_    0.916646 0.196179 0.252378 0.205204
N7    N     N_3   0.841198 0.736873 0.749944 -0.561566
H21   H     H_    0.781351 0.722992 0.788000 0.238565
H22   H     H_    0.866416 0.780941 0.817932 0.170973
N8    N     N_3   0.797856 0.681109 0.247256 -0.550661
H23   H     H_    0.737592 0.654969 0.239862 0.223153
H24   H     H_    0.804809 0.709561 0.154113 0.179496
N9    N     N_3   0.245909 0.858971 0.733751 -0.607700
H25   H     H_    0.240407 0.844563 0.835773 0.209628
H26   H     H_    0.184110 0.876578 0.713911 0.191045
N10   N     N_3   0.367104 0.744615 0.285669 -0.540775
H27   H     H_    0.314175 0.745180 0.222580 0.244317
H28   H     H_    0.406104 0.697822 0.245209 0.216371
N11   N     N_3   0.348017 0.233307 0.748162 -0.572302
H29   H     H_    0.291368 0.209880 0.784328 0.247982
H30   H     H_    0.365381 0.279796 0.818214 0.166879
N12   N     N_3   0.300197 0.193877 0.244995 -0.558887
H31   H     H_    0.236658 0.175922 0.238698 0.228993
H32   H     H_    0.310390 0.223815 0.154077 0.179879
N13   N     N_3   0.860464 0.265839 0.740185 -0.545456
H33   H     H_    0.843217 0.260574 0.841795 0.223713
H34   H     H_    0.891344 0.210325 0.720188 0.250280
N14   N     N_3   0.923064 0.198265 0.499800 -0.645198
H35   H     H_    0.968068 0.246269 0.506050 0.218115
H36   H     H_    0.954228 0.149976 0.448106 0.201235
N15   N     N_3   0.927789 0.799243 0.590661 -0.647863
H37   H     H_    0.969385 0.749352 0.598216 0.250199
H38   H     H_    0.946363 0.842906 0.664597 0.196029
N16   N     N_3   0.899300 0.777551 0.325704 -0.555574
H39   H     H_    0.903095 0.793896 0.224547 0.190525
H40   H     H_    0.912035 0.834237 0.371070 0.237437
N17   N     N_3   0.358500 0.763258 0.732094 -0.543005
H41   H     H_    0.346097 0.759709 0.835639 0.233744
H42   H     H_    0.382683 0.705338 0.708637 0.242197
N18   N     N_3   0.428480 0.708245 0.490476 -0.646614
H43   H     H_    0.470484 0.758108 0.480524 0.228400
H44   H     H_    0.457753 0.658244 0.440510 0.204247
N19   N     N_3   0.417518 0.312013 0.588185 -0.587286
H45   H     H_    0.465884 0.267678 0.587155 0.212204
H46   H     H_    0.435046 0.353667 0.665554 0.207255
N20   N     N_3   0.408367 0.281555 0.335204 -0.605469
H47   H     H_    0.415058 0.305078 0.238158 0.199232
H48   H     H_    0.455365 0.237610 0.351368 0.244509
N21   N     N_3   0.247197 0.644481 0.739919 -0.637853
H49   H     H_    0.240720 0.656996 0.843529 0.199259
H50   H     H_    0.220812 0.586722 0.719437 0.245525
N22   N     N_3   0.316896 0.581178 0.507369 -0.597378
H51   H     H_    0.361240 0.551196 0.444460 0.236969
H52   H     H_    0.352878 0.597958 0.591395 0.244469
N23   N     N_3   0.291476 0.420010 0.633263 -0.582204
H53   H     H_    0.240740 0.461388 0.634695 0.247233
H54   H     H_    0.323675 0.430801 0.724520 0.197396
N24   N     N_3   0.300927 0.407436 0.364046 -0.571495
H55   H     H_    0.320115 0.422329 0.266162 0.199925
H56   H     H_    0.357314 0.408050 0.419663 0.280396
N25   N     N_3   0.766841 0.130055 0.713494 -0.625905
H57   H     H_    0.774244 0.136315 0.818216 0.196284
H58   H     H_    0.731904 0.075415 0.698977 0.264525
N26   N     N_3   0.806823 0.074912 0.456649 -0.594201
H59   H     H_    0.845611 0.050530 0.379312 0.220996
H60   H     H_    0.847216 0.077811 0.539626 0.258283
N27   N     N_3   0.812326 0.924377 0.573634 -0.571230
H61   H     H_    0.842840 0.950981 0.658046 0.204632
H62   H     H_    0.860826 0.919222 0.502998 0.239001
N28   N     N_3   0.776363 0.890546 0.308551 -0.627026
H63   H     H_    0.731972 0.938182 0.314359 0.258740
H64   H     H_    0.793880 0.885691 0.206672 0.190911
N29   N     N_3   0.130033 0.735429 0.724188 -0.563815
H65   H     H_    0.097709 0.782570 0.677217 0.188048
H66   H     H_    0.138322 0.752007 0.825836 0.197911
N30   N     N_3   0.261692 0.616628 0.296609 -0.629841
H67   H     H_    0.218767 0.650459 0.240481 0.197370
H68   H     H_    0.236519 0.556700 0.301637 0.263529
N31   N     N_3   0.205379 0.325660 0.750294 -0.632870
H69   H     H_    0.176498 0.268003 0.761300 0.224713
H70   H     H_    0.238866 0.341815 0.838396 0.181062
N32   N     N_3   0.200658 0.326794 0.244846 -0.567134
H71   H     H_    0.158911 0.276745 0.236489 0.215810
H72   H     H_    0.235906 0.333286 0.155759 0.180671
N33   N     N_3   0.647413 0.214925 0.749750 -0.574920
H73   H     H_    0.599564 0.254311 0.717854 0.205920
H74   H     H_    0.666185 0.230076 0.848480 0.193476
N34   N     N_3   0.747095 0.142252 0.272529 -0.640458
H75   H     H_    0.703773 0.184847 0.236139 0.217232
H76   H     H_    0.722993 0.082677 0.255242 0.236838
N35   N     N_3   0.730607 0.863003 0.741536 -0.595401
H77   H     H_    0.695638 0.814543 0.780558 0.187899
H78   H     H_    0.774880 0.882888 0.814489 0.184953
N36   N     N_3   0.671653 0.788957 0.257652 -0.565842
H79   H     H_    0.637079 0.735435 0.278004 0.222364
H80   H     H_    0.695155 0.785105 0.159014 0.190181
N37   N     N_3   0.688378 0.414902 0.482553 -0.650479
H81   H     H_    0.625189 0.415290 0.517583 0.219181
H82   H     H_    0.730806 0.447209 0.545183 0.215090
N38   N     N_3   0.733528 0.347568 0.284929 -0.601993
H83   H     H_    0.751321 0.409204 0.271735 0.228536
H84   H     H_    0.674988 0.343700 0.234035 0.203641
N39   N     N_3   0.719782 0.619526 0.665774 -0.611209
H85   H     H_    0.753928 0.564503 0.658061 0.233703
H86   H     H_    0.656741 0.602879 0.689700 0.207822
N40   N     N_3   0.691522 0.603344 0.432669 -0.644770
H87   H     H_    0.737179 0.557661 0.414766 0.224446
H88   H     H_    0.634334 0.575105 0.463013 0.230878
N41   N     N_3   0.176646 0.908376 0.487048 -0.645986
H89   H     H_    0.117522 0.898543 0.533778 0.212683
H90   H     H_    0.218322 0.947057 0.541165 0.210687
N42   N     N_3   0.235322 0.858370 0.286489 -0.600180
H91   H     H_    0.255476 0.920027 0.286733 0.225951
H92   H     H_    0.177539 0.859285 0.233196 0.212186
N43   N     N_3   0.211334 0.124107 0.651019 -0.631866
H93   H     H_    0.249422 0.071507 0.656825 0.235320
H94   H     H_    0.148057 0.103666 0.662592 0.209608
N44   N     N_3   0.202930 0.097900 0.415432 -0.630749
H95   H     H_    0.248781 0.051511 0.414855 0.218631
H96   H     H_    0.142970 0.071126 0.434039 0.231622
N45   N     N_3   0.954820 0.643886 0.154207 -0.493771
H97   H     H_    0.935841 0.692174 0.093848 0.159560
H98   H     H_    0.016172 0.657035 0.188849 0.231422
N46   N     N_3   0.006814 0.649327 0.889769 -0.523376
H99   H     H_    0.971228 0.702881 0.880385 0.214771
H100  H     H_    0.053202 0.664463 0.961571 0.155628
N47   N     N_3   0.056978 0.358953 0.106707 -0.519972
H101  H     H_    0.041067 0.296531 0.089410 0.207379
H102  H     H_    0.111494 0.368761 0.049094 0.177962
N48   N     N_3   0.006483 0.346017 0.851895 -0.593589
H103  H     H_    0.992910 0.337645 0.751107 0.312526
H104  H     H_    0.071939 0.346046 0.855204 0.212790
N49   N     N_3   0.455930 0.143777 0.154700 -0.525097
H105  H     H_    0.436181 0.192923 0.096899 0.162824
H106  H     H_    0.517833 0.156746 0.186679 0.213229
N50   N     N_3   0.505442 0.149375 0.890308 -0.522775
H107  H     H_    0.469911 0.203189 0.886729 0.208528
H108  H     H_    0.552960 0.163554 0.960596 0.162155
N51   N     N_3   0.557348 0.859322 0.106304 -0.504357
H109  H     H_    0.541435 0.796974 0.088141 0.215935
H110  H     H_    0.611715 0.869407 0.048308 0.170829
N52   N     N_3   0.508010 0.845854 0.851718 -0.594923
H111  H     H_    0.491283 0.835491 0.752376 0.312696
H112  H     H_    0.573695 0.847014 0.850468 0.192574
N53   N     N_3   0.853216 0.536792 0.114115 -0.662365
H113  H     H_    0.805054 0.576010 0.084358 0.197541
H114  H     H_    0.842155 0.524508 0.214881 0.281968
N54   N     N_3   0.870685 0.589983 0.861869 -0.498296
H115  H     H_    0.820164 0.549969 0.877350 0.178923
H116  H     H_    0.847511 0.640905 0.916008 0.180602
N55   N     N_3   0.913515 0.369800 0.137856 -0.507873
H117  H     H_    0.857552 0.400467 0.150977 0.230339
H118  H     H_    0.899685 0.318363 0.075438 0.198514
N56   N     N_3   0.874858 0.410377 0.888215 -0.590620
H119  H     H_    0.831176 0.429268 0.960276 0.179601
H120  H     H_    0.856164 0.442269 0.806069 0.298894
N57   N     N_3   0.353090 0.037793 0.116370 -0.662505
H121  H     H_    0.306609 0.081058 0.095591 0.213731
H122  H     H_    0.344020 0.022986 0.216378 0.281941
N58   N     N_3   0.369696 0.088703 0.864567 -0.509273
H123  H     H_    0.318896 0.049325 0.882990 0.176666
H124  H     H_    0.347696 0.138901 0.921644 0.171649
N59   N     N_3   0.413574 0.869306 0.138842 -0.501556
H125  H     H_    0.357202 0.899754 0.150812 0.235584
H126  H     H_    0.399873 0.816818 0.078705 0.203660
N60   N     N_3   0.376519 0.909705 0.888288 -0.590028
H127  H     H_    0.333273 0.929307 0.960483 0.180431
H128  H     H_    0.359596 0.943958 0.807870 0.303398

loop_
_geom_bond_atom_site_label_1
_geom_bond_atom_site_label_2
_ccdc_geom_bond_type
C16   C28   S    
C47   N55   S    
N31   H69   S    
N59   H126  S    
C7    N3    S    
N29   H65   S    
N39   H86   S    
C1    O1    A    
N41   H89   S    
C12   O15   A    
C18   N18   S    
N11   H29   S    
C2    C37   S    
C5    H11   S    
C24   N32   S    
C14   C33   S    
N50   H108  S    
N12   H31   S    
C52   N52   S    
N19   H45   S    
C45   C46   S    
C44   H8    S    
N17   H42   S    
N31   H70   S    
C10   O12   A    
N57   H121  S    
N16   H39   S    
C6    H10   S    
C15   N15   S    
N52   H112  S    
C52   N60   S    
C32   C36   S    
N26   H59   S    
N23   H54   S    
C51   N3    S    
C41   H2    S    
C38   C42   S    
C17   N9    S    
C19   C36   S    
N13   H34   S    
C7    H15   S    
C5    C6    S    
C25   N33   S    
C26   C39   S    
N15   H38   S    
N22   H52   S    
C28   C40   S    
C19   N19   S    
N55   H117  S    
N53   H114  S    
C29   C33   S    
C8    N4    S    
C21   N29   S    
N10   H27   S    
C45   N1    S    
C20   N20   S    
N37   H82   S    
C20   C24   S    
N32   H71   S    
C48   N56   S    
C2    O3    A    
C9    O9    A    
C26   N26   S    
N26   H60   S    
N23   H53   S    
N14   H36   S    
N18   H43   S    
N33   H74   S    
N6    H20   S    
C3    O5    A    
C24   C38   S    
N27   H62   S    
C6    N2    S    
N40   H87   S    
C46   N54   S    
Cu3   O5    S    
C18   C35   S    
C15   C34   S    
N28   H64   S    
C20   N12   S    
C22   N30   S    
C19   N11   S    
N9    H26   S    
N30   H68   S    
C51   N59   S    
N29   H66   S    
Cu4   N3    S    
C37   C41   S    
N53   H113  S    
C29   C43   S    
N36   H80   S    
C9    C33   S    
C1    O2    A    
N41   H90   S    
C30   C44   S    
N37   H81   S    
Cu3   O15   S    
C3    O6    A    
C47   N47   S    
C14   N6    S    
N50   H107  S    
N34   H76   S    
Cu4   O8    S    
Cu2   O4    S    
N45   H98   S    
C44   H7    S    
C15   C27   S    
N56   H120  S    
C10   O11   A    
C8    H16   S    
N57   H122  S    
C30   C34   S    
C28   N28   S    
N43   H93   S    
C10   C34   S    
C47   C48   S    
C48   N2    S    
N15   H37   S    
C27   N35   S    
C2    O4    A    
N46   H99   S    
C47   N1    S    
Cu1   O11   S    
C42   H4    S    
N47   H101  S    
Cu2   O10   S    
C39   C43   S    
N55   H118  S    
Cu1   Cu2   S    
C22   C37   S    
C51   N51   S    
C17   C21   S    
C51   C52   S    
C13   N5    S    
N12   H32   S    
N21   H50   S    
N38   H84   S    
C19   C23   S    
N35   H77   S    
C13   C33   S    
C28   N36   S    
C50   N4    S    
C9    O10   A    
N47   H102  S    
Cu2   N1    S    
C32   N44   S    
C11   O13   A    
C45   N45   S    
N27   H61   S    
C4    O8    A    
C4    C39   S    
N45   H97   S    
C27   C40   S    
C16   C34   S    
N6    H19   S    
Cu3   O7    S    
C45   N53   S    
C49   N3    S    
N54   H116  S    
C29   N38   S    
C21   C37   S    
N24   H56   S    
N11   H30   S    
N5    H17   S    
C14   C26   S    
C32   N43   S    
N8    H24   S    
C31   N42   S    
C12   C36   S    
C24   N24   S    
C1    C38   S    
Cu3   N4    S    
N44   H96   S    
C5    H9    S    
N30   H67   S    
N7    H22   S    
N42   H92   S    
C3    C40   S    
N44   H95   S    
C46   N46   S    
N51   H110  S    
C52   N4    S    
Cu1   O1    S    
C49   C50   S    
C29   N37   S    
N25   H58   S    
N52   H111  S    
C49   N49   S    
N59   H125  S    
N60   H128  S    
C46   N2    S    
C50   N58   S    
N14   H35   S    
C43   H5    S    
N58   H124  S    
N17   H41   S    
C16   N8    S    
N19   H46   S    
N56   H119  S    
N48   H104  S    
N16   H40   S    
C31   C41   S    
Cu4   O14   S    
Cu1   O3    S    
C18   C22   S    
C8    H14   S    
C12   O16   A    
N46   H100  S    
N22   H51   S    
C13   C25   S    
C42   H3    S    
C7    H13   S    
C13   N13   S    
Cu4   O6    S    
N20   H48   S    
C26   N34   S    
N28   H63   S    
C23   C38   S    
N9    H25   S    
C14   N14   S    
N7    H21   S    
N38   H83   S    
C50   N50   S    
C11   C35   S    
N60   H127  S    
N25   H57   S    
C21   N21   S    
Cu3   O13   S    
C25   N25   S    
C23   N23   S    
N13   H33   S    
C25   C39   S    
Cu2   O12   S    
C11   O14   A    
C30   N40   S    
N5    H18   S    
C4    O7    A    
C48   N48   S    
C6    H12   S    
N54   H115  S    
N49   H106  S    
N32   H72   S    
N10   H28   S    
C31   C35   S    
C5    N1    S    
N8    H23   S    
C18   N10   S    
C31   N41   S    
C7    C8    S    
N20   H47   S    
Cu1   O9    S    
Cu3   Cu4   S    
C41   H1    S    
N39   H85   S    
C20   C36   S    
C40   C44   S    
C23   N31   S    
N42   H91   S    
C30   N39   S    
N35   H78   S    
N18   H44   S    
N33   H73   S    
C15   N7    S    
C22   N22   S    
N51   H109  S    
N43   H94   S    
C32   C42   S    
N24   H55   S    
N40   H88   S    
C17   C35   S    
C49   N57   S    
Cu2   O2    S    
N36   H79   S    
N21   H49   S    
Cu4   O16   S    
C27   N27   S    
N48   H103  S    
C16   N16   S    
C17   N17   S    
N34   H75   S    
C43   H6    S    
N58   H123  S    
N49   H105  S    
Cu1   N2    S    
