data_mof_unit_21285.cif
_audit_creation_date              2012-12-10T19:28:56-0500
_audit_creation_method            fapswitch 2.2
_symmetry_space_group_name_H-M    P1
_symmetry_Int_Tables_number       1
_space_group_crystal_system       triclinic
_cell_length_a                    17.733254
_cell_length_b                    16.703284
_cell_length_c                    10.639349
_cell_angle_alpha                 90.031278
_cell_angle_beta                  96.800388
_cell_angle_gamma                 89.89117
_cell_volume                      3129.23631305

loop_
_atom_site_label
_atom_site_type_symbol
_atom_type_description
_atom_site_fract_x
_atom_site_fract_y
_atom_site_fract_z
_atom_type_partial_charge
C1    C     C_R   0.355824 0.500183 0.502592 0.871492
C2    C     C_R   0.644133 0.500070 0.497097 0.867863
C3    C     C_1   0.965637 0.498007 0.492713 0.232288
C4    C     C_1   0.033620 0.497956 0.497390 0.236160
C5    C     C_R   0.520438 0.831225 0.612329 0.231183
C6    C     C_R   0.431361 0.170758 0.486374 0.239671
C7    C     C_R   0.478135 0.831425 0.388748 0.232306
C8    C     C_R   0.567394 0.169623 0.516346 0.239835
C9    C     C_R   0.532274 0.745840 0.605554 0.398600
C10   C     C_R   0.434617 0.254545 0.458625 0.398060
C11   C     C_R   0.467119 0.745933 0.394898 0.396747
C12   C     C_R   0.565019 0.253833 0.542210 0.393213
C13   C     C_R   0.499137 0.874402 0.500684 -0.249833
C14   C     C_R   0.499117 0.126342 0.501313 -0.245373
C15   C     C_1   0.498861 0.963726 0.500939 0.322495
C16   C     C_1   0.498768 0.037355 0.501096 0.313487
C17   C     C_R   0.500953 0.499793 0.259402 0.835876
C18   C     C_R   0.499139 0.499823 0.740623 0.836104
C19   C     C_3   0.536231 0.564401 0.047610 -0.049777
C20   C     C_3   0.464117 0.432578 0.952188 -0.129128
C21   C     C_3   0.571672 0.498861 0.970608 -0.133515
C22   C     C_3   0.428512 0.498082 0.029443 -0.135485
C23   C     C_3   0.463090 0.564039 0.952462 -0.051021
C24   C     C_3   0.536937 0.432947 0.047870 -0.130689
C25   C     C_3   0.498859 0.498814 0.877485 -0.046870
C26   C     C_3   0.501317 0.498760 0.122568 -0.047453
C27   C     C_R   0.849285 0.563520 0.546916 0.383530
C28   C     C_R   0.158863 0.435649 0.559680 0.401070
C29   C     C_R   0.150918 0.565560 0.452712 0.383489
C30   C     C_R   0.839731 0.438253 0.426751 0.365398
C31   C     C_R   0.770560 0.563996 0.545010 -0.187382
C32   C     C_R   0.237785 0.437223 0.561264 -0.167591
C33   C     C_R   0.229834 0.566120 0.457480 -0.184708
C34   C     C_R   0.761023 0.439349 0.428905 -0.188331
C35   C     C_R   0.726414 0.500820 0.490757 -0.159704
C36   C     C_R   0.273352 0.501055 0.507101 -0.186726
C37   C     C_R   0.884435 0.499838 0.488581 -0.151036
C38   C     C_R   0.114897 0.499567 0.503061 -0.166655
Cu1   Cu    Cu3+1 0.500000 0.580420 0.500000 1.094338
Cu2   Cu    Cu3+1 0.500000 0.419580 0.500000 1.094810
H1    H     H_    0.431517 0.617066 0.911043 0.203326
H2    H     H_    0.567230 0.379328 0.089917 0.185172
H3    H     H_    0.743889 0.613600 0.587452 0.248597
H4    H     H_    0.271807 0.388556 0.604815 0.226914
H5    H     H_    0.257187 0.617315 0.420888 0.248636
H6    H     H_    0.726373 0.392312 0.382076 0.195286
N1    N     N_R   0.500000 0.701220 0.500000 -0.324043
N2    N     N_R   0.500000 0.298780 0.500000 -0.326101
O1    O     O_R   0.391260 0.567930 0.500000 -0.553676
O2    O     O_R   0.608740 0.432070 0.500000 -0.536196
O3    O     O_R   0.608740 0.567930 0.500000 -0.554312
O4    O     O_R   0.391260 0.432070 0.500000 -0.539650
O5    O     O_R   0.499980 0.567900 0.316850 -0.533071
O6    O     O_R   0.500020 0.432100 0.683150 -0.552311
O7    O     O_R   0.500020 0.567900 0.683150 -0.532685
O8    O     O_R   0.499980 0.432100 0.316850 -0.552515
H7    H     H_    0.567196 0.617691 0.089038 0.203665
H8    H     H_    0.434529 0.378648 0.910156 0.187101
H9    H     H_    0.630194 0.499282 0.943328 0.196143
H10   H     H_    0.369988 0.497850 0.056721 0.195163
S1    S     S_3+6 0.901117 0.644887 0.620536 0.079114
O9    O     O_2   0.972431 0.615600 0.697338 -0.241346
O10   O     O_2   0.921491 0.700752 0.519284 -0.193673
O11   O     O_3   0.847905 0.694500 0.715965 -0.489186
H11   H     H_    0.879069 0.741158 0.747209 0.403855
S2    S     S_3+6 0.117072 0.351759 0.625622 0.077619
O12   O     O_2   0.057607 0.378852 0.706011 -0.239480
O13   O     O_2   0.080698 0.300269 0.519584 -0.189594
O14   O     O_3   0.183494 0.298041 0.715082 -0.502426
H12   H     H_    0.156749 0.249387 0.739116 0.399388
S3    S     S_3+6 0.099988 0.649542 0.385523 0.079331
O15   O     O_2   0.028599 0.623375 0.305855 -0.240699
O16   O     O_2   0.079831 0.702292 0.491006 -0.194020
O17   O     O_3   0.154039 0.701656 0.294818 -0.488793
H13   H     H_    0.123432 0.749533 0.267232 0.404085
S4    S     S_3+6 0.880277 0.358102 0.348682 0.094463
O18   O     O_2   0.941269 0.388678 0.274478 -0.203284
O19   O     O_2   0.914942 0.299415 0.445982 -0.197862
O20   O     O_3   0.813765 0.311521 0.248743 -0.481858
H14   H     H_    0.791030 0.271090 0.300854 0.381804
S5    S     S_3+6 0.535085 0.889138 0.756178 0.106754
O21   O     O_2   0.608192 0.934589 0.756188 -0.199777
O22   O     O_2   0.471361 0.948493 0.757454 -0.238442
O23   O     O_3   0.538360 0.836212 0.890607 -0.427488
H15   H     H_    0.569537 0.868600 0.955200 0.404608
S6    S     S_3+6 0.343838 0.121335 0.502990 0.111827
O24   O     O_2   0.312817 0.084071 0.379047 -0.174715
O25   O     O_2   0.356902 0.056432 0.600988 -0.240451
O26   O     O_3   0.279847 0.185505 0.550478 -0.445628
H16   H     H_    0.232082 0.154510 0.547046 0.401422
S7    S     S_3+6 0.462662 0.889815 0.245505 0.105820
O27   O     O_2   0.389860 0.935868 0.247504 -0.204010
O28   O     O_2   0.526553 0.948659 0.243696 -0.238539
O29   O     O_3   0.458154 0.837405 0.110350 -0.426795
H17   H     H_    0.427714 0.870888 0.046251 0.404657
S8    S     S_3+6 0.654184 0.117268 0.503844 0.106263
O30   O     O_2   0.678275 0.073594 0.625461 -0.173140
O31   O     O_2   0.641817 0.057073 0.398380 -0.238833
O32   O     O_3   0.723812 0.179203 0.471513 -0.476532
H18   H     H_    0.769754 0.145093 0.474813 0.399121
S9    S     S_3+6 0.595473 0.704728 0.734161 0.082715
O33   O     O_2   0.551211 0.688920 0.843060 -0.278928
O34   O     O_2   0.635203 0.629095 0.706705 -0.296067
O35   O     O_3   0.664049 0.771754 0.779588 -0.446556
H19   H     H_    0.688342 0.752332 0.862649 0.391764
S10   S     S_3+6 0.360125 0.289486 0.342568 0.096357
O36   O     O_2   0.290536 0.309423 0.403785 -0.238974
O37   O     O_2   0.380405 0.360594 0.268489 -0.281222
O38   O     O_3   0.338123 0.215403 0.237611 -0.458941
H20   H     H_    0.290729 0.233121 0.186427 0.398142
S11   S     S_3+6 0.403811 0.704879 0.266473 0.083160
O39   O     O_2   0.447845 0.689500 0.157060 -0.277988
O40   O     O_2   0.364495 0.629092 0.293631 -0.294659
O41   O     O_3   0.334776 0.771847 0.222063 -0.446098
H21   H     H_    0.310199 0.752442 0.139203 0.392273
S12   S     S_3+6 0.640814 0.289742 0.654671 0.099047
O42   O     O_2   0.707168 0.314508 0.588611 -0.252621
O43   O     O_2   0.619056 0.358224 0.733406 -0.278887
O44   O     O_3   0.669228 0.215177 0.755528 -0.448943
H22   H     H_    0.717008 0.234446 0.803600 0.400680

loop_
_geom_bond_atom_site_label_1
_geom_bond_atom_site_label_2
_ccdc_geom_bond_type
C2    C35   S    
S2    O13   D    
S9    O33   D    
C24   H2    S    
Cu1   O3    S    
S11   O39   D    
C8    S8    S    
S4    O20   S    
C12   N2    A    
O41   H21   S    
C19   H7    S    
C7    C11   A    
C31   H3    S    
C17   C26   S    
C32   C36   A    
C19   C21   S    
C24   C26   S    
C21   H9    S    
C22   H10   S    
S6    O25   D    
S2    O14   S    
C6    C14   A    
C20   C25   S    
C15   C16   T    
S8    O32   S    
C29   C33   A    
C33   C36   A    
C33   H5    S    
S12   O42   D    
C34   C35   A    
S1    O10   D    
C19   C26   S    
C28   S2    S    
C2    O2    A    
C5    S5    S    
C11   N1    A    
Cu1   O7    S    
C20   C24   S    
Cu2   O8    S    
S8    O31   D    
C29   C38   A    
C34   H6    S    
C27   S1    S    
C5    C13   A    
S2    O12   D    
S9    O34   D    
S1    O9    D    
C18   C25   S    
O35   H19   S    
S5    O22   D    
S5    O21   D    
O17   H13   S    
C30   C34   A    
C11   S11   S    
C28   C32   A    
S4    O18   D    
Cu1   Cu2   S    
S3    O16   D    
S6    O24   D    
Cu2   O4    S    
C27   C31   A    
C30   C37   A    
S1    O11   S    
C19   C23   S    
C5    C9    A    
S7    O28   D    
C30   S4    S    
O32   H18   S    
C28   C38   A    
C8    C12   A    
C7    S7    S    
S8    O30   D    
C32   H4    S    
O29   H17   S    
S11   O40   D    
S10   O36   D    
O23   H15   S    
C17   O8    A    
C18   O7    A    
Cu1   O1    S    
C4    C38   S    
C9    N1    A    
S9    O35   S    
Cu2   O6    S    
C13   C15   S    
C10   N2    A    
C14   C16   S    
C10   S10   S    
C20   C22   S    
C20   H8    S    
C3    C4    T    
C17   O5    A    
S7    O27   D    
S5    O23   S    
Cu1   N1    S    
Cu2   N2    S    
C21   C25   S    
C8    C14   A    
S4    O19   D    
S6    O26   S    
C6    S6    S    
C6    C10   A    
S3    O17   S    
O44   H22   S    
C23   H1    S    
S12   O44   S    
O11   H11   S    
S3    O15   D    
O38   H20   S    
S7    O29   S    
Cu1   O5    S    
S10   O37   D    
C27   C37   A    
Cu2   O2    S    
S12   O43   D    
S11   O41   S    
C31   C35   A    
C23   C25   S    
O14   H12   S    
C1    O4    A    
C2    O3    A    
C18   O6    A    
O20   H14   S    
C7    C13   A    
C3    C37   S    
C9    S9    S    
C22   C26   S    
C21   C24   S    
C22   C23   S    
C12   S12   S    
O26   H16   S    
C1    O1    A    
C1    C36   S    
C29   S3    S    
S10   O38   S    
