data_mof_unit_35253.cif
_audit_creation_date              2013-03-05T16:33:00-0500
_audit_creation_method            fapswitch 2.2
_symmetry_space_group_name_H-M    P1
_symmetry_Int_Tables_number       1
_space_group_crystal_system       triclinic
_cell_length_a                    23.508446
_cell_length_b                    10.734786
_cell_length_c                    9.580035
_cell_angle_alpha                 89.694927
_cell_angle_beta                  89.209603
_cell_angle_gamma                 90.833418
_cell_volume                      2417.07710902

loop_
_atom_site_label
_atom_site_type_symbol
_atom_site_description
_atom_site_fract_x
_atom_site_fract_y
_atom_site_fract_z
_atom_type_partial_charge
O1    O     O_R   0.500000 0.319640 0.618810 -0.592110
O2    O     O_R   0.500010 0.319680 0.381230 -0.565210
C1    C     C_R   0.499695 0.262785 0.500147 0.824926
O3    O     O_R   0.417880 0.499940 0.618820 -0.584178
O4    O     O_R   0.417880 0.499980 0.381240 -0.591771
C2    C     C_R   0.391026 0.500655 0.500737 0.779519
Cu1   Cu    Cu3+1 0.500000 0.499980 0.640670 0.952852
Cu2   Cu    Cu3+1 0.500000 0.500020 0.359330 0.965439
O5    O     O_R   0.499990 0.680320 0.618770 -0.591792
O6    O     O_R   0.500000 0.680360 0.381190 -0.570579
O7    O     O_R   0.582120 0.500020 0.618760 -0.579654
O8    O     O_R   0.582120 0.500060 0.381180 -0.575317
C3    C     C_R   0.499925 0.737234 0.499500 0.847286
C4    C     C_R   0.608992 0.500639 0.499174 0.848441
C5    C     C_R   0.881058 0.610739 0.505162 0.537679
N1    N     N_R   0.851731 0.500533 0.495904 -0.476740
C6    C     C_R   0.878765 0.388664 0.487864 0.545359
C7    C     C_R   0.939042 0.383705 0.489058 -0.035728
C8    C     C_R   0.969717 0.498213 0.498689 -0.048124
C9    C     C_R   0.940509 0.612080 0.506697 -0.007628
C10   C     C_R   0.969979 0.270275 0.481512 0.132169
C11   C     C_R   0.029642 0.274471 0.483503 -0.147595
C12   C     C_R   0.059705 0.387558 0.492703 -0.056262
C13   C     C_R   0.029846 0.499704 0.500420 -0.018011
C14   C     C_R   0.060179 0.613737 0.509827 -0.002893
C15   C     C_R   0.030372 0.725759 0.517523 -0.164289
C16   C     C_R   0.971202 0.724935 0.516029 -0.156842
C17   C     C_R   0.119441 0.391048 0.494455 0.541141
N2    N     N_R   0.148157 0.502552 0.502902 -0.468847
C18   C     C_R   0.119856 0.612855 0.510651 0.532872
O9    O     O_2   0.852558 0.718853 0.512300 -0.491749
O10   O     O_2   0.846902 0.283659 0.479765 -0.494315
H1    H     H_    0.052878 0.188147 0.477681 0.189670
O11   O     O_2   0.148658 0.283840 0.488644 -0.534766
O12   O     O_2   0.149408 0.721314 0.517781 -0.532931
H2    H     H_    0.052632 0.814512 0.524701 0.188081
H3    H     H_    0.949594 0.813228 0.522180 0.188618
C19   C     C_R   0.238809 0.539328 0.621798 -0.096095
H4    H     H_    0.215792 0.567085 0.714974 0.144084
C20   C     C_R   0.298139 0.538790 0.621518 -0.229983
H5    H     H_    0.320158 0.568360 0.714363 0.150847
C21   C     C_R   0.328493 0.502211 0.501608 -0.034090
C22   C     C_R   0.298564 0.467914 0.381461 -0.216679
H6    H     H_    0.320916 0.439565 0.287511 0.151030
C23   C     C_R   0.239291 0.468439 0.381990 -0.101278
H7    H     H_    0.216658 0.441323 0.289007 0.142643
C24   C     C_R   0.209186 0.503683 0.502231 0.353160
C25   C     C_R   0.761322 0.482017 0.372067 -0.070560
H8    H     H_    0.784462 0.466104 0.275440 0.142343
C26   C     C_R   0.702005 0.482283 0.372602 -0.145422
H9    H     H_    0.680051 0.466150 0.275564 0.158830
C27   C     C_R   0.671562 0.501909 0.497662 -0.001505
C28   C     C_R   0.701460 0.522524 0.621709 -0.116167
H10   H     H_    0.679112 0.538633 0.719429 0.151565
C29   C     C_R   0.760734 0.522810 0.620712 -0.055559
H11   H     H_    0.783398 0.538389 0.716842 0.140095
C30   C     C_R   0.790787 0.502126 0.496099 0.345492
C31   C     C_R   0.549561 0.065688 0.507369 0.014379
C32   C     C_R   0.498857 0.129714 0.498324 -0.147328
C33   C     C_R   0.448431 0.064863 0.467535 -0.188959
H12   H     H_    0.409721 0.115910 0.449624 0.138408
C34   C     C_R   0.447621 0.934026 0.466729 0.155128
C35   C     C_R   0.498384 0.870610 0.496365 -0.128608
C36   C     C_R   0.549315 0.937424 0.506708 0.006933
C37   C     C_3   0.594972 0.930460 0.614062 0.074701
C38   C     C_3   0.595401 0.073311 0.613912 0.077336
H13   H     H_    0.579973 0.888316 0.714222 0.066607
H14   H     H_    0.580949 0.114152 0.714676 0.098090
C39   C     C_R   0.543011 0.557274 0.071553 0.235397
N3    N     N_R   0.500360 0.500930 0.147930 -0.206601
C40   C     C_R   0.461183 0.432509 0.078284 -0.062521
H15   H     H_    0.429147 0.381321 0.138255 0.143473
C41   C     C_R   0.460406 0.431919 0.930014 0.238314
N4    N     N_R   0.500360 0.500890 0.852020 -0.185866
C42   C     C_R   0.543067 0.557184 0.924553 0.229897
C43   C     C_3   0.559864 0.691533 0.917911 -0.507989
C44   C     C_3   0.560018 0.691396 0.076408 -0.446408
H16   H     H_    0.602902 0.705738 0.870444 0.213591
H17   H     H_    0.526025 0.750789 0.874053 0.214568
H18   H     H_    0.603151 0.705104 0.120419 0.224682
H19   H     H_    0.526489 0.750971 0.122781 0.222662
C45   C     C_3   0.941815 0.143214 0.471377 -0.695549
H20   H     H_    0.916390 0.137340 0.374788 0.265378
H21   H     H_    0.973314 0.067133 0.466478 0.188456
H22   H     H_    0.914492 0.125087 0.564927 0.268609
C46   C     C_3   0.392696 0.864192 0.441357 -0.823864
H23   H     H_    0.381641 0.804848 0.533380 0.222878
H24   H     H_    0.356969 0.928627 0.423240 0.238802
H25   H     H_    0.397393 0.804225 0.347959 0.237782
N5    N     N_R   0.647552 0.874912 0.561278 0.186833
O13   O     O_R   0.648562 0.814421 0.443842 -0.346657
O14   O     O_R   0.692250 0.874394 0.639768 -0.290148
N6    N     N_R   0.647679 0.131894 0.557953 0.184040
O15   O     O_R   0.663580 0.116008 0.428574 -0.278530
O16   O     O_R   0.677056 0.206671 0.636426 -0.332227
C47   C     C_3   0.411860 0.360501 0.865830 -0.774412
H26   H     H_    0.425319 0.303597 0.776617 0.261293
H27   H     H_    0.392166 0.293583 0.941743 0.180427
H28   H     H_    0.377907 0.425500 0.836556 0.227532

loop_
_geom_bond_atom_site_label_1
_geom_bond_atom_site_label_2
_geom_bond_distance
_ccdc_geom_bond_type
C38   H14   1.113233 S    
C29   H11   1.082835 S    
N6    O15   1.302459 A    
C7    C10   1.429015 A    
C41   N4    1.393986 A    
C39   C44   1.489785 S    
C8    C9    1.412593 A    
C43   H17   1.111335 S    
C22   H6    1.083199 S    
C25   C30   1.399779 A    
C28   H10   1.083097 S    
Cu1   O7    1.939001 S    
C34   C46   1.506875 S    
C15   C16   1.391170 A    
N2    C18   1.368460 A    
C18   O12   1.349621 S    
N2    C24   1.434511 S    
C17   N2    1.368951 A    
C43   H16   1.111655 S    
C19   H4    1.082836 S    
O7    C4    1.300552 A    
C46   H24   1.110699 S    
C5    N1    1.364501 A    
C47   H28   1.105854 S    
C33   C34   1.404421 A    
C7    C8    1.420136 A    
C23   C24   1.400295 A    
O5    C3    1.292857 A    
C31   C38   1.496143 S    
C4    C27   1.470650 S    
N1    C6    1.368870 A    
C37   H13   1.109558 S    
C47   H27   1.111196 S    
C26   C27   1.405492 A    
C12   C13   1.404129 A    
C39   C42   1.408254 A    
N3    C40   1.354752 A    
C20   C21   1.404750 A    
C17   O11   1.349797 S    
C32   C33   1.401672 A    
N6    O16   1.300426 A    
C10   C11   1.403056 A    
C5    C9    1.397751 A    
O3    Cu1   1.944692 S    
C26   H9    1.083013 S    
Cu1   N4    2.024951 S    
C28   C29   1.393309 A    
C31   C36   1.376861 A    
C37   N5    1.465103 S    
N4    C42   1.364579 A    
Cu1   Cu2   2.695245 S    
C13   C14   1.411602 A    
O3    C2    1.303093 A    
C40   C41   1.420847 A    
C46   H23   1.110604 S    
C14   C15   1.402335 A    
C23   H7    1.082895 S    
O6    C3    1.290241 A    
C33   H12   1.084288 S    
O1    C1    1.293188 A    
C42   C43   1.490534 S    
C34   C35   1.413887 A    
N5    O14   1.300583 A    
C3    C35   1.432910 S    
C44   H19   1.111606 S    
Cu2   O8    1.944691 S    
C47   H26   1.098820 S    
C6    C7    1.418991 A    
C12   C17   1.404587 A    
C43   C44   1.518454 S    
C22   C23   1.393454 A    
C19   C24   1.400843 A    
C38   N6    1.465939 S    
C15   H2    1.083267 S    
C25   H8    1.082813 S    
O8    C4    1.302516 A    
C45   H20   1.110068 S    
C45   H21   1.111128 S    
C29   C30   1.399171 A    
C21   C22   1.405239 A    
C27   C28   1.405892 A    
C44   H18   1.111634 S    
C14   C18   1.403221 A    
Cu1   O5    1.946141 S    
C11   H1    1.083808 S    
C20   H5    1.082030 S    
O1    Cu1   1.948314 S    
O2    Cu2   1.946141 S    
C46   H25   1.110239 S    
O4    Cu2   1.939006 S    
C5    O9    1.350073 S    
C9    C16   1.404915 A    
C45   H22   1.110080 S    
Cu2   N3    2.025090 S    
C36   C37   1.499104 S    
O2    C1    1.289635 A    
C31   C32   1.388081 A    
C40   H15   1.082525 S    
C19   C20   1.394811 A    
N5    O13   1.302089 A    
O4    C2    1.299770 A    
C16   H3    1.083336 S    
C25   C26   1.394417 A    
C8    C13   1.413715 A    
N1    C30   1.433027 S    
C39   N3    1.365254 A    
C35   C36   1.391719 A    
C10   C45   1.511654 S    
Cu2   O6    1.948313 S    
C37   C38   1.533349 S    
C2    C21   1.470305 S    
C6    O10   1.347469 S    
C11   C12   1.399589 A    
C41   C47   1.505710 S    
C1    C32   1.428540 S    
