data_mof_unit_49149.cif
_audit_creation_date              2012-12-11T16:08:51-0500
_audit_creation_method            fapswitch 2.2
_symmetry_space_group_name_H-M    P1
_symmetry_Int_Tables_number       1
_space_group_crystal_system       triclinic
_cell_length_a                    12.956929
_cell_length_b                    13.269587
_cell_length_c                    27.736539
_cell_angle_alpha                 94.686598
_cell_angle_beta                  90.371713
_cell_angle_gamma                 119.31779
_cell_volume                      4138.18635689

loop_
_atom_site_label
_atom_site_type_symbol
_atom_type_description
_atom_site_fract_x
_atom_site_fract_y
_atom_site_fract_z
_atom_type_partial_charge
C1    C     C_R   0.627884 0.895580 0.427356 0.544968
C2    C     C_R   0.582511 0.331971 0.227456 -0.071990
C3    C     C_R   0.572633 0.319507 0.277274 0.006776
C4    C     C_R   0.668673 0.325473 0.304720 0.011736
C5    C     C_R   0.685069 0.349837 0.204774 -0.000071
C6    C     C_1   0.695447 0.370348 0.154414 -0.050447
C7    C     C_1   0.653678 0.300954 0.354914 -0.001742
C8    C     C_1   0.704301 0.396010 0.113366 -0.008268
C9    C     C_R   0.186219 0.751244 0.349699 -0.114591
C10   C     C_R   0.173143 0.744228 0.299819 0.012604
C11   C     C_R   0.161077 0.737113 0.199248 0.013001
C12   C     C_R   0.601125 0.222300 0.440651 0.547426
C13   C     C_R   0.166197 0.648166 0.221163 -0.134301
C14   C     C_R   0.170254 0.650752 0.271291 -0.133897
C15   C     C_R   0.148102 0.730155 0.149343 -0.125512
C16   C     C_R   0.124271 0.808801 0.127514 -0.002234
C17   C     C_R   0.198653 0.940894 0.357049 -0.138239
C18   C     C_R   0.178154 0.931847 0.306922 -0.005144
C19   C     C_R   0.170357 0.835343 0.278149 0.063336
C20   C     C_R   0.171885 0.020107 0.284758 -0.106536
C21   C     C_R   0.157008 0.012322 0.234376 -0.101217
C22   C     C_R   0.152309 0.918032 0.205564 0.001995
C23   C     C_R   0.268574 0.875949 0.425726 0.548653
C24   C     C_R   0.161795 0.830557 0.227639 0.063514
C25   C     C_R   0.132266 0.906002 0.155309 -0.133113
C26   C     C_R   0.208727 0.853133 0.378063 0.000683
C27   C     C_R   0.754368 0.938312 0.357949 -0.129848
C28   C     C_R   0.763494 0.929163 0.307906 -0.021694
C29   C     C_R   0.762397 0.916430 0.206768 -0.017653
C30   C     C_R   0.854775 0.010802 0.234312 -0.106021
C31   C     C_R   0.859031 0.017056 0.284871 0.013781
C32   C     C_R   0.765221 0.908061 0.156802 -0.127143
C33   C     C_R   0.685351 0.805090 0.128961 -0.000898
C34   C     C_R   0.627548 0.898436 0.564890 0.549761
C35   C     C_R   0.564748 0.760096 0.352152 -0.126543
C36   C     C_R   0.572942 0.746308 0.302190 0.013503
C37   C     C_R   0.669577 0.833497 0.279808 0.051782
C38   C     C_R   0.482820 0.650230 0.273942 -0.113585
C39   C     C_R   0.487769 0.640257 0.223639 -0.119614
C40   C     C_R   0.581060 0.727929 0.200938 0.014575
C41   C     C_R   0.670834 0.826025 0.229203 0.059761
C42   C     C_R   0.589833 0.717101 0.150711 -0.132720
C43   C     C_R   0.652215 0.859384 0.379550 0.001127
C44   C     C_R   0.738877 0.285483 0.651419 0.311011
C45   C     C_R   0.604640 0.228583 0.578022 0.592574
C46   C     C_R   0.751347 0.306991 0.701721 -0.060646
C47   C     C_R   0.761580 0.331238 0.804070 0.062356
C48   C     C_R   0.831946 0.292679 0.778393 0.390132
C49   C     C_R   0.827883 0.282968 0.728033 -0.041446
C50   C     C_R   0.766972 0.348714 0.855496 0.026880
C51   C     C_R   0.689988 0.383073 0.878234 -0.034676
C52   C     C_R   0.586720 0.342490 0.649483 0.325252
C53   C     C_R   0.599164 0.365152 0.699733 0.022898
C54   C     C_R   0.678793 0.343275 0.726177 -0.063208
C55   C     C_R   0.526621 0.400695 0.724174 -0.068301
C56   C     C_R   0.271237 0.879123 0.563207 0.551307
C57   C     C_R   0.528417 0.408873 0.774309 -0.128390
C58   C     C_R   0.604633 0.384232 0.800630 0.045975
C59   C     C_R   0.682569 0.353775 0.777047 0.039193
C60   C     C_R   0.605366 0.393161 0.850424 -0.113964
C61   C     C_R   0.648997 0.293187 0.625808 0.025696
C62   C     C_1   0.218454 0.861381 0.609210 0.047799
C63   C     C_R   0.051490 0.757411 0.715729 -0.012044
C64   C     C_R   0.034549 0.744305 0.765928 0.034840
C65   C     C_R   0.232253 0.910135 0.785080 -0.090703
C66   C     C_R   0.250064 0.925084 0.735861 0.003925
C67   C     C_1   0.634077 0.271570 0.395376 0.030068
C68   C     C_R   0.160452 0.846912 0.700907 0.002359
C69   C     C_R   0.127481 0.820626 0.800276 0.044531
C70   C     C_1   0.115782 0.810999 0.851722 0.047702
C71   C     C_1   0.186703 0.852700 0.650161 0.022293
C72   C     C_1   0.096819 0.796026 0.893768 0.055376
C73   C     C_1   0.650078 0.857634 0.608082 0.095379
C74   C     C_R   0.796346 0.857972 0.718691 0.013257
C75   C     C_R   0.806163 0.845284 0.768167 0.345560
C76   C     C_R   0.596202 0.709091 0.767445 -0.209916
C77   C     C_R   0.582728 0.720026 0.718217 -0.014835
C78   C     C_R   0.774216 0.346088 0.281712 0.020063
C79   C     C_R   0.682778 0.798075 0.693774 0.017464
C80   C     C_R   0.706291 0.772755 0.792547 0.035380
C81   C     C_1   0.716870 0.764452 0.843756 0.036518
C82   C     C_1   0.666202 0.828098 0.646224 0.112246
C83   C     C_1   0.728987 0.759307 0.886538 0.027615
C84   C     C_R   0.064949 0.772524 0.079259 0.545006
C85   C     C_R   0.717071 0.441272 0.067281 0.544495
C86   C     C_R   0.720505 0.782631 0.081062 0.556801
C87   C     C_R   0.056398 0.766364 0.941211 0.546175
C88   C     C_R   0.710206 0.434419 0.928775 0.523864
C89   C     C_R   0.780597 0.358055 0.231793 -0.137062
C90   C     C_R   0.749513 0.753943 0.937041 0.568220
Cr1   Cr    Cr6+3 0.416430 0.829200 0.492370 1.070599
Cr2   Cr    Cr6+3 0.674630 0.087020 0.504170 1.125832
Cr3   Cr    Cr6+3 0.408920 0.083740 0.503490 1.083768
Cr4   Cr    Cr6+3 0.914010 0.832750 0.013970 1.039658
Cr5   Cr    Cr6+3 0.922310 0.578600 0.003000 1.058389
Cr6   Cr    Cr6+3 0.656280 0.574630 0.003870 1.034037
H1    H     H_    0.149811 0.080142 0.217973 0.148948
H2    H     H_    0.178570 0.094976 0.306399 0.166523
H3    H     H_    0.214584 0.019082 0.379015 0.130027
H4    H     H_    0.837942 0.977666 0.140165 0.133690
H5    H     H_    0.820520 0.013645 0.379997 0.138569
H6    H     H_    0.926447 0.077655 0.216103 0.147020
H7    H     H_    0.527079 0.637914 0.129212 0.126893
H8    H     H_    0.418337 0.564547 0.202499 0.123286
H9    H     H_    0.408443 0.582963 0.290762 0.138870
H10   H     H_    0.860888 0.374918 0.213849 0.104092
H11   H     H_    0.486498 0.698115 0.369028 0.132737
H12   H     H_    0.882021 0.251941 0.709666 0.213379
H13   H     H_    0.545498 0.418754 0.867449 0.145992
H14   H     H_    0.469685 0.434145 0.792560 0.111620
H15   H     H_    0.465408 0.418339 0.704670 0.191016
H16   H     H_    0.510273 0.328490 0.206071 0.161737
H17   H     H_    0.300877 0.968727 0.812116 0.163782
H18   H     H_    0.519929 0.651646 0.786635 0.108692
H19   H     H_    0.144274 0.656022 0.128026 0.136403
H20   H     H_    0.191308 0.681891 0.365797 0.150286
H21   H     H_    0.164638 0.575543 0.199548 0.111417
H22   H     H_    0.173758 0.581070 0.287744 0.122048
H23   H     H_    0.115221 0.967640 0.138411 0.125119
O1    O     O_R   0.296680 0.802170 0.437540 -0.515362
O2    O     O_R   0.662610 0.183990 0.557860 -0.439177
O3    O     O_R   0.500730 0.201280 0.562180 -0.446429
O4    O     O_R   0.312500 0.978850 0.548170 -0.493569
O5    O     O_3   0.499990 0.999990 0.500010 -0.284465
O6    O     O_R   0.820790 0.857990 0.068830 -0.518799
O7    O     O_R   0.016700 0.827330 0.062850 -0.503286
O8    O     O_R   0.041970 0.673520 0.060040 -0.519011
O9    O     O_R   0.817980 0.483660 0.048840 -0.495908
O10   O     O_R   0.637200 0.461990 0.052510 -0.506915
O11   O     O_R   0.664790 0.681920 0.057970 -0.494768
O12   O     O_R   0.525380 0.838530 0.443500 -0.504040
O13   O     O_R   0.815840 0.852920 0.961840 -0.486878
O14   O     O_R   0.012100 0.822630 0.963670 -0.512760
O15   O     O_R   0.037010 0.668460 0.953040 -0.470727
O16   O     O_R   0.813390 0.478970 0.949660 -0.487274
O17   O     O_R   0.632250 0.456930 0.945520 -0.524992
O18   O     O_R   0.660200 0.677230 0.958780 -0.498760
O19   O     O_3   0.830870 0.661990 0.006950 -0.273169
O20   O     O_R   0.702130 0.995190 0.446810 -0.511308
O21   O     O_R   0.661770 0.181390 0.458760 -0.478740
O22   O     O_R   0.499820 0.198480 0.455280 -0.514611
O23   O     O_R   0.311660 0.976250 0.449080 -0.502244
O24   O     O_R   0.297580 0.804960 0.544440 -0.484944
O25   O     O_R   0.526220 0.841130 0.542590 -0.489202
O26   O     O_R   0.703030 0.997990 0.553710 -0.454972
C91   C     C_2   0.880481 0.356388 0.307574 0.247453
H24   H     H_    0.957009 0.370023 0.287348 0.134476
O27   O     O_2   0.885453 0.351144 0.351182 -0.483779
C92   C     C_2   0.964757 0.115165 0.312070 0.223370
H25   H     H_    0.987710 0.110759 0.349130 0.111162
O28   O     O_2   0.030427 0.202216 0.292692 -0.517358
C93   C     C_2   0.853801 0.336410 0.886011 0.361421
H26   H     H_    0.823655 0.282905 0.916001 0.080263
O29   O     O_2   0.959882 0.392486 0.880096 -0.397239
F1    F     F_    0.806609 0.246295 0.628289 -0.603641
F2    F     F_    0.900721 0.257959 0.800924 -0.586678
F3    F     F_    0.506758 0.359076 0.624223 -0.593111
C94   C     C_2   0.957117 0.673933 0.679079 0.231586
H27   H     H_    0.898882 0.584963 0.686628 0.093670
O30   O     O_2   0.941951 0.703909 0.640413 -0.448912
C95   C     C_2   0.918094 0.653833 0.781880 0.237674
H28   H     H_    0.837610 0.623814 0.759484 0.091388
O31   O     O_2   0.910241 0.610916 0.819884 -0.504876
C96   C     C_2   0.363957 0.022135 0.721539 0.235928
H29   H     H_    0.378738 0.039056 0.683898 0.113488
O32   O     O_2   0.443163 0.085207 0.751820 -0.514852
C97   C     C_2   0.906737 0.935908 0.695009 0.293994
H30   H     H_    0.988021 0.991340 0.716865 0.179120
O33   O     O_2   0.910047 0.937464 0.651099 -0.467922
F4    F     F_    0.913272 0.904800 0.793014 -0.642428
C98   C     C_2   0.461622 0.649337 0.694645 0.245045
H31   H     H_    0.386784 0.602599 0.716678 0.115353
O34   O     O_2   0.443525 0.639452 0.650826 -0.464316
C99   C     C_2   0.461364 0.300283 0.299995 0.212290
H32   H     H_    0.449442 0.286775 0.338040 0.115591
O35   O     O_2   0.381236 0.299951 0.276411 -0.521258

loop_
_geom_bond_atom_site_label_1
_geom_bond_atom_site_label_2
_ccdc_geom_bond_type
C66   C68   A    
C98   H31   S    
C80   C81   S    
C87   O14   A    
C35   C36   A    
Cr3   O5    S    
C42   H7    S    
C72   C87   S    
C95   H28   S    
C29   C41   A    
C39   H8    S    
Cr6   O17   S    
Cr5   O8    S    
C53   C54   A    
C98   O34   D    
C46   C49   A    
C34   O25   A    
C96   O32   D    
C33   C42   A    
Cr6   O11   S    
C96   H29   S    
C8    C85   S    
C29   C32   A    
C52   C61   A    
C92   O28   D    
Cr6   O19   S    
C5    C6    S    
C31   C92   S    
C34   O26   A    
C65   C69   A    
C92   H25   S    
Cr1   O12   S    
C58   C60   A    
C15   C16   A    
C11   C24   A    
C16   C84   S    
Cr4   O14   S    
C12   O22   A    
C18   C19   A    
C23   C26   S    
C45   C61   S    
C83   C90   S    
C99   H32   S    
C60   H13   S    
C95   O31   D    
C56   O24   A    
C11   C15   A    
Cr5   O9    S    
C1    C43   S    
C47   C48   A    
C14   H22   S    
C22   C25   A    
C89   H10   S    
C76   H18   S    
C12   O21   A    
C23   O23   A    
C47   C50   A    
C20   H2    S    
C35   C43   A    
C75   C80   A    
Cr1   O24   S    
C1    O20   A    
C56   C62   S    
C90   O13   A    
C84   O8    A    
Cr4   O7    S    
C48   F2    S    
C21   C22   A    
C86   O6    A    
C94   O30   D    
C44   F1    S    
C87   O15   A    
C30   H6    S    
C4    C7    S    
C25   H23   S    
C74   C97   S    
C81   C83   T    
C44   C46   A    
C9    C26   A    
C50   C51   A    
C49   H12   S    
C91   O27   D    
C54   C59   A    
C53   C55   A    
C78   C89   A    
C84   O7    A    
C38   C39   A    
C12   C67   S    
C74   C75   A    
C56   O4    A    
C76   C80   A    
C76   C77   A    
C88   O17   A    
C97   O33   D    
C10   C14   A    
C23   O1    A    
C86   O11   A    
C6    C8    T    
C45   O2    A    
C58   C59   A    
C47   C59   A    
C27   H5    S    
Cr5   O15   S    
Cr4   O13   S    
C32   H4    S    
Cr1   O25   S    
C33   C86   S    
C4    C78   A    
C29   C30   A    
C85   O10   A    
C21   H1    S    
C3    C99   S    
C57   H14   S    
C44   C61   A    
C10   C19   A    
C77   C98   S    
C2    H16   S    
C46   C54   A    
C75   F4    S    
Cr5   O16   S    
C17   C18   A    
C77   C79   A    
C66   C96   S    
C64   C69   A    
Cr3   O3    S    
C17   H3    S    
C40   C41   A    
C93   O29   D    
C74   C79   A    
C55   C57   A    
C94   H27   S    
Cr4   O19   S    
C22   C24   A    
C2    C5    A    
C17   C26   A    
C36   C38   A    
Cr2   O21   S    
C73   C82   T    
C97   H30   S    
C90   O18   A    
Cr3   O22   S    
C52   C53   A    
C15   H19   S    
C91   H24   S    
C9    C10   A    
Cr4   O6    S    
C16   C25   A    
C27   C43   A    
C63   C68   A    
C36   C37   A    
Cr5   O19   S    
C55   H15   S    
Cr2   O26   S    
C9    H20   S    
C65   H17   S    
Cr6   O18   S    
C28   C31   A    
Cr3   O4    S    
C88   O16   A    
C64   C95   S    
C1    O12   A    
C51   C88   S    
C79   C82   S    
C13   H21   S    
C45   O3    A    
Cr1   O5    S    
C32   C33   A    
C38   H9    S    
Cr2   O5    S    
C19   C24   A    
Cr2   O2    S    
C11   C13   A    
C57   C58   A    
C30   C31   A    
C28   C37   A    
C68   C71   S    
C48   C49   A    
C40   C42   A    
C62   C71   T    
C2    C3    A    
C18   C20   A    
C37   C41   A    
C69   C70   S    
C99   O35   D    
C35   H11   S    
C78   C91   S    
C34   C73   S    
C7    C67   T    
C63   C64   A    
C39   C40   A    
C50   C93   S    
C52   F3    S    
C93   H26   S    
C20   C21   A    
C65   C66   A    
C27   C28   A    
Cr1   O1    S    
C85   O9    A    
C70   C72   T    
C51   C60   A    
C63   C94   S    
C13   C14   A    
Cr2   O20   S    
C5    C89   A    
Cr3   O23   S    
C3    C4    A    
Cr6   O10   S    
