data_mof_unit_23511.cif
_audit_creation_date              2012-10-26T18:49:35-0400
_audit_creation_method            fapswitch 2.2
_symmetry_space_group_name_H-M    P1
_symmetry_Int_Tables_number       1
_space_group_crystal_system       triclinic
_cell_length_a                    19.387083
_cell_length_b                    11.105686
_cell_length_c                    9.814647
_cell_angle_alpha                 111.509408
_cell_angle_beta                  98.739602
_cell_angle_gamma                 91.409999
_cell_volume                      1935.74140106

loop_
_atom_site_label
_atom_site_type_symbol
_atom_type_description
_atom_site_fract_x
_atom_site_fract_y
_atom_site_fract_z
_atom_type_partial_charge
C1    C     C_R   0.492979 0.254079 0.439797 0.540635
C2    C     C_R   0.632766 0.499788 0.499880 0.548990
C3    C     C_R   0.265195 0.517386 0.630174 -0.189403
C4    C     C_R   0.734805 0.482611 0.369825 -0.189398
C5    C     C_R   0.193166 0.515540 0.632196 0.218610
C6    C     C_R   0.806834 0.484456 0.367803 0.218609
C7    C     C_R   0.145910 0.503298 0.502625 0.000286
C8    C     C_R   0.854090 0.496701 0.497375 0.000282
C9    C     C_R   0.171468 0.491933 0.371874 0.230454
C10   C     C_R   0.828532 0.508069 0.628126 0.230455
C11   C     C_R   0.243303 0.484380 0.367714 0.251819
C12   C     C_R   0.507021 0.745921 0.560203 0.540633
C13   C     C_R   0.756697 0.515622 0.632287 0.251819
C14   C     C_R   0.290948 0.500638 0.498996 -0.082228
C15   C     C_R   0.709052 0.499362 0.501004 -0.082229
C16   C     C_R   0.930024 0.498946 0.497926 0.355232
C17   C     C_R   0.069976 0.501053 0.502073 0.355238
C18   C     C_3   0.171953 0.416082 0.788718 -0.100093
C19   C     C_3   0.828058 0.583917 0.211292 -0.100092
C20   C     C_3   0.121540 0.610211 0.243979 -0.087165
C21   C     C_3   0.878460 0.389796 0.756029 -0.087163
C22   C     C_3   0.257568 0.339382 0.142330 -0.084794
C23   C     C_2   0.481761 0.114285 0.404923 0.254117
C24   C     C_3   0.742432 0.660625 0.857669 -0.084794
C25   C     C_3   0.372462 0.863128 0.420913 -0.082231
C26   C     C_3   0.627538 0.136867 0.579080 -0.082235
C27   C     C_3   0.621270 0.922327 0.764448 -0.091393
C28   C     C_3   0.378728 0.077677 0.235557 -0.091397
C29   C     C_2   0.518237 0.885715 0.595077 0.254116
C30   C     C_2   0.511770 0.065845 0.505174 0.272433
C31   C     C_2   0.488229 0.934154 0.494824 0.272431
C32   C     C_2   0.506109 0.510671 0.081914 0.016112
C33   C     C_2   0.493891 0.489329 0.918086 0.016112
C34   C     C_R   0.367234 0.500212 0.500120 0.548990
Cu1   Cu    Cu3+1 0.512140 0.521810 0.644910 0.976057
Cu2   Cu    Cu3+1 0.487860 0.478190 0.355090 0.976056
H1    H     H_    0.568989 0.623012 0.935830 0.199637
H2    H     H_    0.773131 0.608288 0.190512 0.101067
H3    H     H_    0.173165 0.652813 0.238659 0.144688
H4    H     H_    0.100672 0.675290 0.342354 0.108288
H5    H     H_    0.084609 0.604088 0.143083 0.161039
H6    H     H_    0.899329 0.324715 0.657656 0.108291
H7    H     H_    0.826835 0.347196 0.761351 0.144690
H8    H     H_    0.915391 0.395922 0.856927 0.161039
H9    H     H_    0.281811 0.276241 0.198612 0.083888
H10   H     H_    0.283767 0.327198 0.045750 0.111623
H11   H     H_    0.201143 0.306810 0.098801 0.152244
H12   H     H_    0.431011 0.376988 0.064170 0.199636
H13   H     H_    0.716234 0.672809 0.954251 0.111627
H14   H     H_    0.718186 0.723763 0.801384 0.083887
H15   H     H_    0.798857 0.693199 0.901194 0.152245
H16   H     H_    0.331828 0.810026 0.322409 0.162534
H17   H     H_    0.358495 0.965050 0.469187 0.086205
H18   H     H_    0.371057 0.815129 0.502084 0.108441
H19   H     H_    0.641503 0.034944 0.530806 0.086205
H20   H     H_    0.668173 0.189968 0.677583 0.162532
H21   H     H_    0.628942 0.184865 0.497908 0.108441
H22   H     H_    0.644759 0.871454 0.663731 0.063014
H23   H     H_    0.300900 0.531076 0.731962 0.162772
H24   H     H_    0.616145 0.858420 0.827340 0.141403
H25   H     H_    0.658477 0.006787 0.837462 0.146040
H26   H     H_    0.383852 0.141585 0.172665 0.141404
H27   H     H_    0.355239 0.128551 0.336276 0.063015
H28   H     H_    0.341519 0.993219 0.162543 0.146038
H29   H     H_    0.452930 0.416448 0.843750 0.143590
H30   H     H_    0.547070 0.583552 0.156250 0.143592
H31   H     H_    0.699099 0.468920 0.268037 0.162777
H32   H     H_    0.140295 0.334347 0.694473 0.110216
H33   H     H_    0.149232 0.428540 0.889732 0.171386
H34   H     H_    0.226885 0.391740 0.809525 0.101073
H35   H     H_    0.850771 0.571453 0.110268 0.171385
H36   H     H_    0.859730 0.665636 0.305533 0.110226
N1    N     N_R   0.024640 0.423289 0.379685 -0.186635
N2    N     N_R   0.975360 0.576710 0.620314 -0.186634
N3    N     N_R   0.955911 0.422174 0.377590 -0.177755
N4    N     N_R   0.044089 0.577825 0.622409 -0.177753
N5    N     N_2   0.469620 0.445420 0.137370 -0.333973
N6    N     N_2   0.530380 0.554580 0.862630 -0.333973
O1    O     O_R   0.506480 0.332340 0.577400 -0.470197
O2    O     O_3   0.830769 0.466914 0.236557 -0.533423
O3    O     O_3   0.126000 0.484056 0.245137 -0.547879
O4    O     O_3   0.874000 0.515950 0.754866 -0.547878
O5    O     O_3   0.266967 0.471608 0.237362 -0.529805
O6    O     O_3   0.733033 0.528398 0.762640 -0.529803
O7    O     O_3   0.438221 0.857322 0.374639 -0.529680
O8    O     O_3   0.561780 0.142676 0.625357 -0.529681
O9    O     O_3   0.555984 0.968470 0.731684 -0.537353
O10   O     O_3   0.444013 0.031531 0.268318 -0.537353
O11   O     O_R   0.493520 0.667660 0.422600 -0.470197
O12   O     O_R   0.485980 0.295500 0.332650 -0.498410
O13   O     O_R   0.514020 0.704500 0.667350 -0.498410
O14   O     O_R   0.410390 0.518410 0.622410 -0.518154
O15   O     O_R   0.589610 0.481590 0.377590 -0.518155
O16   O     O_R   0.389900 0.481570 0.377660 -0.442265
O17   O     O_R   0.610100 0.518430 0.622340 -0.442264
O18   O     O_3   0.169230 0.533079 0.763440 -0.533421

loop_
_geom_bond_atom_site_label_1
_geom_bond_atom_site_label_2
_ccdc_geom_bond_type
Cu2   O11   S    
C18   H34   S    
C1    O12   A    
C31   O7    S    
C12   C29   S    
C16   N3    A    
C18   O18   S    
C12   O13   A    
C19   H35   S    
Cu1   Cu2   S    
C26   H19   S    
C20   H5    S    
C33   H29   S    
Cu1   O13   S    
C13   O6    S    
N2    N4    A    
C16   N2    A    
C2    O17   A    
C25   H17   S    
Cu2   N5    S    
C28   H26   S    
C30   C31   S    
C20   H4    S    
C11   C14   A    
C33   N6    D    
C18   H32   S    
C27   H25   S    
C32   N5    D    
C21   H7    S    
Cu2   O15   S    
C7    C17   S    
C28   O10   S    
C17   N4    A    
C30   O8    S    
Cu1   O14   S    
C24   H15   S    
C22   H11   S    
C8    C16   S    
C20   O3    S    
C17   N1    A    
N1    N3    A    
C19   H36   S    
C24   H14   S    
C23   C30   D    
C12   O11   A    
C25   H18   S    
C4    C6    A    
C5    C7    A    
C20   H3    S    
C6    C8    A    
C11   O5    S    
C10   C13   A    
H12   N5    S    
C19   H2    S    
C21   H8    S    
C6    O2    S    
C26   O8    S    
C25   O7    S    
C27   O9    S    
C2    C15   S    
C9    C11   A    
C3    C14   A    
C28   H28   S    
C22   H10   S    
C1    C23   S    
C23   O10   S    
C13   C15   A    
C1    O1    A    
C5    O18   S    
C32   H30   S    
Cu2   O12   S    
C24   H13   S    
C7    C9    A    
C2    O15   A    
C34   O16   A    
C3    C5    A    
C27   H22   S    
C26   H20   S    
C14   C34   S    
C4    H31   S    
Cu1   O17   S    
H1    N6    S    
Cu1   N6    S    
C27   H24   S    
C22   O5    S    
C4    C15   A    
C24   O6    S    
C25   H16   S    
C29   C31   D    
C32   C33   S    
C18   H33   S    
Cu1   O1    S    
C10   O4    S    
C19   O2    S    
C26   H21   S    
C34   O14   A    
C29   O9    S    
C21   H6    S    
C28   H27   S    
Cu2   O16   S    
C22   H9    S    
C21   O4    S    
C8    C10   A    
C9    O3    S    
C3    H23   S    
