data_mof_unit_53405.cif
_audit_creation_date              2012-12-10T16:53:53-0500
_audit_creation_method            fapswitch 2.2
_symmetry_space_group_name_H-M    P1
_symmetry_Int_Tables_number       1
_space_group_crystal_system       triclinic
_cell_length_a                    7.824583
_cell_length_b                    8.583876
_cell_length_c                    10.624578
_cell_angle_alpha                 91.718427
_cell_angle_beta                  84.795349
_cell_angle_gamma                 93.491614
_cell_volume                      709.126262387

loop_
_atom_site_label
_atom_site_type_symbol
_atom_type_description
_atom_site_fract_x
_atom_site_fract_y
_atom_site_fract_z
_atom_type_partial_charge
C1    C     C_R   0.545814 0.793603 0.486775 0.935970
C2    C     C_3   0.401067 0.644570 0.935052 -0.378814
C3    C     C_3   0.391218 0.643004 0.080663 -0.000178
C4    C     C_3   0.417247 0.350514 0.930175 -0.405809
C5    C     C_3   0.689601 0.526478 0.915709 -0.400581
C6    C     C_3   0.502421 0.505648 0.878072 0.128513
C7    C     C_3   0.734375 0.015850 0.376353 -0.343520
C8    C     C_3   0.836789 0.895795 0.297337 -0.901712
C9    C     C_2   0.984787 0.654798 0.623330 0.547951
C10   C     C_3   0.440010 0.806681 0.136905 -0.414270
C11   C     C_3   0.308860 0.925496 0.114800 -0.890504
C12   C     C_3   0.501343 0.509194 0.121098 0.132179
C13   C     C_3   0.422170 0.350456 0.074115 -0.459821
C14   C     C_3   0.689159 0.529910 0.058681 -0.390775
C15   C     C_2   0.570050 0.953832 0.455111 -0.043614
C16   C     C_2   0.436053 0.041275 0.493705 -0.453928
C17   C     C_R   0.501114 0.502299 0.741901 0.843458
C18   C     C_R   0.455389 0.205516 0.496459 0.949495
C19   C     C_R   0.500375 0.503588 0.257899 0.798116
H1    H     H_    0.267698 0.637630 0.905732 0.200133
H2    H     H_    0.289527 0.327486 0.119716 0.170484
H3    H     H_    0.766465 0.428524 0.875908 0.189926
H4    H     H_    0.753040 0.637164 0.877813 0.171061
H5    H     H_    0.753235 0.641262 0.089795 0.164345
H6    H     H_    0.926738 0.840494 0.355120 0.279930
H7    H     H_    0.750262 0.805030 0.257289 0.255705
H8    H     H_    0.913658 0.955488 0.218100 0.233157
H9    H     H_    0.696792 0.100118 0.307635 0.216908
H10   H     H_    0.823556 0.077100 0.439693 0.233778
H11   H     H_    0.852846 0.678708 0.638934 0.098609
H12   H     H_    0.767352 0.434114 0.085886 0.186627
H13   H     H_    0.321945 0.961413 0.014720 0.264288
H14   H     H_    0.176691 0.875145 0.138879 0.261079
H15   H     H_    0.329642 0.030346 0.176396 0.248523
H16   H     H_    0.443371 0.799596 0.240382 0.219061
H17   H     H_    0.568792 0.850858 0.095834 0.214834
H18   H     H_    0.485896 0.249621 0.886610 0.169657
H19   H     H_    0.500901 0.254289 0.099570 0.178167
H20   H     H_    0.314533 0.992706 0.538201 0.193187
H21   H     H_    0.013510 0.381139 0.404526 0.179200
H22   H     H_    0.465133 0.755155 0.897468 0.169935
H23   H     H_    0.254951 0.612687 0.115876 0.166317
H24   H     H_    0.281359 0.335996 0.906476 0.180025
N1    N     N_2   0.950330 0.457950 0.465890 -0.217336
N2    N     N_2   0.049670 0.542050 0.534110 -0.119378
O1    O     O_R   0.389250 0.738570 0.508370 -0.593282
O2    O     O_R   0.678390 0.711620 0.486510 -0.647767
O3    O     O_R   0.355430 0.513500 0.696140 -0.582272
O4    O     O_R   0.644580 0.486550 0.674270 -0.665518
O5    O     O_R   0.321610 0.288380 0.513490 -0.622948
O6    O     O_R   0.610750 0.261430 0.491630 -0.620396
O7    O     O_R   0.355420 0.513450 0.325730 -0.642613
O8    O     O_R   0.644570 0.486500 0.303860 -0.633945
O9    O     O_2   0.084248 0.730298 0.686685 -0.617262
Zn1   Zn    Zn3+2 0.306940 0.517990 0.514600 0.968381
Zn2   Zn    Zn3+2 0.693060 0.482010 0.485400 0.897247

loop_
_geom_bond_atom_site_label_1
_geom_bond_atom_site_label_2
_ccdc_geom_bond_type
O1    Zn1   S    
C18   O6    A    
O3    Zn1   S    
O7    Zn1   S    
C3    H23   S    
C9    N2    S    
C10   H16   S    
C1    C15   S    
C4    H24   S    
O4    Zn2   S    
C8    H7    S    
N1    Zn2   S    
O5    Zn1   S    
C5    H4    S    
C17   O3    A    
C11   H14   S    
C14   H12   S    
C19   O8    A    
C7    C15   S    
C2    C3    S    
C13   H19   S    
C13   H2    S    
C7    C8    S    
C3    C10   S    
C12   C13   S    
C8    H6    S    
N2    Zn1   S    
C5    C14   S    
C2    C6    S    
C9    H11   S    
C7    H10   S    
C12   C19   S    
C16   C18   S    
C12   C14   S    
C11   H13   S    
C5    C6    S    
C1    O1    A    
N1    N2    D    
C10   C11   S    
C7    H9    S    
C16   H20   S    
C2    H1    S    
C15   C16   D    
H21   N1    S    
C4    H18   S    
C18   O5    A    
C4    C6    S    
O6    Zn2   S    
O8    Zn2   S    
C14   H5    S    
C4    C13   S    
C8    H8    S    
C6    C17   S    
C1    O2    A    
C10   H17   S    
C9    O9    D    
C2    H22   S    
C3    C12   S    
C19   O7    A    
C11   H15   S    
C17   O4    A    
C5    H3    S    
O2    Zn2   S    
