data_mof_unit_24533.cif
_audit_creation_date              2012-12-11T14:46:09-0500
_audit_creation_method            fapswitch 2.2
_symmetry_space_group_name_H-M    P1
_symmetry_Int_Tables_number       1
_space_group_crystal_system       triclinic
_cell_length_a                    10.922796
_cell_length_b                    11.017148
_cell_length_c                    18.797808
_cell_angle_alpha                 90.084948
_cell_angle_beta                  89.83396
_cell_angle_gamma                 120.219584
_cell_volume                      1954.67164314

loop_
_atom_site_label
_atom_site_type_symbol
_atom_type_description
_atom_site_fract_x
_atom_site_fract_y
_atom_site_fract_z
_atom_type_partial_charge
C1    C     C_R   0.871298 0.633864 0.606490 0.586250
C2    C     C_R   0.931516 0.133928 0.707087 -0.022865
C3    C     C_R   0.949416 0.144906 0.781926 -0.015611
C4    C     C_R   0.269013 0.630970 0.603834 0.573211
C5    C     C_R   0.732765 0.176102 0.719170 0.073339
C6    C     C_R   0.769598 0.213365 0.790690 -0.005434
C7    C     C_R   0.602131 0.161454 0.694792 0.315503
C8    C     C_R   0.531787 0.213306 0.736520 -0.048213
C9    C     C_R   0.583263 0.271075 0.802877 -0.134156
C10   C     C_R   0.703275 0.274514 0.829275 -0.090178
C11   C     C_R   0.830351 0.160134 0.674942 0.053458
C12   C     C_R   0.230100 0.582338 0.800348 -0.112071
C13   C     C_R   0.710288 0.573353 0.709993 0.156288
C14   C     C_R   0.693249 0.584920 0.782743 -0.159849
C15   C     C_R   0.811844 0.649599 0.827247 -0.043541
C16   C     C_R   0.858439 0.223741 0.602643 0.548543
C17   C     C_R   0.947464 0.703711 0.799913 -0.123659
C18   C     C_R   0.967490 0.704813 0.727170 0.217477
C19   C     C_R   0.847963 0.640941 0.681856 0.093890
C20   C     C_R   0.254425 0.540339 0.276412 -0.185295
C21   C     C_R   0.266795 0.554827 0.203819 -0.149932
C22   C     C_R   0.335289 0.688670 0.173857 -0.007438
C23   C     C_R   0.197652 0.564893 0.728710 0.212027
C24   C     C_R   0.377066 0.807709 0.216755 -0.127146
C25   C     C_R   0.356299 0.792930 0.290509 0.248557
C26   C     C_R   0.302269 0.658542 0.320402 0.048973
C27   C     C_R   0.753627 0.211955 0.278932 -0.103911
C28   C     C_R   0.864098 0.640097 0.398413 0.540173
C29   C     C_R   0.754376 0.203946 0.206249 -0.119312
C30   C     C_R   0.849064 0.172380 0.171982 0.029136
C31   C     C_R   0.956006 0.168498 0.211059 -0.157777
C32   C     C_R   0.957387 0.179704 0.284971 -0.153552
C33   C     C_R   0.853494 0.198038 0.319274 0.044863
C34   C     C_R   0.301722 0.654143 0.678501 0.062860
C35   C     C_R   0.889533 0.799280 0.300811 -0.155217
C36   C     C_R   0.874335 0.816413 0.229411 -0.187267
C37   C     C_R   0.780554 0.702544 0.187607 0.047668
C38   C     C_R   0.692988 0.568830 0.219037 0.264614
C39   C     C_R   0.713743 0.552132 0.291381 -0.131256
C40   C     C_R   0.267580 0.631830 0.395317 0.571324
C41   C     C_R   0.815039 0.665615 0.331220 -0.007677
C42   C     C_R   0.811675 0.107696 0.895991 0.521520
C43   C     C_R   0.399075 0.702643 0.895975 0.542667
C44   C     C_R   0.796974 0.690243 0.897949 0.557585
C45   C     C_R   0.859221 0.173823 0.824515 -0.017246
C46   C     C_R   0.809722 0.109831 0.101569 0.539637
C47   C     C_R   0.394355 0.704544 0.103192 0.543513
C48   C     C_R   0.774476 0.730642 0.112060 0.577920
C49   C     C_R   0.863906 0.233844 0.394211 0.546746
C50   C     C_R   0.434720 0.761655 0.700742 0.222065
C51   C     C_R   0.461171 0.783992 0.773312 -0.111818
C52   C     C_R   0.359305 0.692950 0.822591 -0.064919
C53   C     C_3   0.607566 0.785118 0.623513 -0.011971
C54   C     C_3   0.665064 0.845018 0.550118 -0.335901
C55   C     C_3   0.324822 0.978074 0.317461 -0.004118
C56   C     C_R   0.058625 0.128710 0.811881 -0.121909
C57   C     C_3   0.346293 0.081899 0.376274 -0.351949
C58   C     C_3   0.477750 0.357726 0.210154 -0.014554
C59   C     C_3   0.371209 0.263882 0.154485 -0.363192
C60   C     C_R   0.138158 0.087170 0.770342 0.280520
C61   C     C_R   0.116416 0.071324 0.696864 0.309866
C62   C     C_R   0.012981 0.093706 0.665775 -0.134561
Cr1   Cr    Cr6+3 0.791660 0.390250 0.499930 1.051467
Cr2   Cr    Cr6+3 0.098520 0.708290 0.500540 1.051106
Cr3   Cr    Cr6+3 0.109770 0.401430 0.499480 1.003270
Cr4   Cr    Cr6+3 0.874790 0.925890 0.000070 0.995706
Cr5   Cr    Cr6+3 0.574120 0.948670 0.999300 1.014910
Cr6   Cr    Cr6+3 0.551420 0.625320 0.000920 1.026237
H1    H     H_    0.437170 0.209814 0.717194 0.190595
H2    H     H_    0.672946 0.212183 0.177544 0.156003
H3    H     H_    0.033665 0.150474 0.184846 0.108722
H4    H     H_    0.039219 0.174760 0.315038 0.108862
H5    H     H_    0.967563 0.888942 0.330827 0.130876
H6    H     H_    0.940562 0.918179 0.205850 0.131318
H7    H     H_    0.659664 0.449123 0.315412 0.108688
H8    H     H_    0.152960 0.511783 0.838830 0.143012
H9    H     H_    0.086826 0.152496 0.867228 0.124143
H10   H     H_    0.993606 0.074977 0.609302 0.101581
H11   H     H_    0.739816 0.317949 0.881870 0.137622
H12   H     H_    0.527615 0.309748 0.834871 0.126702
H13   H     H_    0.537797 0.669985 0.616342 0.174786
H14   H     H_    0.697484 0.806276 0.658900 0.140523
H15   H     H_    0.739596 0.959447 0.553346 0.156674
H16   H     H_    0.722140 0.793986 0.527650 0.103781
H17   H     H_    0.576482 0.825195 0.514058 0.179464
H18   H     H_    0.451426 0.089718 0.623764 0.350597
H19   H     H_    0.506808 0.463593 0.693972 0.315754
H20   H     H_    0.173311 0.810738 0.738224 0.361607
H21   H     H_    0.208866 0.902391 0.312879 0.148086
H22   H     H_    0.364304 0.037352 0.266834 0.104789
H23   H     H_    0.587818 0.546436 0.804150 0.131379
H24   H     H_    0.460655 0.160422 0.381955 0.159063
H25   H     H_    0.288162 0.137577 0.363125 0.070170
H26   H     H_    0.305467 0.025378 0.427510 0.171423
H27   H     H_    0.431085 0.411628 0.240568 0.132923
H28   H     H_    0.496133 0.288753 0.246126 0.105708
H29   H     H_    0.414855 0.208275 0.123456 0.154010
H30   H     H_    0.271993 0.184642 0.181057 0.070981
H31   H     H_    0.346955 0.327700 0.117715 0.170895
H32   H     H_    0.037807 0.486869 0.663815 0.344114
H33   H     H_    0.237361 0.072548 0.852827 0.306321
H34   H     H_    0.038490 0.753572 0.834924 0.143392
H35   H     H_    0.172086 0.030215 0.605580 0.315608
H36   H     H_    0.205776 0.435291 0.298092 0.143936
H37   H     H_    0.232177 0.461634 0.171526 0.138308
H38   H     H_    0.433741 0.912064 0.193907 0.132263
H39   H     H_    0.563557 0.867615 0.791119 0.145088
H40   H     H_    0.675533 0.232010 0.303147 0.133962
O1    O     O_R   0.766500 0.250040 0.579790 -0.455613
O2    O     O_R   0.413330 0.603360 0.920440 -0.526043
O3    O     O_R   0.676110 0.626250 0.926750 -0.506065
O4    O     O_R   0.798570 0.516780 0.574780 -0.465516
O5    O     O_R   0.895350 0.809870 0.080950 -0.527990
O6    O     O_R   0.872490 0.049760 0.073800 -0.525652
O7    O     O_R   0.691680 0.088070 0.079070 -0.525368
O8    O     O_R   0.451720 0.825250 0.074050 -0.509878
O9    O     O_R   0.413580 0.606370 0.080960 -0.523646
O10   O     O_R   0.676340 0.629040 0.075550 -0.436345
O11   O     O_3   0.666780 0.833290 0.000090 -0.270356
O12   O     O_R   0.218690 0.701900 0.425960 -0.466908
O13   O     O_R   0.984000 0.732950 0.581090 -0.483905
O14   O     O_R   0.218600 0.700890 0.574760 -0.445163
O15   O     O_R   0.249390 0.515350 0.579940 -0.525653
O16   O     O_R   0.982790 0.280900 0.573700 -0.511741
O17   O     O_R   0.766600 0.251130 0.419260 -0.518759
O18   O     O_R   0.798660 0.517790 0.425980 -0.512597
O19   O     O_R   0.984100 0.734040 0.420570 -0.537307
O20   O     O_3   0.535204 0.850173 0.652033 -0.518671
O21   O     O_3   0.539275 0.087279 0.633329 -0.610272
O22   O     O_3   0.595234 0.500552 0.665639 -0.723844
O23   O     O_R   0.249490 0.516440 0.419420 -0.540882
O24   O     O_3   0.102936 0.766515 0.699487 -0.628593
O25   O     O_3   0.400556 0.909009 0.334265 -0.547916
O26   O     O_3   0.605479 0.454633 0.175902 -0.534845
O27   O     O_3   0.062059 0.463204 0.710402 -0.703681
O28   O     O_3   0.236514 0.059527 0.800588 -0.708019
O29   O     O_3   0.198782 0.035348 0.656336 -0.660169
O30   O     O_R   0.982880 0.281910 0.424890 -0.517147
O31   O     O_3   0.999980 0.499990 0.499980 -0.281522
O32   O     O_R   0.895110 0.806860 0.920430 -0.514112
O33   O     O_R   0.872260 0.046970 0.925000 -0.509687
O34   O     O_R   0.691430 0.085060 0.918550 -0.511177
O35   O     O_R   0.451490 0.822460 0.925250 -0.488082

loop_
_geom_bond_atom_site_label_1
_geom_bond_atom_site_label_2
_ccdc_geom_bond_type
C6    C45   A    
C27   C29   A    
C59   H31   S    
C18   O24   S    
C35   C36   A    
C58   H27   S    
Cr5   O35   S    
C54   H16   S    
Cr3   O23   S    
Cr4   O32   S    
C7    C8    A    
C32   H4    S    
Cr4   O33   S    
C53   C54   S    
C58   O26   S    
C12   C23   A    
C8    H1    S    
C29   C30   A    
C46   O7    A    
H19   O22   S    
C21   C22   A    
C36   C37   A    
Cr4   O5    S    
C15   C44   S    
C5    C11   A    
C55   H22   S    
H35   O29   S    
C1    O4    A    
C30   C31   A    
C43   C52   S    
C33   C49   S    
Cr2   O13   S    
Cr5   O8    S    
C28   C41   S    
C53   H13   S    
C18   C19   A    
C3    C56   A    
Cr3   O16   S    
Cr1   O4    S    
Cr5   O7    S    
C58   H28   S    
Cr6   O10   S    
C43   O35   A    
C8    C9    A    
C42   O34   A    
C13   O22   S    
C26   C40   S    
C43   O2    A    
C39   H7    S    
C25   O25   S    
C9    C10   A    
C60   O28   S    
H32   O27   S    
Cr2   O19   S    
C31   H3    S    
C22   C47   S    
C44   O32   A    
C57   H25   S    
C13   C14   A    
C2    C11   A    
C54   H15   S    
C12   C52   A    
C28   O18   A    
C16   O1    A    
C50   C51   A    
C47   O8    A    
C4    C34   S    
C34   C50   A    
C1    C19   S    
C46   O6    A    
C51   C52   A    
C38   C39   A    
C24   C25   A    
C39   C41   A    
C5    C7    A    
C13   C19   A    
C48   O10   A    
C25   C26   A    
C55   O25   S    
C3    C45   A    
C27   C33   A    
C56   H9    S    
C56   C60   A    
C4    O15   A    
Cr6   O3    S    
C53   H14   S    
C9    H12   S    
Cr1   O1    S    
C17   H34   S    
C37   C38   A    
C53   O20   S    
Cr6   O9    S    
C11   C16   S    
C31   C32   A    
C23   C34   A    
C42   O33   A    
C17   C18   A    
C4    O14   A    
Cr6   O2    S    
C37   C48   S    
Cr1   O17   S    
C36   H6    S    
Cr3   O30   S    
C51   H39   S    
C40   O12   A    
C40   O23   A    
C57   H26   S    
C12   H8    S    
C59   H29   S    
C22   C24   A    
C50   O20   S    
H20   O24   S    
C29   H2    S    
H33   O28   S    
C15   C17   A    
C35   H5    S    
C38   O26   S    
Cr4   O6    S    
Cr1   O31   S    
C62   H10   S    
C6    C10   A    
C54   H17   S    
C10   H11   S    
C28   O19   A    
H18   O21   S    
C20   H36   S    
C23   O27   S    
C49   O17   A    
Cr2   O12   S    
C30   C46   S    
Cr4   O11   S    
C32   C33   A    
C55   C57   S    
C2    C3    A    
C58   C59   S    
Cr6   O11   S    
C61   O29   S    
C5    C6    A    
C20   C26   A    
C27   H40   S    
Cr2   O14   S    
C57   H24   S    
Cr3   O15   S    
C16   O16   A    
C61   C62   A    
C35   C41   A    
C1    O13   A    
C14   H23   S    
C7    O21   S    
Cr1   O18   S    
Cr3   O31   S    
C44   O3    A    
C47   O9    A    
C24   H38   S    
C20   C21   A    
C55   H21   S    
C59   H30   S    
C14   C15   A    
C60   C61   A    
C49   O30   A    
Cr5   O34   S    
Cr5   O11   S    
C42   C45   S    
C21   H37   S    
C2    C62   A    
C48   O5    A    
Cr2   O31   S    
