data_mof_unit_50025.cif
_audit_creation_date              2012-12-10T17:24:46-0500
_audit_creation_method            fapswitch 2.2
_symmetry_space_group_name_H-M    P1
_symmetry_Int_Tables_number       1
_space_group_crystal_system       triclinic
_cell_length_a                    23.476492
_cell_length_b                    10.794781
_cell_length_c                    9.651518
_cell_angle_alpha                 91.573977
_cell_angle_beta                  89.626546
_cell_angle_gamma                 94.780574
_cell_volume                      2436.47179079

loop_
_atom_site_label
_atom_site_type_symbol
_atom_type_description
_atom_site_fract_x
_atom_site_fract_y
_atom_site_fract_z
_atom_type_partial_charge
C1    C     C_R   0.496286 0.262290 0.498403 0.781771
C2    C     C_R   0.963362 0.272727 0.531409 -0.161746
C3    C     C_R   0.022885 0.275173 0.531591 -0.167643
C4    C     C_R   0.056597 0.388039 0.518391 -0.013631
C5    C     C_R   0.029934 0.499288 0.504995 -0.019053
C6    C     C_R   0.063321 0.613103 0.492092 -0.013675
C7    C     C_R   0.036314 0.723421 0.478549 -0.164572
C8    C     C_R   0.976817 0.720799 0.477439 -0.164626
C9    C     C_R   0.116489 0.392834 0.517656 0.533951
C10   C     C_R   0.123051 0.613274 0.492370 0.515535
C11   C     C_R   0.238908 0.495852 0.373455 0.188862
C12   C     C_R   0.391279 0.503948 0.500396 0.778101
C13   C     C_R   0.298629 0.497788 0.374950 -0.247878
C14   C     C_R   0.328763 0.507463 0.500566 -0.061034
C15   C     C_R   0.298645 0.517950 0.625769 -0.234779
C16   C     C_R   0.239348 0.517590 0.625419 -0.139818
C17   C     C_R   0.209254 0.506354 0.500403 0.341764
C18   C     C_R   0.757981 0.427213 0.397870 -0.106962
C19   C     C_R   0.698620 0.428510 0.396958 -0.239289
C20   C     C_R   0.670900 0.494043 0.501295 -0.021165
C21   C     C_R   0.702964 0.554332 0.609361 -0.223053
C22   C     C_R   0.762218 0.552451 0.610604 -0.095789
C23   C     C_R   0.498371 0.737172 0.502166 0.764708
C24   C     C_R   0.790062 0.489935 0.504208 0.349536
C25   C     C_R   0.397438 0.106618 0.633485 0.139350
C26   C     C_R   0.367657 0.041559 0.739101 -0.134425
C27   C     C_R   0.377665 0.919606 0.764064 -0.175507
C28   C     C_R   0.417207 0.860861 0.683841 -0.178365
C29   C     C_R   0.453195 0.928297 0.589012 0.074991
C30   C     C_R   0.446663 0.056850 0.572495 0.055295
C31   C     C_R   0.488807 0.127216 0.493223 -0.098585
C32   C     C_R   0.529822 0.068236 0.417014 -0.199888
C33   C     C_R   0.531759 0.941427 0.421631 -0.207615
C34   C     C_R   0.608670 0.497734 0.499933 0.782923
C35   C     C_R   0.494478 0.870867 0.506971 -0.080188
C36   C     C_R   0.558525 0.708294 0.139467 0.215388
C37   C     C_R   0.559431 0.818797 0.065278 -0.219340
C38   C     C_R   0.566761 0.810188 0.923157 -0.224824
C39   C     C_R   0.559393 0.694231 0.857762 -0.129652
C40   C     C_R   0.530155 0.594907 0.926467 0.161214
C41   C     C_R   0.529997 0.597770 0.075483 0.149496
C42   C     C_R   0.469484 0.409425 0.069118 0.228155
C43   C     C_R   0.470242 0.410593 0.921955 -0.067769
C44   C     C_R   0.883235 0.602999 0.489239 0.529946
C45   C     C_R   0.876540 0.382949 0.517519 0.532945
C46   C     C_R   0.936323 0.383063 0.517707 -0.014150
C47   C     C_R   0.969739 0.496727 0.504375 -0.018786
C48   C     C_R   0.943108 0.607850 0.490299 -0.011958
Cu1   Cu    Cu3+1 0.500000 0.499990 0.640660 0.917971
Cu2   Cu    Cu3+1 0.500000 0.500010 0.359340 0.924138
H1    H     H_    0.938652 0.184141 0.541828 0.190524
H2    H     H_    0.674395 0.378541 0.314931 0.151337
H3    H     H_    0.682271 0.604388 0.691648 0.142619
H4    H     H_    0.786623 0.600261 0.693755 0.145582
H5    H     H_    0.561802 0.121328 0.356323 0.145611
H6    H     H_    0.332952 0.081664 0.794093 0.143182
H7    H     H_    0.351957 0.867748 0.839804 0.149607
H8    H     H_    0.418835 0.762914 0.699550 0.177723
H9    H     H_    0.564456 0.898825 0.362774 0.128806
H10   H     H_    0.042354 0.188416 0.542022 0.186246
H11   H     H_    0.572242 0.907790 0.115242 0.140728
H12   H     H_    0.582418 0.891062 0.865955 0.165108
H13   H     H_    0.575682 0.685615 0.754485 0.188650
H14   H     H_    0.445329 0.338836 0.862803 0.144059
H15   H     H_    0.061026 0.812042 0.468410 0.189381
H16   H     H_    0.957369 0.807530 0.466602 0.187628
H17   H     H_    0.321390 0.489632 0.277513 0.161903
H18   H     H_    0.320820 0.525829 0.724062 0.158280
H19   H     H_    0.216518 0.525280 0.722729 0.141969
H20   H     H_    0.779118 0.378277 0.315528 0.149520
N1    N     N_R   0.851278 0.491836 0.503335 -0.468915
N2    N     N_R   0.148185 0.504135 0.503990 -0.471033
N3    N     N_R   0.500540 0.501210 0.147910 -0.214833
N4    N     N_R   0.500560 0.501290 0.852040 -0.210219
O1    O     O_R   0.500000 0.319640 0.618810 -0.568361
O2    O     O_2   0.843905 0.275193 0.532740 -0.535643
O3    O     O_2   0.142922 0.287384 0.529968 -0.549892
O4    O     O_2   0.155839 0.721226 0.480221 -0.538395
O5    O     O_R   0.500000 0.319660 0.381240 -0.584003
O6    O     O_R   0.417880 0.499950 0.618810 -0.595224
O7    O     O_R   0.417880 0.499980 0.381240 -0.599429
O8    O     O_R   0.500000 0.680340 0.618760 -0.605190
O9    O     O_R   0.500000 0.680360 0.381190 -0.575369
O10   O     O_R   0.582120 0.500020 0.618760 -0.586628
O11   O     O_R   0.582120 0.500050 0.381190 -0.575608
O12   O     O_2   0.857101 0.708372 0.473169 -0.539140
C49   C     C_3   0.368595 0.213506 0.574105 -0.436676
C50   C     C_3   0.308858 0.170997 0.518993 -0.767346
H21   H     H_    0.279063 0.144218 0.604862 0.262572
H22   H     H_    0.291118 0.247661 0.463575 0.256105
H23   H     H_    0.311072 0.090787 0.445055 0.256668
H24   H     H_    0.365060 0.286346 0.656293 0.212385
H25   H     H_    0.392075 0.253478 0.484559 0.190739
C51   C     C_3   0.430573 0.306655 0.131349 -0.378153
C52   C     C_3   0.454900 0.180242 0.111531 -0.816440
H26   H     H_    0.454392 0.151082 0.000247 0.240978
H27   H     H_    0.499539 0.184296 0.149608 0.266194
H28   H     H_    0.428486 0.109165 0.170176 0.247186
H29   H     H_    0.421137 0.323170 0.241082 0.251622
H30   H     H_    0.388196 0.302521 0.079778 0.156253
C53   C     C_3   0.613486 0.706747 0.222196 -0.340236
C54   C     C_3   0.653922 0.616541 0.158248 -0.790154
H31   H     H_    0.634111 0.519646 0.155005 0.257000
H32   H     H_    0.665072 0.643343 0.050471 0.237625
H33   H     H_    0.694033 0.621447 0.218982 0.251769
H34   H     H_    0.638620 0.799034 0.221553 0.171454
H35   H     H_    0.605675 0.697709 0.333751 0.204553
C55   C     C_3   0.208223 0.481446 0.235918 -0.402684
C56   C     C_3   0.209907 0.349542 0.175682 -0.819530
H36   H     H_    0.254692 0.327634 0.155976 0.238422
H37   H     H_    0.189324 0.281255 0.248395 0.284171
H38   H     H_    0.186391 0.340962 0.075975 0.247608
H39   H     H_    0.162866 0.502262 0.245750 0.214905
H40   H     H_    0.228802 0.548786 0.162048 0.202154

loop_
_geom_bond_atom_site_label_1
_geom_bond_atom_site_label_2
_ccdc_geom_bond_type
C53   H35   S    
C49   C50   S    
C8    H16   S    
C53   C54   S    
C23   O8    A    
C45   N1    A    
C52   H26   S    
C9    N2    A    
C1    C31   S    
Cu2   O5    S    
C10   O4    S    
C52   H28   S    
C7    C8    A    
C22   H4    S    
C45   C46   A    
C2    C46   A    
C5    C47   A    
C26   C27   A    
C37   C38   A    
C23   O9    A    
C44   N1    A    
C45   O2    S    
C18   C24   A    
Cu1   O10   S    
C28   C29   A    
C56   H37   S    
C30   C31   A    
C15   C16   A    
C12   O6    A    
C25   C49   S    
C55   C56   S    
C54   H33   S    
C18   C19   A    
C55   H40   S    
Cu2   O11   S    
C19   H2    S    
C11   C17   A    
C19   C20   A    
C16   C17   A    
C43   H14   S    
Cu1   O1    S    
C13   C14   A    
C32   H5    S    
C20   C34   S    
C3    H10   S    
C11   C55   S    
C43   N4    A    
C33   H9    S    
C49   H24   S    
C36   C41   A    
C51   C52   S    
C34   O10   A    
C44   O12   S    
Cu2   O9    S    
C38   C39   A    
C1    O1    A    
C27   H7    S    
C56   H38   S    
C39   C40   A    
C25   C26   A    
C36   C53   S    
C34   O11   A    
Cu1   O8    S    
C8    C48   A    
C29   C30   A    
C7    H15   S    
C47   C48   A    
C14   C15   A    
C50   H23   S    
C51   H30   S    
C9    O3    S    
C20   C21   A    
C54   H32   S    
C40   C41   A    
C50   H22   S    
C23   C35   S    
C1    O5    A    
C22   C24   A    
Cu2   N3    S    
C42   C43   A    
C3    C4    A    
C53   H34   S    
C13   H17   S    
C25   C30   A    
C46   C47   A    
C36   C37   A    
C42   N3    A    
C42   C51   S    
C31   C32   A    
C16   H19   S    
C12   C14   S    
C4    C5    A    
C26   H6    S    
C6    C10   A    
C37   H11   S    
C52   H27   S    
C6    C7    A    
C28   H8    S    
C55   H39   S    
C39   H13   S    
C29   C35   A    
C18   H20   S    
Cu1   O6    S    
C32   C33   A    
C2    C3    A    
C56   H36   S    
C21   H3    S    
C11   C13   A    
C5    C6    A    
C51   H29   S    
C15   H18   S    
C49   H25   S    
C33   C35   A    
C40   N4    A    
C12   O7    A    
C54   H31   S    
C2    H1    S    
C41   N3    A    
C50   H21   S    
C24   N1    S    
C17   N2    S    
Cu1   Cu2   S    
C27   C28   A    
Cu1   N4    S    
C4    C9    A    
C21   C22   A    
C44   C48   A    
Cu2   O7    S    
C38   H12   S    
C10   N2    A    
