data_mof_unit_12029.cif
_audit_creation_date              2012-12-11T17:46:14-0500
_audit_creation_method            fapswitch 2.2
_symmetry_space_group_name_H-M    P1
_symmetry_Int_Tables_number       1
_space_group_crystal_system       triclinic
_cell_length_a                    6.922642
_cell_length_b                    23.048255
_cell_length_c                    25.541689
_cell_angle_alpha                 90.306729
_cell_angle_beta                  90.33611
_cell_angle_gamma                 90.445032
_cell_volume                      4075.04709324

loop_
_atom_site_label
_atom_site_type_symbol
_atom_type_description
_atom_site_fract_x
_atom_site_fract_y
_atom_site_fract_z
_atom_type_partial_charge
O1    O     O_R   0.692030 0.303130 0.695360 -0.541909
O2    O     O_R   0.307970 0.696870 0.304640 -0.548609
O3    O     O_R   0.363210 0.310250 0.803560 -0.520810
O4    O     O_R   0.636790 0.689750 0.196440 -0.521694
O5    O     O_R   0.192880 0.197710 0.803930 -0.545441
O6    O     O_R   0.807120 0.802290 0.196070 -0.544358
C1    C     C_R   0.533567 0.325495 0.820959 0.709937
C2    C     C_R   0.466436 0.674509 0.179039 0.719375
O7    O     O_R   0.362320 0.310070 0.695740 -0.544390
O8    O     O_R   0.637680 0.689930 0.304260 -0.545429
O9    O     O_R   0.191980 0.197530 0.695350 -0.545770
O10   O     O_R   0.808020 0.802470 0.304650 -0.547574
C3    C     C_R   0.531146 0.324418 0.677589 0.691453
C4    C     C_R   0.468916 0.675808 0.322576 0.660378
O11   O     O_R   0.692920 0.303310 0.803940 -0.515950
O12   O     O_R   0.307080 0.696690 0.196060 -0.513293
O13   O     O_3   0.525970 0.213500 0.749640 -0.379697
O14   O     O_3   0.474030 0.786500 0.250360 -0.373277
V1    V     V_3+5 0.251120 0.257270 0.749650 1.466651
V2    V     V_3+5 0.748880 0.742730 0.250350 1.467265
O15   O     O_R   0.862270 0.190590 0.695730 -0.524606
O16   O     O_R   0.137730 0.809410 0.304270 -0.524273
C5    C     C_R   0.030168 0.175265 0.678345 0.709426
C6    C     C_R   0.970243 0.822843 0.323189 0.703198
O17   O     O_R   0.863160 0.190770 0.803550 -0.547412
O18   O     O_R   0.136840 0.809230 0.196450 -0.543011
C7    C     C_R   0.031372 0.177493 0.821800 0.694025
C8    C     C_R   0.968729 0.822738 0.178192 0.713310
V3    V     V_3+5 0.751120 0.243570 0.749640 1.465497
V4    V     V_3+5 0.248880 0.756430 0.250360 1.475169
O19   O     O_3   0.026140 0.287350 0.749650 -0.340639
O20   O     O_3   0.973860 0.712650 0.250350 -0.342629
C9    C     C_R   0.036558 0.137565 0.866475 -0.095558
C10   C     C_R   0.965362 0.863352 0.133675 -0.107693
C11   C     C_R   0.881904 0.136550 0.901679 -0.134770
C12   C     C_R   0.131534 0.895916 0.122046 -0.131381
C13   C     C_R   0.887154 0.100790 0.945263 -0.088455
C14   C     C_R   0.137356 0.930773 0.077948 -0.056548
C15   C     C_R   0.044694 0.064399 0.953969 0.025632
C16   C     C_R   0.977943 0.934164 0.044125 -0.003313
C17   C     C_R   0.199710 0.063467 0.917933 0.015881
C18   C     C_R   0.807884 0.902070 0.055457 0.019612
C19   C     C_R   0.195016 0.101141 0.874791 -0.165776
C20   C     C_R   0.803406 0.867065 0.100521 -0.154043
C21   C     C_2   0.041387 0.027906 0.001780 0.273257
C22   C     C_2   0.996852 0.970966 0.996465 0.259331
H1    H     H_    0.758210 0.164410 0.896114 0.121838
H2    H     H_    0.259102 0.893947 0.146716 0.128318
H3    H     H_    0.675072 0.841780 0.109250 0.159553
H4    H     H_    0.313206 0.101590 0.847146 0.153347
H5    H     H_    0.268996 0.954454 0.069501 0.121778
H6    H     H_    0.767287 0.101234 0.972326 0.130588
C23   C     C_R   0.963704 0.864565 0.368113 -0.155362
C24   C     C_R   0.037479 0.129414 0.636832 -0.158443
C25   C     C_R   0.129834 0.878078 0.398911 0.381027
C26   C     C_R   0.872780 0.095402 0.622804 0.377045
C27   C     C_R   0.118456 0.919244 0.439481 -0.215925
C28   C     C_R   0.883224 0.055379 0.581265 -0.215162
C29   C     C_R   0.941361 0.945511 0.452235 0.362263
C30   C     C_R   0.058437 0.046045 0.554700 0.362238
C31   C     C_R   0.776772 0.930296 0.423045 -0.190294
C32   C     C_R   0.222385 0.077560 0.570523 -0.187564
C33   C     C_R   0.787856 0.890943 0.381295 -0.255245
C34   C     C_R   0.212019 0.119051 0.610531 -0.253945
N1    N     N_2   0.921581 0.986527 0.494054 -0.291225
N2    N     N_2   0.077547 0.005154 0.512795 -0.291898
H7    H     H_    0.754131 0.031212 0.570480 0.147184
H8    H     H_    0.248704 0.929802 0.461321 0.147762
H9    H     H_    0.639010 0.949718 0.432259 0.150865
H10   H     H_    0.358911 0.070635 0.551034 0.150585
H11   H     H_    0.658298 0.881633 0.358822 0.203919
H12   H     H_    0.341195 0.143582 0.620452 0.198209
C35   C     C_R   0.545845 0.370636 0.863141 -0.088350
C36   C     C_R   0.454168 0.629384 0.136845 -0.088297
C37   C     C_R   0.396135 0.374007 0.900112 -0.197679
C38   C     C_R   0.603831 0.626048 0.099857 -0.186947
C39   C     C_R   0.399213 0.416077 0.939946 -0.148683
C40   C     C_R   0.600761 0.583988 0.060013 -0.144889
C41   C     C_R   0.552435 0.456672 0.943607 0.414347
C42   C     C_R   0.447596 0.543372 0.056360 0.413132
C43   C     C_R   0.699603 0.454182 0.906452 -0.243466
C44   C     C_R   0.300466 0.545835 0.093527 -0.242611
C45   C     C_R   0.700045 0.411664 0.866863 -0.037748
C46   C     C_R   0.300014 0.588341 0.133127 -0.037435
N3    N     N_2   0.565790 0.500592 0.983344 -0.301322
N4    N     N_2   0.434252 0.499457 0.016620 -0.302025
H13   H     H_    0.723316 0.656645 0.101390 0.168119
H14   H     H_    0.276601 0.343428 0.898575 0.165250
H15   H     H_    0.718474 0.583425 0.032308 0.146961
H16   H     H_    0.281461 0.416663 0.967638 0.145501
H17   H     H_    0.816901 0.485581 0.908807 0.128018
H18   H     H_    0.183207 0.514422 0.091175 0.127232
C47   C     C_R   0.540386 0.368236 0.634550 -0.047178
C48   C     C_R   0.459949 0.633331 0.366653 -0.043855
C49   C     C_R   0.370930 0.393400 0.614216 -0.213132
C50   C     C_R   0.629147 0.607805 0.386731 -0.222828
C51   C     C_R   0.379527 0.434064 0.573471 -0.143379
C52   C     C_R   0.620833 0.568338 0.428410 -0.144860
C53   C     C_R   0.558904 0.450738 0.551814 0.425711
C54   C     C_R   0.442020 0.553311 0.451320 0.429270
C55   C     C_R   0.727241 0.425725 0.572238 -0.182768
C56   C     C_R   0.274077 0.579074 0.431438 -0.187238
C57   C     C_R   0.718692 0.385147 0.612949 -0.195624
C58   C     C_R   0.282362 0.618482 0.389806 -0.205464
N5    N     N_2   0.577883 0.491537 0.509816 -0.308331
N6    N     N_2   0.423049 0.512844 0.493580 -0.308549
H19   H     H_    0.768746 0.618266 0.370215 0.133721
H20   H     H_    0.230869 0.381604 0.629707 0.132665
H21   H     H_    0.754371 0.549692 0.442424 0.134955
H22   H     H_    0.245711 0.452129 0.559025 0.134093
H23   H     H_    0.866573 0.437686 0.556347 0.120447
H24   H     H_    0.135214 0.568469 0.448350 0.120126
H25   H     H_    0.852319 0.366872 0.627354 0.132239
H26   H     H_    0.149115 0.637434 0.375876 0.128618
C59   C     C_2   0.860734 0.413983 0.829309 0.368706
H27   H     H_    0.879326 0.451890 0.804794 0.029584
O21   O     O_2   0.981053 0.375650 0.828176 -0.512397
C60   C     C_2   0.139365 0.585994 0.170693 0.369547
H28   H     H_    0.120839 0.548077 0.195198 0.029956
O22   O     O_2   0.019002 0.624314 0.171844 -0.511492
O23   O     O_3   0.957518 0.949235 0.946488 -0.566777
C61   C     C_3   0.040699 0.894047 0.939148 0.092583
H29   H     H_    0.955714 0.860125 0.959791 0.133273
H30   H     H_    0.192880 0.893305 0.953659 0.119918
C62   C     C_3   0.043208 0.879574 0.880677 -0.299202
H31   H     H_    0.129213 0.913029 0.859722 0.200677
H32   H     H_    0.114118 0.836939 0.874883 0.151694
C63   C     C_3   0.839565 0.876755 0.857322 -0.665202
H33   H     H_    0.751050 0.843685 0.877919 0.213429
H34   H     H_    0.847663 0.864637 0.815264 0.192926
H35   H     H_    0.768238 0.919634 0.860487 0.273820
O24   O     O_3   0.045933 0.052337 0.052001 -0.584853
C64   C     C_3   0.177904 0.099430 0.056683 0.062304
H36   H     H_    0.171401 0.130335 0.023485 0.117420
H37   H     H_    0.135408 0.125005 0.091695 0.151017
C65   C     C_3   0.384378 0.077733 0.065617 -0.325828
H38   H     H_    0.389288 0.051443 0.101944 0.203419
H39   H     H_    0.429236 0.049831 0.032454 0.171417
C66   C     C_3   0.527506 0.128120 0.070823 -0.816061
H40   H     H_    0.527016 0.154568 0.034589 0.222282
H41   H     H_    0.675280 0.110962 0.077070 0.253591
H42   H     H_    0.489438 0.156056 0.104735 0.231691
C67   C     C_2   0.365667 0.023767 0.924807 0.342364
H43   H     H_    0.367368 0.992822 0.956499 0.023696
O25   O     O_2   0.502440 0.024803 0.894829 -0.535090
C68   C     C_2   0.635309 0.904655 0.020866 0.286059
H44   H     H_    0.626285 0.936765 0.990197 0.106154
O26   O     O_2   0.501356 0.870402 0.025906 -0.552752
O27   O     O_3   0.696969 0.102731 0.647360 -0.575482
C69   C     C_3   0.692497 0.070625 0.694516 0.117567
H45   H     H_    0.613981 0.096952 0.723960 0.156488
H46   H     H_    0.838353 0.062051 0.711686 0.082376
C70   C     C_3   0.582206 0.013473 0.686262 -0.357311
H47   H     H_    0.437338 0.022509 0.669311 0.211323
H48   H     H_    0.662257 0.985505 0.658412 0.193239
C71   C     C_3   0.557308 0.981098 0.737819 -0.798386
H49   H     H_    0.700516 0.970930 0.755206 0.237262
H50   H     H_    0.477690 0.939796 0.730596 0.229352
H51   H     H_    0.473708 0.007712 0.765996 0.243343
O28   O     O_3   0.308368 0.854647 0.387850 -0.577662
C72   C     C_3   0.323824 0.798809 0.410255 0.117553
H52   H     H_    0.425291 0.773821 0.385577 0.139776
H53   H     H_    0.184712 0.773959 0.410265 0.081637
C73   C     C_3   0.408326 0.802434 0.465730 -0.362027
H54   H     H_    0.543770 0.828614 0.465381 0.212493
H55   H     H_    0.303706 0.823903 0.492183 0.192064
C74   C     C_3   0.452520 0.742103 0.486857 -0.803745
H56   H     H_    0.318945 0.715094 0.487679 0.235973
H57   H     H_    0.511028 0.745907 0.527305 0.234658
H58   H     H_    0.561693 0.720353 0.461973 0.231349

loop_
_geom_bond_atom_site_label_1
_geom_bond_atom_site_label_2
_ccdc_geom_bond_type
C20   H3    S    
V4    O20   S    
O13   V3    S    
C56   H24   S    
O4    C2    A    
V1    O19   S    
C63   H33   S    
C47   C57   A    
C72   H52   S    
C73   H55   S    
C74   H57   S    
C21   C22   D    
C7    C9    S    
C16   C22   S    
O9    V1    S    
C36   C38   A    
C73   H54   S    
C11   C13   A    
C38   C40   A    
C17   C67   S    
O3    C1    A    
C9    C11   A    
C66   H42   S    
C40   C42   A    
C27   C29   A    
C28   C30   A    
C59   H27   S    
C44   H18   S    
C32   H10   S    
C30   C32   A    
C31   C33   A    
O7    C3    A    
C60   H28   S    
C23   C33   A    
C42   N4    S    
C51   C53   A    
O5    C7    A    
O15   C5    A    
O7    V1    S    
O6    C8    A    
O8    V2    S    
O24   C64   S    
C59   O21   D    
C69   C70   S    
C50   C52   A    
C62   C63   S    
C32   C34   A    
C30   N2    S    
C22   O23   S    
O3    V1    S    
O14   V4    S    
C70   H48   S    
C10   C12   A    
C15   C21   S    
C16   C18   A    
C48   C58   A    
C2    O12   A    
C52   H21   S    
C17   C19   A    
O10   V2    S    
C18   C20   A    
C65   C66   S    
C73   C74   S    
C2    C36   S    
C72   H53   S    
O11   V3    S    
C74   H58   S    
C68   O26   D    
C23   C25   A    
C40   H15   S    
O17   V3    S    
C47   C49   A    
C53   N5    S    
C24   C26   A    
C39   H16   S    
C29   C31   A    
C9    C19   A    
C45   C59   S    
C10   C20   A    
C65   H39   S    
O8    C4    A    
C74   H56   S    
C41   C43   A    
C13   H6    S    
C14   H5    S    
C6    C23   S    
N3    N4    D    
O15   V3    S    
C3    C47   S    
C43   H17   S    
C56   C58   A    
C69   H46   S    
C64   C65   S    
C37   H14   S    
C1    C35   S    
C54   C56   A    
C39   C41   A    
C70   C71   S    
C48   C50   A    
C37   C39   A    
C38   H13   S    
O23   C61   S    
C58   H26   S    
C4    C48   S    
C42   C44   A    
C25   O28   S    
C53   C55   A    
C50   H19   S    
C33   H11   S    
O18   V4    S    
C44   C46   A    
C25   C27   A    
C46   C60   S    
C64   H36   S    
O16   C6    A    
O1    C3    A    
C35   C37   A    
C27   H8    S    
C61   H30   S    
C12   C14   A    
C18   C68   S    
C63   H35   S    
C41   N3    S    
C72   C73   S    
C5    C24   S    
C62   H32   S    
C68   H44   S    
V2    O20   S    
C31   H9    S    
C67   O25   D    
C71   H49   S    
O16   V4    S    
C57   H25   S    
O18   C8    A    
C71   H51   S    
C36   C46   A    
C65   H38   S    
C63   H34   S    
C43   C45   A    
C66   H40   S    
C49   C51   A    
C19   H4    S    
O5    V1    S    
O17   C7    A    
O6    V2    S    
N5    N6    D    
O10   C6    A    
C54   N6    S    
O2    V4    S    
O28   C72   S    
C61   C62   S    
C71   H50   S    
C61   H29   S    
V3    O19   S    
O27   C69   S    
C29   N1    S    
C14   C16   A    
C51   H22   S    
C66   H41   S    
O1    V3    S    
C62   H31   S    
C24   C34   A    
C55   H23   S    
C1    O11   A    
O9    C5    A    
O13   V1    S    
C26   C28   A    
C12   H2    S    
O14   V2    S    
C34   H12   S    
O2    C4    A    
C52   C54   A    
C60   O22   D    
C49   H20   S    
C8    C10   S    
O4    V2    S    
C28   H7    S    
C13   C15   A    
C15   C17   A    
C21   O24   S    
C55   C57   A    
N1    N2    D    
C26   O27   S    
C64   H37   S    
C69   H45   S    
C11   H1    S    
O12   V4    S    
C35   C45   A    
C67   H43   S    
C70   H47   S    
