data_mof_unit_48476.cif
_audit_creation_date              2012-12-10T18:57:08-0500
_audit_creation_method            fapswitch 2.2
_symmetry_space_group_name_H-M    P1
_symmetry_Int_Tables_number       1
_space_group_crystal_system       triclinic
_cell_length_a                    10.647389
_cell_length_b                    9.91417
_cell_length_c                    10.675256
_cell_angle_alpha                 89.96932
_cell_angle_beta                  91.247454
_cell_angle_gamma                 90.397552
_cell_volume                      1126.58600722

loop_
_atom_site_label
_atom_site_type_symbol
_atom_type_description
_atom_site_fract_x
_atom_site_fract_y
_atom_site_fract_z
_atom_type_partial_charge
C1    C     C_R   0.260289 0.499525 0.498102 0.955312
C2    C     C_R   0.739446 0.500464 0.497102 0.870641
C3    C     C_R   0.569221 0.070135 0.588022 0.437698
C4    C     C_R   0.431004 0.069179 0.411890 0.422411
C5    C     C_R   0.567124 0.927485 0.588065 -0.093471
C6    C     C_R   0.432888 0.926589 0.411952 -0.088071
C7    C     C_R   0.503691 0.500111 0.260187 0.883624
C8    C     C_R   0.504059 0.500057 0.739962 0.873452
C9    C     C_R   0.521991 0.622826 0.064293 0.132607
C10   C     C_R   0.522084 0.622764 0.936516 0.125410
C11   C     C_R   0.523729 0.501009 0.129189 -0.107809
C12   C     C_R   0.523944 0.500914 0.871886 -0.108442
C13   C     C_R   0.549635 0.380681 0.066017 -0.185554
C14   C     C_R   0.549673 0.380626 0.936452 -0.197931
C15   C     C_3   0.431215 0.736836 0.927218 -0.456274
C16   C     C_3   0.431151 0.736955 0.069244 -0.456213
C17   C     C_R   0.063466 0.417217 0.404987 0.428025
C18   C     C_R   0.932523 0.420624 0.400697 0.345281
C19   C     C_R   0.871582 0.502230 0.488736 -0.163790
C20   C     C_R   0.127554 0.498965 0.492843 -0.140409
C21   C     C_R   0.937434 0.584993 0.572951 -0.214886
C22   C     C_R   0.065870 0.583919 0.574523 -0.264315
H1    H     H_    0.561079 0.285897 0.115372 0.197542
H2    H     H_    0.561006 0.285784 0.887862 0.207731
H3    H     H_    0.889209 0.647933 0.639364 0.176199
H4    H     H_    0.117341 0.646900 0.641235 0.176855
H5    H     H_    0.621265 0.872828 0.658209 0.168143
H6    H     H_    0.378625 0.871242 0.341900 0.169765
N1    N     N_R   0.500000 0.857200 0.500000 -0.153718
N2    N     N_R   0.500000 0.142810 0.500000 -0.198229
O1    O     O_R   0.316770 0.614620 0.499990 -0.625443
O2    O     O_R   0.683230 0.614620 0.500010 -0.611629
O3    O     O_R   0.316800 0.385290 0.500000 -0.603441
O4    O     O_R   0.683200 0.385290 0.500000 -0.628783
O5    O     O_R   0.500000 0.614690 0.316780 -0.620719
O6    O     O_R   0.500000 0.614690 0.683220 -0.623680
O7    O     O_R   0.500020 0.385360 0.316780 -0.630625
O8    O     O_R   0.499980 0.385360 0.683220 -0.633561
Zn1   Zn    Zn3+2 0.500000 0.653120 0.500000 0.947464
Zn2   Zn    Zn3+2 0.500000 0.346880 0.500000 0.973022
H7    H     H_    0.474496 0.829117 0.886997 0.215725
H8    H     H_    0.339275 0.706743 0.108645 0.209674
H9    H     H_    0.339380 0.706465 0.883855 0.205041
H10   H     H_    0.474440 0.829321 0.111058 0.217316
O9    O     O_3   0.131637 0.341488 0.321799 -0.767102
H11   H     H_    0.074364 0.286663 0.267857 0.394384
O10   O     O_3   0.868213 0.346649 0.309690 -0.769810
H12   H     H_    0.784851 0.387292 0.293179 0.337623
O11   O     O_3   0.643070 0.131129 0.678963 -0.781474
H13   H     H_    0.656144 0.225523 0.655144 0.386136
O12   O     O_3   0.357730 0.129329 0.320731 -0.748056
H14   H     H_    0.345769 0.223567 0.344715 0.416357

loop_
_geom_bond_atom_site_label_1
_geom_bond_atom_site_label_2
_ccdc_geom_bond_type
C3    N2    A    
O5    Zn1   S    
C13   C14   A    
C11   C13   A    
C9    C10   A    
C16   H10   S    
O10   H12   S    
C8    C12   S    
C18   O10   S    
N1    Zn1   S    
C17   C18   A    
C3    O11   S    
C15   H9    S    
C21   C22   A    
O8    Zn2   S    
C9    C11   A    
C2    O4    A    
C22   H4    S    
C8    O8    A    
O4    Zn2   S    
C10   C12   A    
C15   H7    S    
C4    C6    A    
C19   C21   A    
C9    C16   S    
C12   C14   A    
C7    C11   S    
O7    Zn2   S    
C5    N1    A    
C10   C15   S    
C7    O7    A    
C17   O9    S    
C6    H6    S    
O9    H11   S    
O3    Zn2   S    
C20   C22   A    
C4    O12   S    
C1    O3    A    
O12   H14   S    
C16   H8    S    
C1    O1    A    
C6    N1    A    
C13   H1    S    
C2    O2    A    
O11   H13   S    
C8    O6    A    
O2    Zn1   S    
C14   H2    S    
N2    Zn2   S    
C18   C19   A    
C1    C20   S    
C21   H3    S    
C2    C19   S    
C5    H5    S    
C7    O5    A    
C17   C20   A    
O6    Zn1   S    
C4    N2    A    
C15   C16   S    
O1    Zn1   S    
C3    C5    A    
