data_mof_unit_63365.cif
_audit_creation_date              2012-12-10T20:28:13-0500
_audit_creation_method            fapswitch 2.2
_symmetry_space_group_name_H-M    P1
_symmetry_Int_Tables_number       1
_space_group_crystal_system       triclinic
_cell_length_a                    18.565567
_cell_length_b                    18.908826
_cell_length_c                    19.445455
_cell_angle_alpha                 111.09556
_cell_angle_beta                  109.990817
_cell_angle_gamma                 109.285408
_cell_volume                      5123.06591037

loop_
_atom_site_label
_atom_site_type_symbol
_atom_type_description
_atom_site_fract_x
_atom_site_fract_y
_atom_site_fract_z
_atom_type_partial_charge
C1    C     C_R   0.382520 0.502188 0.381080 0.950185
C2    C     C_R   0.814038 0.835629 0.575971 0.389915
C3    C     C_R   0.297086 0.330500 0.755751 0.519210
C4    C     C_R   0.348090 0.315756 0.814965 0.175610
C5    C     C_R   0.084229 0.320670 0.828804 0.407242
C6    C     C_R   0.001916 0.311343 0.817640 -0.278049
C7    C     C_R   0.919961 0.240382 0.741504 -0.037253
C8    C     C_R   0.921207 0.179758 0.676046 0.669597
C9    C     C_R   0.002766 0.188939 0.686562 -0.252283
C10   C     C_R   0.805202 0.818230 0.496468 -0.191056
C11   C     C_R   0.728044 0.743133 0.417963 0.071775
C12   C     C_R   0.665492 0.680656 0.421277 0.429377
C13   C     C_R   0.683562 0.690760 0.501736 -0.228505
C14   C     C_R   0.757625 0.769058 0.579930 0.062553
C15   C     C_R   0.679760 0.776031 0.302320 0.624469
C16   C     C_R   0.656989 0.758915 0.219366 0.195219
C17   C     C_R   0.663795 0.692573 0.164181 0.210665
C18   C     C_R   0.622094 0.621457 0.502901 0.925728
C19   C     C_R   0.906385 0.859454 0.844587 0.467666
C20   C     C_R   0.694397 0.643888 0.192834 0.275750
C21   C     C_R   0.716862 0.660898 0.276232 0.225611
C22   C     C_R   0.711024 0.728345 0.331958 -0.241474
C23   C     C_R   0.443351 0.785292 0.552917 0.566568
C24   C     C_R   0.379804 0.701865 0.477366 0.212451
C25   C     C_R   0.395487 0.671634 0.409470 -0.234688
C26   C     C_R   0.473409 0.727758 0.416753 0.522337
C27   C     C_R   0.536292 0.811715 0.492222 0.157048
C28   C     C_R   0.520889 0.840387 0.559919 0.513848
C29   C     C_R   0.262263 0.583328 0.261428 0.421028
C30   C     C_R   0.085013 0.258890 0.763228 0.114517
C31   C     C_R   0.618708 0.499501 0.618874 0.927614
C32   C     C_R   0.192029 0.501403 0.185936 -0.251488
C33   C     C_R   0.183697 0.420734 0.175631 0.043465
C34   C     C_R   0.248102 0.423180 0.240396 0.687696
C35   C     C_R   0.318424 0.504338 0.315662 -0.276298
C36   C     C_R   0.325744 0.585173 0.327348 0.068017
C37   C     C_R   0.027213 0.290264 0.096691 0.261313
C38   C     C_R   0.956936 0.205651 0.024859 0.199954
C39   C     C_R   0.966994 0.162913 0.956407 0.511929
C40   C     C_R   0.046266 0.204179 0.958829 0.466472
C41   C     C_R   0.787393 0.186626 0.757632 0.683234
C42   C     C_R   0.116595 0.288301 0.029991 0.502464
C43   C     C_R   0.379128 0.379345 0.498879 0.974591
C44   C     C_R   0.107330 0.332515 0.098972 -0.259958
C45   C     C_R   0.265033 0.542512 0.619734 0.515968
C46   C     C_R   0.283515 0.474591 0.602951 0.583132
C47   C     C_R   0.234177 0.398988 0.519095 -0.268859
C48   C     C_R   0.165811 0.392493 0.451652 0.264198
C49   C     C_R   0.145915 0.460365 0.469395 0.278192
C50   C     C_R   0.195556 0.535061 0.553760 0.199891
C51   C     C_R   0.181416 0.255415 0.505632 0.703358
C52   C     C_R   0.703523 0.175294 0.741434 0.306302
C53   C     C_R   0.191003 0.184672 0.503166 -0.266038
C54   C     C_R   0.264738 0.179020 0.503169 0.075650
C55   C     C_R   0.824206 0.854924 0.812938 0.590172
C56   C     C_R   0.326635 0.243415 0.501047 0.418972
C57   C     C_R   0.314825 0.313031 0.500606 -0.223245
C58   C     C_R   0.243976 0.321215 0.506762 0.038379
C59   C     C_R   0.332996 0.125387 0.590909 0.513254
C60   C     C_R   0.368776 0.072664 0.599573 0.530527
C61   C     C_R   0.353711 0.003713 0.526401 0.211153
C62   C     C_R   0.298979 0.984835 0.443740 0.271993
C63   C     C_R   0.663672 0.205682 0.693052 -0.345152
C64   C     C_R   0.263193 0.037955 0.435140 0.520168
C65   C     C_R   0.281648 0.109618 0.509000 -0.302689
C66   C     C_2   0.739590 0.477733 0.801114 0.498024
C67   C     C_R   0.768800 0.817802 0.724240 0.264254
C68   C     C_2   0.813124 0.478909 0.804843 0.306284
C69   C     C_2   0.670647 0.465970 0.725982 0.603360
C70   C     C_2   0.689809 0.505914 0.684489 0.132860
C71   C     C_R   0.001485 0.879702 0.381114 0.895043
C72   C     C_R   0.877468 0.879096 0.497225 0.925788
C73   C     C_R   0.000832 0.121576 0.619519 1.009715
C74   C     C_R   0.707430 0.247466 0.660937 0.690278
C75   C     C_R   0.121735 0.117842 0.499497 0.964820
C76   C     C_R   0.002876 0.379026 0.883540 0.912681
C77   C     C_R   0.123852 0.499890 0.121028 0.976558
C78   C     C_R   0.003908 0.621026 0.122822 0.949061
C79   C     C_R   0.792077 0.777674 0.665604 -0.254896
C80   C     C_R   0.882211 0.496060 0.881701 0.820607
C81   C     C_R   0.147207 0.810624 0.561827 0.191013
C82   C     C_R   0.129215 0.809633 0.485387 0.636582
C83   C     C_R   0.043439 0.750955 0.410733 -0.120457
C84   C     C_R   0.978125 0.687638 0.411000 -0.350049
C85   C     C_R   0.791664 0.259945 0.677941 -0.242320
C86   C     C_R   0.995865 0.687109 0.486652 0.676206
C87   C     C_R   0.079675 0.750148 0.563009 0.222209
C88   C     C_R   0.024061 0.688587 0.265946 0.391309
C89   C     C_R   0.008826 0.689883 0.190968 -0.203789
C90   C     C_R   0.001078 0.758126 0.182206 0.079674
C91   C     C_R   0.870579 0.774068 0.697877 0.257802
C92   C     C_R   0.000862 0.821819 0.245979 0.430733
C93   C     C_R   0.007712 0.816317 0.317964 -0.261222
C94   C     C_R   0.024055 0.752126 0.330462 0.020818
C95   C     C_R   0.066425 0.799549 0.100434 0.602334
C96   C     C_R   0.832337 0.230033 0.726743 -0.148574
C97   C     C_R   0.056709 0.788687 0.022319 0.185438
C98   C     C_R   0.971094 0.743190 0.949674 0.460868
C99   C     C_R   0.895411 0.713015 0.955870 0.470603
C100  C     C_R   0.904477 0.719981 0.032666 0.221572
C101  C     C_R   0.990316 0.761163 0.104620 -0.292340
C102  C     C_R   0.310183 0.275199 0.851266 0.468577
C103  C     C_R   0.930922 0.821323 0.787310 0.338743
C104  C     C_R   0.222809 0.252564 0.831081 0.581473
C105  C     C_R   0.172692 0.271129 0.774889 -0.339756
C106  C     C_R   0.209965 0.309072 0.736266 0.429434
Cl1   Cl    Cl    0.630051 0.668034 0.057907 -0.208637
Cl2   Cl    Cl    0.103507 0.298130 0.345969 -0.338146
Cl3   Cl    Cl    0.057082 0.451061 0.387252 -0.233053
Cl4   Cl    Cl    0.676861 0.831818 0.690545 -0.342794
Cl5   Cl    Cl    0.423251 0.240410 0.506915 -0.422559
Cl6   Cl    Cl    0.402767 0.940923 0.539452 -0.292423
Cl7   Cl    Cl    0.276240 0.896038 0.350805 -0.237587
Cl8   Cl    Cl    0.898298 0.719244 0.625750 -0.340416
Cl9   Cl    Cl    0.796994 0.582546 0.714002 -0.385244
Cl10  Cl    Cl    0.099745 0.752012 0.659099 -0.186111
Cl11  Cl    Cl    0.254710 0.888026 0.655078 -0.206760
Cl12  Cl    Cl    0.702294 0.559829 0.123377 -0.275892
Cl13  Cl    Cl    0.049220 0.610672 0.281755 -0.412415
Cl14  Cl    Cl    0.997329 0.910816 0.236366 -0.389789
Cl15  Cl    Cl    0.151710 0.828541 0.014587 -0.210882
Cl16  Cl    Cl    0.041543 0.843128 0.827954 -0.169590
Cl17  Cl    Cl    0.807831 0.673819 0.036500 -0.289465
Cl18  Cl    Cl    0.460456 0.350780 0.845979 -0.117704
Cl19  Cl    Cl    0.187389 0.410277 0.924921 -0.422733
Cl20  Cl    Cl    0.897828 0.941078 0.672219 -0.414357
Cl21  Cl    Cl    0.647743 0.122687 0.781216 -0.184514
Cl22  Cl    Cl    0.564372 0.589543 0.323690 -0.406977
Cl23  Cl    Cl    0.745776 0.593303 0.308445 -0.404315
Cl24  Cl    Cl    0.618154 0.820508 0.185191 -0.247519
Cl25  Cl    Cl    0.278514 0.638160 0.466591 -0.415786
Cl26  Cl    Cl    0.633659 0.882307 0.501773 -0.264175
Cl27  Cl    Cl    0.266788 0.683746 0.277606 -0.385353
Cl28  Cl    Cl    0.014598 0.343066 0.183356 -0.297984
Cl29  Cl    Cl    0.855794 0.151654 0.019438 -0.177251
Cl30  Cl    Cl    0.171476 0.620106 0.578506 -0.252536
F1    F     F_    0.963707 0.904120 0.931253 -0.522891
F2    F     F_    0.313329 0.614792 0.701191 -0.468730
F3    F     F_    0.348797 0.481866 0.669113 -0.477665
F4    F     F_    0.112126 0.262140 0.510165 -0.571867
F5    F     F_    0.352562 0.195158 0.662676 -0.558623
F6    F     F_    0.420492 0.090454 0.679527 -0.477471
F7    F     F_    0.215079 0.023227 0.355717 -0.525289
F8    F     F_    0.726782 0.487406 0.868055 -0.543016
F9    F     F_    0.821966 0.455757 0.734692 -0.593330
F10   F     F_    0.584085 0.418807 0.703208 -0.554736
F11   F     F_    0.194353 0.867204 0.483961 -0.629078
F12   F     F_    0.580255 0.922659 0.632003 -0.456911
F13   F     F_    0.931759 0.624481 0.485090 -0.491818
F14   F     F_    0.149538 0.841722 0.170371 -0.494799
F15   F     F_    0.961230 0.725255 0.872352 -0.518603
F16   F     F_    0.813074 0.675136 0.886707 -0.565841
F17   F     F_    0.358687 0.259516 0.907788 -0.461946
F18   F     F_    0.188145 0.215091 0.868448 -0.455089
F19   F     F_    0.163378 0.328754 0.682897 -0.544861
F20   F     F_    0.332795 0.367424 0.718605 -0.489992
F21   F     F_    0.842498 0.110167 0.602823 -0.565512
F22   F     F_    0.825002 0.155479 0.803083 -0.553492
F23   F     F_    0.428619 0.814354 0.618623 -0.451029
F24   F     F_    0.667931 0.275591 0.612941 -0.557589
F25   F     F_    0.669817 0.838287 0.353737 -0.506078
F26   F     F_    0.485680 0.702777 0.349006 -0.532092
F27   F     F_    0.239740 0.345671 0.231697 -0.582941
F28   F     F_    0.802223 0.893958 0.869492 -0.458185
F29   F     F_    0.900147 0.080584 0.887638 -0.457246
F30   F     F_    0.054958 0.161526 0.892167 -0.479554
F31   F     F_    0.194609 0.325875 0.032935 -0.498279
H1    H     H_    0.914374 0.637864 0.351926 0.277939
H2    H     H_    0.598625 0.196509 0.679956 0.255804
H3    H     H_    0.825037 0.292360 0.652723 0.251733
O1    O     O_R   0.408620 0.551720 0.460350 -0.655908
O2    O     O_R   0.952100 0.356700 0.912170 -0.655654
O3    O     O_R   0.145980 0.551740 0.094190 -0.551414
O4    O     O_R   0.409320 0.448300 0.357580 -0.532459
O5    O     O_R   0.042530 0.448320 0.094220 -0.599195
O6    O     O_R   0.054350 0.643370 0.094170 -0.615111
O7    O     O_R   0.950900 0.539950 0.094200 -0.545948
O8    O     O_R   0.963910 0.551750 0.912120 -0.598113
O9    O     O_R   0.860470 0.448330 0.912150 -0.609190
O10   O     O_R   0.591270 0.643330 0.551380 -0.629888
O11   O     O_R   0.591970 0.539910 0.448620 -0.551246
O12   O     O_R   0.949210 0.908400 0.357560 -0.592759
O13   O     O_R   0.590680 0.551700 0.642420 -0.576609
O14   O     O_R   0.591380 0.448280 0.539650 -0.569783
O15   O     O_R   0.408030 0.460090 0.551380 -0.595707
O16   O     O_R   0.408730 0.356670 0.448620 -0.565691
O17   O     O_R   0.051990 0.908360 0.460320 -0.643881
O18   O     O_R   0.959770 0.908340 0.551360 -0.586993
O19   O     O_R   0.856990 0.908380 0.448600 -0.598204
O20   O     O_R   0.050790 0.091560 0.642400 -0.607410
O21   O     O_R   0.948010 0.091600 0.539640 -0.536576
O22   O     O_R   0.143010 0.091580 0.551350 -0.645427
O23   O     O_R   0.040230 0.091620 0.448600 -0.531426
O24   O     O_R   0.055540 0.460120 0.912140 -0.549853
Zn1   Zn    Zn3+2 0.499530 0.569060 0.568620 1.154188
Zn2   Zn    Zn3+2 0.500470 0.430940 0.431380 1.271003
Zn3   Zn    Zn3+2 0.068630 0.999950 0.568590 1.100255
Zn4   Zn    Zn3+2 0.931370 0.000000 0.431370 1.226570
Zn5   Zn    Zn3+2 0.072290 0.569090 0.003150 1.218833
Zn6   Zn    Zn3+2 0.934150 0.430980 0.003190 1.164925

loop_
_geom_bond_atom_site_label_1
_geom_bond_atom_site_label_2
_ccdc_geom_bond_type
O19   Zn4   S    
C68   C80   S    
C29   Cl27  S    
O8    Zn5   S    
O4    Zn2   S    
C93   C94   A    
C27   Cl26  S    
C31   O14   A    
O3    Zn5   S    
C78   O7    A    
C66   C68   D    
C35   C36   A    
O12   Zn4   S    
O21   Zn4   S    
C20   Cl12  S    
C97   C98   A    
C97   Cl15  S    
C7    C8    A    
C54   C65   S    
C53   C54   A    
C7    C96   S    
C29   C36   A    
C26   C27   A    
C9    C73   S    
C13   C18   S    
O17   Zn3   S    
O18   Zn3   S    
O16   Zn2   S    
C84   C86   A    
C55   F28   S    
C29   C32   A    
C69   C70   D    
C17   Cl1   S    
C5    C6    A    
C85   C96   A    
C63   H2    S    
C66   C69   S    
C66   F8    S    
O9    Zn6   S    
C43   O15   A    
O23   Zn4   S    
C81   Cl11  S    
C17   C20   A    
C56   C57   A    
C4    Cl18  S    
C34   C35   A    
C76   O2    A    
O11   Zn2   S    
C72   O18   A    
C62   C64   A    
C60   F6    S    
C32   C77   S    
C19   C103  A    
C15   C22   A    
C47   C48   A    
C8    C9    A    
O7    Zn6   S    
C4    C102  A    
O13   Zn1   S    
C23   C24   A    
C16   Cl24  S    
C41   C52   A    
C40   F30   S    
C73   O20   A    
C51   F4    S    
C40   C42   A    
C18   O10   A    
C59   C60   A    
C78   C89   S    
C21   C22   A    
C78   O6    A    
C69   F10   S    
C71   O12   A    
C53   C75   S    
C42   C44   A    
O15   Zn1   S    
C8    F21   S    
C104  C105  A    
C52   Cl21  S    
C81   C82   A    
C100  C101  A    
C88   C94   A    
C98   F15   S    
C31   C70   S    
C3    C106  A    
C82   F11   S    
C38   C39   A    
C54   C56   A    
C1    O4    A    
C28   F12   S    
C15   C16   A    
C80   O9    A    
C67   C79   A    
C24   C25   A    
C62   Cl7   S    
O1    Zn1   S    
C34   F27   S    
C86   F13   S    
C71   O17   A    
C39   C40   A    
C95   F14   S    
C86   C87   A    
C16   C17   A    
C18   O11   A    
C25   C26   A    
O14   Zn2   S    
C83   C94   S    
C26   F26   S    
C23   F23   S    
C60   C61   A    
C51   C53   A    
C80   O8    A    
C39   F29   S    
C90   C101  S    
C37   C38   A    
C84   H1    S    
C67   Cl4   S    
C90   C92   A    
C83   C84   A    
C19   F1    S    
C20   C21   A    
C33   C34   A    
C51   C58   A    
C81   C87   A    
O22   Zn3   S    
C12   C13   A    
C88   Cl13  S    
C102  C104  A    
C102  F17   S    
C21   Cl23  S    
C87   Cl10  S    
C73   O21   A    
O10   Zn1   S    
C76   O24   A    
C9    C30   A    
C12   Cl22  S    
C2    Cl20  S    
C48   C49   A    
C64   F7    S    
C106  F19   S    
C30   C105  S    
C49   C50   A    
C23   C28   A    
O6    Zn5   S    
C3    C4    A    
C2    C10   A    
C75   O23   A    
C72   O19   A    
C42   F31   S    
C1    C35   S    
C49   Cl3   S    
C5    C30   A    
C99   F16   S    
C19   C55   A    
C46   C47   A    
C77   O3    A    
C56   Cl5   S    
C31   O13   A    
C33   C44   S    
C79   C91   A    
C15   F25   S    
C91   C103  A    
C52   C63   A    
C55   C67   A    
C11   C12   A    
C95   C97   A    
C6    C76   S    
C6    C7    A    
C71   C93   S    
C63   C74   A    
C70   Cl9   S    
C105  C106  A    
C11   C22   S    
C85   H3    S    
C43   O16   A    
C91   Cl8   S    
C74   F24   S    
C100  Cl17  S    
C104  F18   S    
C32   C33   A    
C37   C44   A    
C75   O22   A    
C92   Cl14  S    
C50   Cl30  S    
C99   C100  A    
C59   C65   A    
C47   C58   S    
C103  Cl16  S    
C24   Cl25  S    
C57   C58   A    
C48   Cl2   S    
C45   C50   A    
C64   C65   A    
C92   C93   A    
C38   Cl29  S    
C1    O1    A    
O2    Zn6   S    
C74   C85   A    
C61   C62   A    
C2    C14   A    
O5    Zn6   S    
C14   C79   S    
C10   C11   A    
C43   C57   S    
C25   C36   S    
C41   F22   S    
C41   C96   A    
O24   Zn5   S    
C45   C46   A    
C3    F20   S    
C88   C89   A    
C59   F5    S    
C77   O5    A    
C98   C99   A    
C5    Cl19  S    
C27   C28   A    
C37   Cl28  S    
C45   F2    S    
C82   C83   A    
C89   C90   A    
C13   C14   A    
C61   Cl6   S    
C68   F9    S    
C95   C101  A    
O20   Zn3   S    
C46   F3    S    
C10   C72   S    
