data_mof_unit_27197.cif
_audit_creation_date              2012-12-10T17:27:50-0500
_audit_creation_method            fapswitch 2.2
_symmetry_space_group_name_H-M    P1
_symmetry_Int_Tables_number       1
_space_group_crystal_system       triclinic
_cell_length_a                    10.625586
_cell_length_b                    12.010047
_cell_length_c                    12.85319
_cell_angle_alpha                 93.559554
_cell_angle_beta                  90.191499
_cell_angle_gamma                 86.56756
_cell_volume                      1634.14301217

loop_
_atom_site_label
_atom_site_type_symbol
_atom_type_description
_atom_site_fract_x
_atom_site_fract_y
_atom_site_fract_z
_atom_type_partial_charge
C1    C     C_R   0.497652 0.522219 0.700299 0.846561
C2    C     C_R   0.547012 0.631739 0.861164 -0.194464
C3    C     C_R   0.464229 0.447665 0.867833 -0.192676
C4    C     C_R   0.739392 0.500898 0.503190 0.865896
C5    C     C_R   0.479559 0.452271 0.974295 0.098948
C6    C     C_R   0.530013 0.547570 0.025024 0.042890
C7    C     C_R   0.545574 0.551850 0.131769 0.536018
C8    C     C_R   0.458971 0.368724 0.137717 -0.267250
C9    C     C_R   0.446156 0.362584 0.030460 -0.159599
C10   C     C_R   0.384330 0.951205 0.395086 0.055538
C11   C     C_R   0.397415 0.834947 0.408528 -0.081674
C12   C     C_R   0.936944 0.462260 0.597381 0.102346
C13   C     C_R   0.547356 0.859340 0.543373 0.792497
C14   C     C_R   0.539349 0.976421 0.535247 -0.281405
C15   C     C_R   0.456810 0.023966 0.460592 -0.233528
C16   C     C_R   0.504018 0.477869 0.299614 0.932690
C17   C     C_R   0.451118 0.142750 0.455241 0.707286
C18   C     C_R   0.602317 0.162303 0.590286 -0.225561
C19   C     C_R   0.612024 0.046900 0.599851 0.620730
C20   C     C_R   0.260513 0.499960 0.502640 0.860402
C21   C     C_R   0.874518 0.426030 0.685177 -0.272693
C22   C     C_R   0.943097 0.388371 0.770153 -0.197598
C23   C     C_R   0.871475 0.503028 0.510583 -0.056498
C24   C     C_R   0.074189 0.387245 0.769721 0.693197
C25   C     C_R   0.137066 0.423688 0.684195 -0.279651
C26   C     C_R   0.068934 0.460985 0.596846 0.012774
C27   C     C_3   0.295473 0.997024 0.312182 -0.307728
C28   C     C_3   0.224867 0.910490 0.244915 -0.445801
C29   C     C_3   0.140866 0.967006 0.164624 -0.779475
C30   C     C_R   0.932268 0.546007 0.427694 -0.182337
C31   C     C_R   0.060887 0.544720 0.427137 -0.192953
C32   C     C_R   0.128229 0.500523 0.509503 -0.043514
C33   C     C_R   0.505845 0.464257 0.188091 -0.194103
C34   C     C_R   0.500084 0.536000 0.811500 -0.069042
C35   C     C_R   0.562439 0.637435 0.968204 -0.145240
F1    F     F_    0.374327 0.195644 0.387331 -0.685358
F2    F     F_    0.692284 0.005183 0.672139 -0.600742
F3    F     F_    0.625586 0.811403 0.613649 -0.607380
F4    F     F_    0.140683 0.352035 0.853001 -0.677929
F5    F     F_    0.597935 0.641651 0.180820 -0.672470
H1    H     H_    0.879934 0.578091 0.362240 0.173810
H2    H     H_    0.108390 0.576314 0.361447 0.149647
H3    H     H_    0.428370 0.300913 0.181421 0.220039
H4    H     H_    0.600464 0.711324 0.005913 0.206845
H5    H     H_    0.069515 0.026354 0.204178 0.266668
H6    H     H_    0.198545 0.012881 0.111563 0.267018
H7    H     H_    0.091015 0.902744 0.117421 0.260191
H8    H     H_    0.293683 0.850732 0.202615 0.245547
H9    H     H_    0.164283 0.863951 0.295263 0.234108
H10   H     H_    0.223453 0.055702 0.351872 0.249675
H11   H     H_    0.351759 0.043474 0.258463 0.244312
H12   H     H_    0.408032 0.289184 0.991788 0.185677
H13   H     H_    0.575508 0.700024 0.817075 0.215578
H14   H     H_    0.426365 0.374334 0.828523 0.181434
H15   H     H_    0.658177 0.216168 0.639985 0.188870
H16   H     H_    0.344910 0.776270 0.361655 0.162051
H17   H     H_    0.772835 0.428127 0.689870 0.171764
H18   H     H_    0.894198 0.361100 0.836927 0.176583
H19   H     H_    0.238662 0.423895 0.688007 0.161077
N1    N     N_R   0.523130 0.207800 0.519340 -0.164931
N2    N     N_R   0.476870 0.792180 0.480660 -0.170772
O1    O     O_R   0.506170 0.421690 0.658830 -0.648790
O2    O     O_R   0.491330 0.609320 0.646410 -0.577422
O3    O     O_R   0.690660 0.406170 0.506210 -0.630137
O4    O     O_R   0.675810 0.593790 0.493790 -0.561819
O5    O     O_R   0.508670 0.390680 0.353590 -0.578933
O6    O     O_R   0.493830 0.578310 0.341170 -0.576887
O7    O     O_R   0.324190 0.406210 0.506210 -0.568011
O8    O     O_R   0.309340 0.593830 0.493790 -0.637942
Zn1   Zn    Zn3+2 0.509910 0.374720 0.508290 1.001213
Zn2   Zn    Zn3+2 0.490090 0.625280 0.491710 1.032432

loop_
_geom_bond_atom_site_label_1
_geom_bond_atom_site_label_2
_ccdc_geom_bond_type
C2    C35   A    
C22   H18   S    
C7    F5    S    
C27   H10   S    
C30   H1    S    
C26   C32   A    
C6    C7    A    
C17   F1    S    
O3    Zn1   S    
C16   C33   S    
C19   F2    S    
C28   H9    S    
C4    O3    A    
C31   C32   A    
C14   C15   A    
C10   C27   S    
N1    Zn1   S    
C29   H6    S    
C10   C15   A    
C1    O1    A    
C2    C34   A    
C13   F3    S    
O8    Zn2   S    
C16   O6    A    
C21   C22   A    
C24   C25   A    
C21   H17   S    
C35   H4    S    
C7    C33   A    
C12   C23   A    
N2    Zn2   S    
C5    C9    A    
O5    Zn1   S    
C9    H12   S    
C18   H15   S    
C29   H7    S    
C5    C6    A    
C1    O2    A    
C8    H3    S    
C18   N1    A    
C28   C29   S    
C31   H2    S    
C27   H11   S    
C1    C34   S    
O6    Zn2   S    
C8    C33   A    
C30   C31   A    
C3    H14   S    
C22   C24   A    
C20   O8    A    
C16   O5    A    
C10   C11   A    
C17   N1    A    
C13   C14   A    
C12   C21   A    
C23   C30   A    
C24   F4    S    
C13   N2    A    
C6    C35   A    
O1    Zn1   S    
O7    Zn1   S    
C18   C19   A    
C20   C32   S    
C29   H5    S    
C27   C28   S    
C15   C17   A    
C4    C23   S    
C4    O4    A    
C28   H8    S    
C25   H19   S    
C3    C34   A    
C3    C5    A    
C25   C26   A    
O4    Zn2   S    
C14   C19   A    
C20   O7    A    
C11   H16   S    
O2    Zn2   S    
C12   C26   A    
C8    C9    A    
C11   N2    A    
C2    H13   S    
