data_mof_unit_54460.cif
_audit_creation_date              2012-12-10T18:09:31-0500
_audit_creation_method            fapswitch 2.2
_symmetry_space_group_name_H-M    P1
_symmetry_Int_Tables_number       1
_space_group_crystal_system       triclinic
_cell_length_a                    15.397637
_cell_length_b                    15.016548
_cell_length_c                    9.403557
_cell_angle_alpha                 90.381986
_cell_angle_beta                  90.342885
_cell_angle_gamma                 89.915218
_cell_volume                      2174.19487665

loop_
_atom_site_label
_atom_site_type_symbol
_atom_type_description
_atom_site_fract_x
_atom_site_fract_y
_atom_site_fract_z
_atom_type_partial_charge
C1    C     C_R   0.119143 0.378587 0.500081 0.743605
C2    C     C_R   0.118824 0.621776 0.500500 0.751670
C3    C     C_R   0.619143 0.878587 0.500081 0.743605
C4    C     C_R   0.618824 0.121776 0.500500 0.751670
C5    C     C_3   0.089976 0.486971 0.084543 -0.186046
C6    C     C_3   0.089742 0.485672 0.916910 -0.185344
C7    C     C_3   0.589976 0.986971 0.084543 -0.186046
C8    C     C_3   0.589742 0.985672 0.916910 -0.185343
C9    C     C_R   0.880572 0.379438 0.499221 0.769831
C10   C     C_R   0.882464 0.622472 0.499985 0.764869
C11   C     C_R   0.380571 0.879438 0.499221 0.769831
C12   C     C_R   0.382464 0.122472 0.499985 0.764869
C13   C     C_3   0.836564 0.232928 0.593201 -0.396008
C14   C     C_3   0.792744 0.276843 0.344844 -0.397942
C15   C     C_3   0.812776 0.743225 0.641539 -0.382988
C16   C     C_3   0.824103 0.755861 0.375127 -0.417475
C17   C     C_3   0.336564 0.732928 0.593201 -0.396008
C18   C     C_3   0.292743 0.776843 0.344844 -0.397942
C19   C     C_3   0.312776 0.243225 0.641539 -0.382988
C20   C     C_3   0.324103 0.255861 0.375127 -0.417476
C21   C     C_3   0.265207 0.661568 0.591858 -0.377663
C22   C     C_3   0.224262 0.702726 0.347395 -0.434793
C23   C     C_3   0.240380 0.313556 0.641080 -0.386590
C24   C     C_3   0.253492 0.327998 0.380402 -0.422352
C25   C     C_3   0.765207 0.161568 0.591858 -0.377663
C26   C     C_3   0.724262 0.202726 0.347395 -0.434793
C27   C     C_3   0.740379 0.813557 0.641080 -0.386590
C28   C     C_3   0.753492 0.827998 0.380402 -0.422352
C29   C     C_3   0.726211 0.355538 0.555841 -0.367842
C30   C     C_3   0.724312 0.641776 0.478967 -0.328936
C31   C     C_3   0.226211 0.855538 0.555841 -0.367842
C32   C     C_3   0.224312 0.141776 0.478967 -0.328935
C33   C     C_3   0.810352 0.312276 0.498008 0.113974
C34   C     C_3   0.812375 0.689872 0.499600 0.111971
C35   C     C_3   0.310352 0.812276 0.498008 0.113974
C36   C     C_3   0.312375 0.189872 0.499600 0.111971
C37   C     C_3   0.186224 0.693003 0.500994 0.119188
C38   C     C_3   0.186710 0.307431 0.500444 0.099545
C39   C     C_3   0.686224 0.193003 0.500994 0.119188
C40   C     C_3   0.686710 0.807431 0.500444 0.099545
C41   C     C_3   0.148811 0.787758 0.553477 0.339496
C42   C     C_3   0.146164 0.209353 0.481091 0.334122
C43   C     C_3   0.648811 0.287758 0.553477 0.339496
C44   C     C_3   0.646164 0.709353 0.481091 0.334123
C45   C     C_3   0.968307 0.585366 0.084448 -0.185319
C46   C     C_3   0.968076 0.585198 0.917091 -0.195765
C47   C     C_3   0.945950 0.427941 0.082524 -0.187237
C48   C     C_3   0.945625 0.428151 0.915045 -0.183873
C49   C     C_3   0.468307 0.085366 0.084448 -0.185318
C50   C     C_3   0.468076 0.085198 0.917091 -0.195765
C51   C     C_3   0.445950 0.927941 0.082524 -0.187237
C52   C     C_3   0.445625 0.928151 0.915045 -0.183873
Cu1   Cu    Cu3+1 0.000100 0.500000 0.642410 0.884113
Cu2   Cu    Cu3+1 0.000100 0.500000 0.357590 0.879861
Cu3   Cu    Cu3+1 0.500100 0.000000 0.642410 0.884113
Cu4   Cu    Cu3+1 0.500100 0.000000 0.357590 0.879861
H1    H     H_    0.849716 0.255297 0.704200 0.163708
H2    H     H_    0.769500 0.331859 0.275513 0.162913
H3    H     H_    0.804532 0.698188 0.733508 0.162338
H4    H     H_    0.820074 0.720224 0.271139 0.165281
H5    H     H_    0.349716 0.755297 0.704200 0.163708
H6    H     H_    0.269500 0.831859 0.275513 0.162913
H7    H     H_    0.304532 0.198188 0.733508 0.162338
H8    H     H_    0.320074 0.220224 0.271139 0.165281
H9    H     H_    0.897057 0.203017 0.551574 0.147530
H10   H     H_    0.853731 0.250179 0.297646 0.170600
H11   H     H_    0.876634 0.776592 0.656488 0.149719
H12   H     H_    0.888756 0.787849 0.381155 0.177977
H13   H     H_    0.397057 0.703017 0.551574 0.147530
H14   H     H_    0.353731 0.750179 0.297646 0.170600
H15   H     H_    0.376634 0.276592 0.656488 0.149719
H16   H     H_    0.388756 0.287849 0.381155 0.177978
H17   H     H_    0.292261 0.599027 0.545352 0.141098
H18   H     H_    0.255153 0.639019 0.313082 0.171414
H19   H     H_    0.270342 0.380814 0.651404 0.152547
H20   H     H_    0.284704 0.393763 0.401140 0.164932
H21   H     H_    0.792261 0.099027 0.545352 0.141098
H22   H     H_    0.755153 0.139020 0.313082 0.171414
H23   H     H_    0.770342 0.880814 0.651404 0.152547
H24   H     H_    0.784704 0.893763 0.401140 0.164932
H25   H     H_    0.248300 0.642679 0.701088 0.176587
H26   H     H_    0.173358 0.715807 0.265962 0.163004
H27   H     H_    0.198850 0.306794 0.736069 0.175210
H28   H     H_    0.222587 0.334474 0.274139 0.157190
H29   H     H_    0.748300 0.142679 0.701088 0.176587
H30   H     H_    0.673358 0.215807 0.265962 0.163004
H31   H     H_    0.698850 0.806794 0.736069 0.175210
H32   H     H_    0.722587 0.834474 0.274139 0.157190
H33   H     H_    0.738429 0.382625 0.664304 0.154911
H34   H     H_    0.711466 0.415322 0.490609 0.132277
H35   H     H_    0.718299 0.588548 0.558975 0.149695
H36   H     H_    0.727512 0.605345 0.375779 0.143163
H37   H     H_    0.238429 0.882625 0.664303 0.154911
H38   H     H_    0.211466 0.915322 0.490609 0.132277
H39   H     H_    0.218299 0.088548 0.558974 0.149694
H40   H     H_    0.227512 0.105345 0.375779 0.143163
H41   H     H_    0.008251 0.641805 0.125278 0.134473
H42   H     H_    0.007164 0.641665 0.877930 0.147841
H43   H     H_    0.969059 0.362118 0.121268 0.133640
H44   H     H_    0.968062 0.362192 0.874820 0.135416
H45   H     H_    0.508251 0.141805 0.125278 0.134473
H46   H     H_    0.507164 0.141665 0.877930 0.147841
H47   H     H_    0.469059 0.862118 0.121268 0.133640
H48   H     H_    0.468062 0.862192 0.874820 0.135416
H49   H     H_    0.900812 0.597568 0.120975 0.137920
H50   H     H_    0.900436 0.597034 0.879972 0.136520
H51   H     H_    0.878047 0.435930 0.120310 0.138349
H52   H     H_    0.877562 0.436642 0.877023 0.138609
H53   H     H_    0.400812 0.097568 0.120975 0.137920
H54   H     H_    0.400436 0.097034 0.879972 0.136520
H55   H     H_    0.378047 0.935930 0.120310 0.138349
H56   H     H_    0.377562 0.936642 0.877023 0.138609
H57   H     H_    0.133992 0.540558 0.123613 0.138497
H58   H     H_    0.135151 0.536704 0.876726 0.130790
H59   H     H_    0.117809 0.423139 0.122723 0.134940
H60   H     H_    0.115805 0.420458 0.880411 0.136995
H61   H     H_    0.633992 0.040558 0.123613 0.138497
H62   H     H_    0.635151 0.036704 0.876726 0.130789
H63   H     H_    0.617810 0.923139 0.122723 0.134939
H64   H     H_    0.615805 0.920458 0.880411 0.136995
N1    N     N_3   0.001260 0.500000 0.143650 -0.109219
N2    N     N_3   0.001260 0.500000 0.856350 -0.108844
N3    N     N_3   0.501260 0.000000 0.143650 -0.109219
N4    N     N_3   0.501260 0.000000 0.856350 -0.108844
O1    O     O_R   0.091250 0.408820 0.620260 -0.592985
O2    O     O_R   0.091250 0.408820 0.379740 -0.598220
O3    O     O_R   0.091250 0.591180 0.620260 -0.583872
O4    O     O_R   0.091250 0.591180 0.379740 -0.596550
O5    O     O_R   0.591250 0.908820 0.620260 -0.592985
O6    O     O_R   0.591250 0.908820 0.379740 -0.598220
O7    O     O_R   0.591250 0.091180 0.620260 -0.583873
O8    O     O_R   0.591250 0.091180 0.379740 -0.596550
O9    O     O_R   0.908940 0.408800 0.620260 -0.599328
O10   O     O_R   0.908940 0.408800 0.379740 -0.597252
O11   O     O_R   0.908940 0.591200 0.620260 -0.596804
O12   O     O_R   0.908940 0.591200 0.379740 -0.597137
O13   O     O_R   0.408940 0.908800 0.620260 -0.599328
O14   O     O_R   0.408940 0.908800 0.379740 -0.597252
O15   O     O_R   0.408940 0.091200 0.620260 -0.596804
O16   O     O_R   0.408940 0.091200 0.379740 -0.597137
C53   C     C_3   0.102698 0.786986 0.703131 -0.335387
C54   C     C_3   0.154427 0.758459 0.835158 -0.928288
H65   H     H_    0.152122 0.685680 0.848700 0.247578
H66   H     H_    0.222471 0.781799 0.834193 0.251719
H67   H     H_    0.123421 0.787151 0.931581 0.227120
H68   H     H_    0.081846 0.856032 0.728684 0.207469
H69   H     H_    0.042215 0.746995 0.696575 0.192885
C55   C     C_3   0.079188 0.820972 0.441476 -0.443878
C56   C     C_3   0.025479 0.903307 0.483596 -0.941550
H70   H     H_    0.975873 0.886121 0.563833 0.245060
H71   H     H_    0.067424 0.957390 0.525970 0.262326
H72   H     H_    0.990193 0.928554 0.388716 0.253049
H73   H     H_    0.111195 0.838651 0.340172 0.208239
H74   H     H_    0.033158 0.766311 0.416655 0.183525
C57   C     C_3   0.078080 0.187328 0.602287 -0.369192
C58   C     C_3   0.108323 0.142334 0.740605 -0.910323
H75   H     H_    0.118729 0.069855 0.723608 0.239709
H76   H     H_    0.167414 0.171342 0.787373 0.250739
H77   H     H_    0.056138 0.148858 0.821105 0.234887
H78   H     H_    0.041473 0.248205 0.631685 0.184522
H79   H     H_    0.028494 0.140769 0.561255 0.216478
C59   C     C_3   0.096641 0.203680 0.333297 -0.436833
C60   C     C_3   0.053908 0.114025 0.294744 -0.921925
H80   H     H_    0.094575 0.056478 0.325943 0.265299
H81   H     H_    0.988822 0.108021 0.343822 0.241485
H82   H     H_    0.043618 0.110347 0.177812 0.244111
H83   H     H_    0.044423 0.254583 0.328751 0.206340
H84   H     H_    0.142111 0.217813 0.245471 0.202891
C61   C     C_3   0.602698 0.286986 0.703131 -0.335388
C62   C     C_3   0.654427 0.258459 0.835158 -0.928288
H85   H     H_    0.652122 0.185680 0.848700 0.247578
H86   H     H_    0.722471 0.281799 0.834193 0.251719
H87   H     H_    0.623421 0.287151 0.931581 0.227120
H88   H     H_    0.581846 0.356032 0.728684 0.207469
H89   H     H_    0.542215 0.246995 0.696575 0.192885
C63   C     C_3   0.579188 0.320972 0.441476 -0.443878
C64   C     C_3   0.525479 0.403307 0.483596 -0.941551
H90   H     H_    0.475873 0.386121 0.563833 0.245060
H91   H     H_    0.567424 0.457390 0.525970 0.262326
H92   H     H_    0.490193 0.428554 0.388716 0.253049
H93   H     H_    0.611195 0.338651 0.340172 0.208239
H94   H     H_    0.533158 0.266311 0.416655 0.183525
C65   C     C_3   0.578080 0.687328 0.602287 -0.369191
C66   C     C_3   0.608323 0.642334 0.740605 -0.910322
H95   H     H_    0.618729 0.569855 0.723609 0.239709
H96   H     H_    0.667414 0.671342 0.787373 0.250739
H97   H     H_    0.556138 0.648858 0.821105 0.234887
H98   H     H_    0.541473 0.748205 0.631685 0.184521
H99   H     H_    0.528494 0.640769 0.561255 0.216478
C67   C     C_3   0.596641 0.703680 0.333297 -0.436833
C68   C     C_3   0.553908 0.614025 0.294744 -0.921925
H100  H     H_    0.594575 0.556478 0.325943 0.265299
H101  H     H_    0.488822 0.608021 0.343822 0.241485
H102  H     H_    0.543618 0.610347 0.177813 0.244111
H103  H     H_    0.544423 0.754583 0.328751 0.206340
H104  H     H_    0.642111 0.717813 0.245471 0.202891

loop_
_geom_bond_atom_site_label_1
_geom_bond_atom_site_label_2
_ccdc_geom_bond_type
C18   H14   S    
Cu3   Cu4   S    
C17   H13   S    
C67   C68   S    
C29   C33   S    
C3    O6    A    
C51   N3    S    
C61   C62   S    
C7    H61   S    
C19   H15   S    
C60   H80   S    
Cu1   O11   S    
C52   H56   S    
C30   C44   S    
C14   C33   S    
C29   H33   S    
C43   C61   S    
C8    H62   S    
C7    C8    S    
C4    O8    A    
C13   H9    S    
C45   C46   S    
C57   H79   S    
C63   H94   S    
Cu2   O2    S    
C26   H22   S    
Cu3   O15   S    
C23   H27   S    
C25   H21   S    
C32   C36   S    
C58   H75   S    
C60   H81   S    
C11   O14   A    
C1    O1    A    
C38   C42   S    
C27   H23   S    
C19   C36   S    
C56   H71   S    
C49   H45   S    
C5    C6    S    
Cu4   O16   S    
C26   C39   S    
C47   N1    S    
C13   H1    S    
C62   H85   S    
C28   C40   S    
C51   H47   S    
Cu2   O10   S    
C21   H17   S    
C50   H54   S    
C47   H43   S    
C66   H95   S    
C16   H4    S    
C49   C50   S    
C6    H58   S    
Cu1   O3    S    
C44   C67   S    
C20   H16   S    
C11   C35   S    
C20   C24   S    
C19   H7    S    
C64   H91   S    
C28   H32   S    
C24   C38   S    
C61   H88   S    
C12   O16   A    
C16   H12   S    
C12   C36   S    
C18   C35   S    
C15   C34   S    
C16   C28   S    
C67   H104  S    
C17   H5    S    
C2    O3    A    
C46   H42   S    
Cu2   O12   S    
C18   C22   S    
C5    H59   S    
C9    C33   S    
C54   H67   S    
C13   C25   S    
C55   H74   S    
C48   H44   S    
C65   H99   S    
C29   H34   S    
C45   H49   S    
C4    O7    A    
C61   H89   S    
C63   H93   S    
C14   H2    S    
C30   C34   S    
C68   H100  S    
Cu4   N3    S    
C7    H63   S    
C60   H82   S    
Cu1   O9    S    
C55   C56   S    
C30   H36   S    
C56   H72   S    
C23   H19   S    
C8    N4    S    
C39   C43   S    
C45   N1    S    
C31   H37   S    
C22   C37   S    
Cu2   O4    S    
C17   C21   S    
C51   C52   S    
C20   H8    S    
C19   C23   S    
C65   C66   S    
C68   H101  S    
C65   H98   S    
C41   C53   S    
C16   C34   S    
Cu4   O14   S    
C43   C63   S    
C25   C39   S    
C15   C27   S    
C47   C48   S    
C4    C39   S    
C27   C40   S    
C26   H30   S    
C64   H92   S    
C15   H11   S    
C25   H29   S    
C14   H10   S    
C12   O15   A    
C50   N4    S    
C9    O9    A    
C10   C34   S    
C14   C26   S    
C27   H31   S    
C44   C65   S    
C6    H60   S    
Cu4   O8    S    
Cu1   O1    S    
C1    C38   S    
C59   H84   S    
C67   H103  S    
C63   C64   S    
C32   H40   S    
Cu2   N1    S    
C21   H25   S    
C3    C40   S    
C50   H46   S    
Cu3   O7    S    
C1    O2    A    
C54   H66   S    
C55   H73   S    
C6    N2    S    
C23   C38   S    
C22   H26   S    
C8    H64   S    
C49   H53   S    
C59   C60   S    
Cu3   N4    S    
C52   H48   S    
C5    N1    S    
C51   H55   S    
C31   C41   S    
C5    H57   S    
C57   H78   S    
C3    O5    A    
C15   H3    S    
C58   H77   S    
C24   H20   S    
C7    N3    S    
C30   H35   S    
C42   C59   S    
Cu1   Cu2   S    
C13   C33   S    
C10   O12   A    
C31   H38   S    
C47   H51   S    
Cu3   O13   S    
C66   H97   S    
Cu1   N2    S    
Cu3   O5    S    
C42   C57   S    
C24   H28   S    
C68   H102  S    
C10   O11   A    
C45   H41   S    
C53   C54   S    
C9    O10   A    
C48   N2    S    
C52   N4    S    
C2    C37   S    
C48   H52   S    
C41   C55   S    
C62   H86   S    
C46   H50   S    
C58   H76   S    
C66   H96   S    
C31   C35   S    
C37   C41   S    
C28   H24   S    
Cu4   O6    S    
C53   H69   S    
C59   H83   S    
C20   C36   S    
C11   O13   A    
C40   C44   S    
C32   H39   S    
C21   C37   S    
C22   H18   S    
C64   H90   S    
C57   C58   S    
C53   H68   S    
C32   C42   S    
C54   H65   S    
C46   N2    S    
C18   H6    S    
C17   C35   S    
C56   H70   S    
C29   C43   S    
C2    O4    A    
C62   H87   S    
C49   N3    S    
