data_mof_unit_60016.cif
_audit_creation_date              2012-10-26T19:36:45-0400
_audit_creation_method            fapswitch 2.2
_symmetry_space_group_name_H-M    P1
_symmetry_Int_Tables_number       1
_space_group_crystal_system       triclinic
_cell_length_a                    17.716652
_cell_length_b                    16.4801
_cell_length_c                    10.830377
_cell_angle_alpha                 89.915053
_cell_angle_beta                  91.146265
_cell_angle_gamma                 89.874135
_cell_volume                      3161.52485092

loop_
_atom_site_label
_atom_site_type_symbol
_atom_type_description
_atom_site_fract_x
_atom_site_fract_y
_atom_site_fract_z
_atom_type_partial_charge
C1    C     C_R   0.355290 0.500116 0.501051 0.600343
C2    C     C_1   0.034012 0.501331 0.512047 0.000943
C3    C     C_R   0.154867 0.570380 0.545906 -0.078801
C4    C     C_R   0.152827 0.431281 0.473515 -0.084835
C5    C     C_R   0.233532 0.570144 0.542942 -0.076388
C6    C     C_R   0.231402 0.430955 0.470615 -0.072479
C7    C     C_R   0.272433 0.500479 0.504587 0.054451
C8    C     C_R   0.496150 0.500112 0.259210 0.609953
C9    C     C_R   0.114620 0.501000 0.510880 0.041607
C10   C     C_R   0.563632 0.823718 0.572054 -0.128026
C11   C     C_R   0.560614 0.175725 0.576812 -0.128238
C12   C     C_3   0.578421 0.501274 0.931786 0.322239
C13   C     C_R   0.557177 0.738200 0.565851 0.054491
C14   C     C_R   0.554817 0.261172 0.570494 0.044655
C15   C     C_R   0.446994 0.749965 0.440511 0.267425
C16   C     C_R   0.448850 0.251881 0.435581 0.272447
C17   C     C_R   0.452585 0.835292 0.443924 -0.048474
C18   C     C_R   0.453011 0.166001 0.440148 -0.107181
C19   C     C_R   0.510833 0.873495 0.510084 -0.001848
C20   C     C_R   0.509355 0.126832 0.510666 0.012826
C21   C     C_1   0.514106 0.962916 0.514452 0.004120
C22   C     C_1   0.513417 0.037408 0.514459 0.010143
C23   C     C_R   0.846044 0.574125 0.509095 -0.090086
C24   C     C_R   0.644734 0.499959 0.500958 0.566177
C25   C     C_R   0.498145 0.499975 0.739799 0.660275
C26   C     C_3   0.450950 0.578740 0.066788 0.390825
C27   C     C_3   0.455710 0.419395 0.067713 0.401222
C28   C     C_3   0.452578 0.577326 0.922753 0.142979
C29   C     C_3   0.454170 0.422177 0.923648 0.136717
C30   C     C_3   0.576247 0.503015 0.075064 -0.234292
C31   C     C_3   0.493449 0.500325 0.120435 -0.056397
C32   C     C_3   0.495199 0.500095 0.876628 -0.066687
C33   C     C_R   0.846836 0.427007 0.508558 -0.089966
C34   C     C_R   0.767370 0.573898 0.505927 -0.094998
C35   C     C_R   0.768118 0.426578 0.505404 -0.095876
C36   C     C_R   0.727714 0.500082 0.503819 0.037012
C37   C     C_R   0.885680 0.500743 0.510306 0.041968
C38   C     C_1   0.966321 0.501147 0.511828 -0.000745
Cl1   Cl    Cl    0.496162 0.672302 0.114540 -0.533318
Cl2   Cl    Cl    0.508807 0.329600 0.112106 -0.545431
Cl3   Cl    Cl    0.356447 0.587571 0.123748 -0.400865
Cl4   Cl    Cl    0.363629 0.402382 0.130417 -0.410452
Cl5   Cl    Cl    0.362535 0.595358 0.846063 -0.439161
Cl6   Cl    Cl    0.362497 0.405868 0.852081 -0.426137
Cl7   Cl    Cl    0.630845 0.587628 0.878621 -0.542564
Cl8   Cl    Cl    0.631935 0.414376 0.883259 -0.535111
Cu1   Cu    Cu3+1 0.499980 0.580420 0.499990 1.047510
Cu2   Cu    Cu3+1 0.499980 0.419580 0.499990 1.095925
H1    H     H_    0.263794 0.623975 0.572147 0.151624
H2    H     H_    0.485843 0.368914 0.889048 0.210767
H3    H     H_    0.605233 0.557849 0.111904 0.200784
H4    H     H_    0.609485 0.451873 0.115453 0.201624
H5    H     H_    0.875931 0.631427 0.510331 0.128477
H6    H     H_    0.877371 0.369959 0.509372 0.128439
H7    H     H_    0.737703 0.631435 0.505092 0.137921
H8    H     H_    0.739006 0.368856 0.504150 0.138683
H9    H     H_    0.125500 0.624494 0.575482 0.133933
H10   H     H_    0.121894 0.377342 0.446214 0.129497
H11   H     H_    0.343323 0.700764 0.442267 0.231473
H12   H     H_    0.259836 0.376702 0.440598 0.150149
H13   H     H_    0.399620 0.665927 0.328694 0.331769
H14   H     H_    0.338915 0.269531 0.399051 0.197869
H15   H     H_    0.393167 0.265845 0.274390 0.286757
H16   H     H_    0.609506 0.850554 0.625324 0.130329
H17   H     H_    0.604887 0.148210 0.633237 0.130426
H18   H     H_    0.598372 0.701471 0.615403 0.165559
H19   H     H_    0.594758 0.297488 0.623016 0.162411
H20   H     H_    0.410125 0.871761 0.396233 0.141337
H21   H     H_    0.412057 0.130219 0.388415 0.113974
H22   H     H_    0.485043 0.630721 0.890994 0.211684
N1    N     N_R   0.499970 0.701220 0.499970 -0.222926
N2    N     N_R   0.499970 0.298780 0.499970 -0.191213
N3    N     N_3   0.382981 0.716967 0.376852 -0.549943
N4    N     N_3   0.390174 0.289248 0.363739 -0.500069
O1    O     O_R   0.391240 0.567930 0.499990 -0.528054
O2    O     O_R   0.391240 0.432070 0.499990 -0.460337
O3    O     O_R   0.499970 0.567910 0.317690 -0.476998
O4    O     O_R   0.499970 0.432090 0.317690 -0.426003
O5    O     O_R   0.608730 0.567880 0.500000 -0.516829
O6    O     O_R   0.608730 0.432120 0.500000 -0.518530
O7    O     O_R   0.500000 0.567910 0.682300 -0.472295
O8    O     O_R   0.500000 0.432090 0.682300 -0.480184

loop_
_geom_bond_atom_site_label_1
_geom_bond_atom_site_label_2
_ccdc_geom_bond_type
C8    O4    A    
C30   H3    S    
C27   C29   S    
Cu2   O2    S    
C35   C36   A    
C16   N2    A    
Cu1   O5    S    
C24   C36   S    
C16   N4    S    
C19   C21   S    
C29   C32   S    
C30   C31   S    
C11   C14   A    
C26   Cl1   S    
Cu2   O4    S    
C17   C19   A    
C24   O6    A    
C14   H19   S    
H11   N3    S    
C34   C36   A    
C13   H18   S    
C18   H21   S    
C34   H7    S    
C21   C22   T    
C12   C32   S    
C25   O7    A    
C1    O2    A    
C5    H1    S    
Cu2   N2    S    
C23   H5    S    
C29   H2    S    
C28   H22   S    
C11   C20   A    
C27   C31   S    
C1    O1    A    
C6    H12   S    
C28   C32   S    
C4    C6    A    
C5    C7    A    
C13   N1    A    
H13   N3    S    
C23   C37   A    
C33   C37   A    
C37   C38   S    
C3    C9    A    
C2    C38   T    
C24   O5    A    
Cu1   Cu2   S    
C10   C19   A    
C23   C34   A    
Cu1   N1    S    
C3    H9    S    
C12   Cl8   S    
C15   N3    S    
C20   C22   S    
C29   Cl6   S    
C8    O3    A    
Cu1   O3    S    
C33   H6    S    
C15   C17   A    
C30   H4    S    
C17   H20   S    
C27   Cl2   S    
C12   C30   S    
C35   H8    S    
C1    C7    S    
C8    C31   S    
C14   N2    A    
C10   H16   S    
C12   Cl7   S    
C3    C5    A    
C10   C13   A    
C6    C7    A    
H15   N4    S    
C15   N1    A    
C28   Cl5   S    
C26   C28   S    
Cu2   O6    S    
Cu1   O1    S    
C27   Cl4   S    
C25   O8    A    
C25   C32   S    
C33   C35   A    
Cu2   O8    S    
C18   C20   A    
Cu1   O7    S    
C26   C31   S    
C16   C18   A    
C4    H10   S    
H14   N4    S    
C4    C9    A    
C2    C9    S    
C11   H17   S    
C26   Cl3   S    
