data_mof_unit_63709.cif
_audit_creation_date              2012-12-10T17:00:49-0500
_audit_creation_method            fapswitch 2.2
_symmetry_space_group_name_H-M    P1
_symmetry_Int_Tables_number       1
_space_group_crystal_system       triclinic
_cell_length_a                    13.111033
_cell_length_b                    13.089144
_cell_length_c                    19.496098
_cell_angle_alpha                 100.005354
_cell_angle_beta                  80.419672
_cell_angle_gamma                 90.667237
_cell_volume                      3248.4173604

loop_
_atom_site_label
_atom_site_type_symbol
_atom_type_description
_atom_site_fract_x
_atom_site_fract_y
_atom_site_fract_z
_atom_type_partial_charge
Br1   Br    Br    0.747813 0.524931 0.065462 -0.094165
Br2   Br    Br    0.669030 0.097348 0.504977 -0.046328
C1    C     C_R   0.223035 0.536109 0.527014 0.514656
C2    C     C_2   0.462868 0.504202 0.986868 -0.141148
C3    C     C_2   0.536686 0.457460 0.010795 -0.130277
C4    C     C_R   0.776218 0.463160 0.473027 0.507565
C5    C     C_R   0.518325 0.477325 0.232986 0.022242
C6    C     C_2   0.887712 0.450245 0.462443 -0.079729
C7    C     C_2   0.940444 0.495312 0.512023 -0.148712
C8    C     C_2   0.110081 0.546947 0.540717 -0.105888
C9    C     C_2   0.053487 0.488272 0.498554 -0.151414
C10   C     C_2   0.541816 0.888271 0.526943 -0.086859
C11   C     C_2   0.522174 0.936081 0.475176 -0.146169
C12   C     C_R   0.469059 0.507373 0.911519 0.027352
C13   C     C_2   0.463973 0.108794 0.466345 -0.099018
C14   C     C_2   0.537636 0.047937 0.480509 0.008750
C15   C     C_R   0.469716 0.222632 0.477762 0.513808
C16   C     C_R   0.532561 0.776547 0.520463 0.502955
C17   C     C_R   0.510884 0.486235 0.309490 0.504278
C18   C     C_R   0.490063 0.514159 0.690880 0.495138
C19   C     C_R   0.483120 0.517155 0.767530 0.041753
C20   C     C_R   0.512258 0.426392 0.789283 -0.137487
C21   C     C_R   0.505518 0.421546 0.860323 -0.119590
C22   C     C_3   0.418865 0.709166 0.801975 -0.239681
C23   C     C_R   0.438648 0.597967 0.891171 -0.100865
C24   C     C_3   0.515331 0.764362 0.771114 -0.280488
C25   C     C_3   0.486088 0.865196 0.749369 -0.443080
C26   C     C_R   0.446818 0.605515 0.819524 -0.004501
C27   C     C_R   0.439842 0.437270 0.127994 -0.130425
C28   C     C_R   0.433062 0.444682 0.200582 -0.132631
C29   C     C_R   0.611330 0.499926 0.191730 -0.115491
C30   C     C_R   0.619128 0.490823 0.118717 0.023024
C31   C     C_R   0.532357 0.461080 0.086746 0.037052
H1    H     H_    0.539407 0.357768 0.751145 0.138413
H2    H     H_    0.678148 0.524136 0.216104 0.137986
H3    H     H_    0.604675 0.423292 0.974743 0.134694
H4    H     H_    0.411377 0.664107 0.931639 0.101660
H5    H     H_    0.372792 0.412945 0.103896 0.116190
H6    H     H_    0.400783 0.547732 0.024012 0.124645
H7    H     H_    0.527435 0.349982 0.875227 0.111594
H8    H     H_    0.435821 0.849054 0.708295 0.178391
H9    H     H_    0.444672 0.918966 0.795813 0.147367
H10   H     H_    0.557187 0.903320 0.727317 0.138455
H11   H     H_    0.566727 0.782346 0.811450 0.156561
H12   H     H_    0.091015 0.434489 0.452562 0.161122
H13   H     H_    0.559708 0.714058 0.724195 0.175747
H14   H     H_    0.360560 0.699069 0.766272 0.180005
H15   H     H_    0.380430 0.761284 0.850449 0.121697
H16   H     H_    0.900173 0.539773 0.561292 0.130963
H17   H     H_    0.072948 0.602037 0.586048 0.106793
H18   H     H_    0.927433 0.410818 0.411458 0.092586
H19   H     H_    0.492931 0.893127 0.429739 0.125124
H20   H     H_    0.395897 0.073536 0.447712 0.090323
H21   H     H_    0.561407 0.932146 0.575516 0.100883
H22   H     H_    0.360752 0.426380 0.231457 0.134705
O1    O     O_3   0.500000 0.500000 0.500000 -0.437152
O2    O     O_R   0.441420 0.437150 0.344000 -0.545143
O3    O     O_R   0.438960 0.578560 0.667440 -0.555355
O4    O     O_R   0.575450 0.541060 0.341470 -0.546457
O5    O     O_R   0.544160 0.443230 0.647100 -0.546342
O6    O     O_R   0.530110 0.266880 0.518530 -0.522982
O7    O     O_R   0.465470 0.738830 0.563940 -0.548975
O8    O     O_R   0.266890 0.467300 0.476120 -0.540046
O9    O     O_R   0.737530 0.526990 0.441410 -0.535896
O10   O     O_R   0.276880 0.592620 0.567490 -0.539860
O11   O     O_R   0.718700 0.413090 0.514970 -0.530476
O12   O     O_R   0.414920 0.276880 0.447500 -0.539861
O13   O     O_R   0.589510 0.717410 0.470040 -0.526472
Zn1   Zn    Zn3+2 0.571990 0.407410 0.544380 0.944735
Zn2   Zn    Zn3+2 0.407420 0.421690 0.442900 0.937550
Zn3   Zn    Zn3+2 0.598910 0.570150 0.439280 0.941279
Zn4   Zn    Zn3+2 0.421690 0.600750 0.573440 0.920924

loop_
_geom_bond_atom_site_label_1
_geom_bond_atom_site_label_2
_ccdc_geom_bond_type
C12   C21   A    
C27   H5    S    
C4    O9    A    
C2    H6    S    
C27   C28   A    
C1    O8    A    
O2    Zn2   S    
C18   O5    A    
O10   Zn4   S    
Br2   C14   S    
C28   H22   S    
C25   H8    S    
C22   H15   S    
C5    C17   S    
C29   C30   A    
C25   H9    S    
O8    Zn2   S    
C3    C31   S    
O1    Zn3   S    
C15   O6    A    
C30   C31   A    
O12   Zn2   S    
O7    Zn4   S    
O9    Zn3   S    
C5    C28   A    
C19   C20   A    
C17   O2    A    
C23   C26   A    
C7    C9    S    
C6    H18   S    
O3    Zn4   S    
C24   C25   S    
C1    O10   A    
O5    Zn1   S    
O13   Zn3   S    
C1    C8    S    
C2    C3    D    
C13   H20   S    
C24   H11   S    
C19   C26   A    
C22   C24   S    
O1    Zn2   S    
C9    H12   S    
C12   C23   A    
C2    C12   S    
C20   H1    S    
C29   H2    S    
C15   O12   A    
O11   Zn1   S    
C5    C29   A    
C8    C9    D    
C24   H13   S    
C16   O13   A    
C10   C16   S    
C13   C14   D    
C11   H19   S    
C3    H3    S    
C27   C31   A    
C4    O11   A    
C7    H16   S    
C10   C11   D    
C22   C26   S    
O1    Zn1   S    
C11   C14   S    
O6    Zn1   S    
C13   C15   S    
C25   H10   S    
C20   C21   A    
C16   O7    A    
C4    C6    S    
C17   O4    A    
C18   C19   S    
C23   H4    S    
C22   H14   S    
C18   O3    A    
Br1   C30   S    
C10   H21   S    
C21   H7    S    
O4    Zn3   S    
C6    C7    D    
O1    Zn4   S    
C8    H17   S    
