data_mof_unit_41504.cif
_audit_creation_date              2012-12-10T17:06:14-0500
_audit_creation_method            fapswitch 2.2
_symmetry_space_group_name_H-M    P1
_symmetry_Int_Tables_number       1
_space_group_crystal_system       triclinic
_cell_length_a                    10.630866
_cell_length_b                    11.023971
_cell_length_c                    9.98241
_cell_angle_alpha                 110.749571
_cell_angle_beta                  98.71565
_cell_angle_gamma                 93.92342
_cell_volume                      1071.89101791

loop_
_atom_site_label
_atom_site_type_symbol
_atom_type_description
_atom_site_fract_x
_atom_site_fract_y
_atom_site_fract_z
_atom_type_partial_charge
C1    C     C_R   0.490507 0.254368 0.440706 0.853199
C2    C     C_R   0.509493 0.745632 0.559294 0.853200
C3    C     C_R   0.259575 0.498691 0.499336 0.782650
C4    C     C_R   0.740425 0.501306 0.500664 0.782660
C5    C     C_3   0.044980 0.416760 0.561877 -0.214859
C6    C     C_3   0.955019 0.583232 0.438126 -0.214932
C7    C     C_3   0.937010 0.378360 0.425066 -0.204607
C8    C     C_3   0.062989 0.621632 0.574938 -0.204672
C9    C     C_3   0.877555 0.501604 0.502141 -0.055777
C10   C     C_3   0.122444 0.498389 0.497861 -0.055771
C11   C     C_3   0.983800 0.539683 0.637773 0.231664
C12   C     C_3   0.016199 0.460309 0.362230 0.231677
C13   C     C_2   0.485006 0.114526 0.407711 -0.361305
C14   C     C_2   0.514994 0.885474 0.592288 -0.361305
C15   C     C_2   0.503114 0.069719 0.516003 -0.158704
C16   C     C_2   0.496890 0.930280 0.483995 -0.158700
C17   C     C_2   0.511581 0.513707 0.080975 0.264845
C18   C     C_2   0.488428 0.486289 0.919026 0.264835
Cu1   Cu    Cu3+1 0.522260 0.521810 0.644920 0.918874
Cu2   Cu    Cu3+1 0.477740 0.478190 0.355080 0.918881
H1    H     H_    0.882788 0.279324 0.363647 0.136209
H2    H     H_    0.117209 0.720668 0.636361 0.136215
H3    H     H_    0.084440 0.349433 0.612959 0.134950
H4    H     H_    0.915559 0.650557 0.387041 0.134952
H5    H     H_    0.477175 0.863902 0.370495 0.185475
H6    H     H_    0.522831 0.136097 0.629502 0.185477
H7    H     H_    0.534155 0.952234 0.705611 0.148069
H8    H     H_    0.465843 0.047766 0.294388 0.148070
H9    H     H_    0.623115 0.632065 0.929053 0.181577
H10   H     H_    0.376880 0.367938 0.070948 0.181568
N1    N     N_2   0.444270 0.445410 0.137360 -0.293219
N2    N     N_2   0.555730 0.554590 0.862640 -0.293229
O1    O     O_R   0.511880 0.332340 0.577400 -0.580621
O2    O     O_R   0.488120 0.667660 0.422600 -0.580617
O3    O     O_R   0.474280 0.295500 0.332650 -0.576256
O4    O     O_R   0.525720 0.704500 0.667350 -0.576258
O5    O     O_R   0.335640 0.518390 0.622350 -0.576033
O6    O     O_R   0.664360 0.481610 0.377650 -0.576033
O7    O     O_R   0.298050 0.481550 0.377590 -0.589769
O8    O     O_R   0.701950 0.518450 0.622410 -0.589783
C19   C     C_3   0.963516 0.586078 0.795840 -0.389423
C20   C     C_3   0.090363 0.620057 0.903653 -0.844490
H11   H     H_    0.140355 0.532326 0.885533 0.253555
H12   H     H_    0.153022 0.698723 0.891250 0.256101
H13   H     H_    0.071626 0.654523 0.016746 0.239234
H14   H     H_    0.912882 0.674033 0.818588 0.203198
H15   H     H_    0.902936 0.507502 0.811011 0.214652
C21   C     C_3   0.036477 0.413934 0.204161 -0.389453
C22   C     C_3   0.909609 0.379743 0.096356 -0.844516
H16   H     H_    0.847183 0.300868 0.108673 0.256013
H17   H     H_    0.859364 0.467319 0.114574 0.253677
H18   H     H_    0.928347 0.345472 0.983265 0.239253
H19   H     H_    0.096915 0.492582 0.188952 0.214607
H20   H     H_    0.087253 0.326078 0.181443 0.203249
C23   C     C_3   0.384216 0.374378 0.825966 -0.791283
H21   H     H_    0.293254 0.391474 0.866802 0.169823
H22   H     H_    0.358466 0.358639 0.711201 0.279718
H23   H     H_    0.413195 0.281385 0.832258 0.182640
C24   C     C_3   0.615797 0.625617 0.174037 -0.791343
H24   H     H_    0.706765 0.608521 0.133212 0.169829
H25   H     H_    0.586823 0.718610 0.167738 0.182646
H26   H     H_    0.641536 0.641366 0.288805 0.279719

loop_
_geom_bond_atom_site_label_1
_geom_bond_atom_site_label_2
_ccdc_geom_bond_type
C8    H2    S    
C23   H21   S    
C13   H8    S    
C5    C11   S    
C14   H7    S    
Cu2   O6    S    
C19   C20   S    
Cu1   Cu2   S    
C5    H3    S    
H10   N1    S    
C12   C21   S    
C22   H18   S    
C6    H4    S    
C2    O2    A    
C6    C9    S    
C13   C15   D    
C17   C18   S    
C19   H15   S    
C3    O7    A    
C24   H24   S    
C3    C10   S    
C21   H20   S    
C9    C11   S    
C3    O5    A    
C21   H19   S    
C19   H14   S    
C20   H12   S    
C18   C23   S    
C17   C24   S    
C8    C11   S    
C2    C14   S    
Cu1   N2    S    
C10   C12   S    
C21   C22   S    
C4    O6    A    
C11   C19   S    
H9    N2    S    
C5    C7    S    
Cu1   O4    S    
C23   H22   S    
C6    C12   S    
C7    C12   S    
C17   N1    D    
C14   C16   D    
C24   H25   S    
C1    C13   S    
Cu1   O8    S    
C1    O1    A    
Cu2   O2    S    
C4    O8    A    
C5    C10   S    
C18   N2    D    
C1    O3    A    
C8    C10   S    
C22   H16   S    
Cu1   O1    S    
C23   H23   S    
C2    O4    A    
C16   H5    S    
C7    C9    S    
Cu2   O7    S    
C15   H6    S    
C24   H26   S    
C6    C8    S    
Cu1   O5    S    
C4    C9    S    
C7    H1    S    
Cu2   O3    S    
C20   H13   S    
C15   C16   S    
C20   H11   S    
C22   H17   S    
Cu2   N1    S    
