data_mof_unit_46728.cif
_audit_creation_date              2012-12-10T19:45:03-0500
_audit_creation_method            fapswitch 2.2
_symmetry_space_group_name_H-M    P1
_symmetry_Int_Tables_number       1
_space_group_crystal_system       triclinic
_cell_length_a                    15.105803
_cell_length_b                    10.898685
_cell_length_c                    13.705812
_cell_angle_alpha                 91.600152
_cell_angle_beta                  90.059631
_cell_angle_gamma                 89.620457
_cell_volume                      2255.50404128

loop_
_atom_site_label
_atom_site_type_symbol
_atom_type_description
_atom_site_fract_x
_atom_site_fract_y
_atom_site_fract_z
_atom_type_partial_charge
C1    C     C_R   0.502059 0.261815 0.498039 0.839908
C2    C     C_R   0.582931 0.879416 0.663510 0.150847
C3    C     C_R   0.470358 0.109478 0.235488 0.108850
C4    C     C_R   0.536041 0.864164 0.752539 0.104582
C5    C     C_R   0.432929 0.175185 0.156331 -0.000373
C6    C     C_R   0.583317 0.823786 0.836513 0.006606
C7    C     C_R   0.352832 0.239612 0.171197 -0.173889
C8    C     C_R   0.673804 0.793994 0.826662 -0.161727
C9    C     C_R   0.450979 0.931939 0.428219 -0.080303
C10   C     C_R   0.550072 0.067043 0.570765 -0.073564
C11   C     C_R   0.495187 0.871976 0.504653 -0.165951
C12   C     C_R   0.498857 0.737845 0.501629 0.846611
C13   C     C_R   0.507302 0.127025 0.493502 -0.169962
C14   C     C_R   0.541373 0.939680 0.578291 -0.101556
C15   C     C_R   0.464673 0.058128 0.417066 -0.095775
C16   C     C_R   0.328903 0.507642 0.500409 0.868181
C17   C     C_R   0.671258 0.496439 0.499880 0.864448
C18   C     C_R   0.571811 0.456569 0.792740 0.041270
C19   C     C_R   0.428895 0.545793 0.207535 0.040583
C20   C     C_R   0.427261 0.542193 0.794100 0.001188
C21   C     C_R   0.571559 0.454563 0.205933 0.024934
C22   C     C_R   0.424634 0.545011 0.897624 -0.087196
C23   C     C_R   0.053315 0.309666 0.414288 -0.201848
C24   C     C_R   0.575750 0.457363 0.102672 -0.068135
C25   C     C_R   0.499686 0.501343 0.948344 0.138430
C26   C     C_R   0.500958 0.501512 0.051919 0.128626
C27   C     C_R   0.573453 0.456614 0.895437 -0.012797
C28   C     C_R   0.426994 0.545122 0.104904 -0.028641
C29   C     C_R   0.349542 0.586953 0.952364 0.007441
C30   C     C_R   0.650487 0.414283 0.048353 0.029099
C31   C     C_R   0.352157 0.586324 0.054982 -0.251266
C32   C     C_R   0.647692 0.413190 0.945621 -0.252134
C33   C     C_R   0.811776 0.594614 0.540969 -0.268122
C34   C     C_R   0.946705 0.700029 0.585741 -0.204959
C35   C     C_R   0.187616 0.413680 0.460325 -0.268691
C36   C     C_R   0.768021 0.493811 0.499452 -0.114585
C37   C     C_R   0.232133 0.513499 0.501596 -0.118240
C38   C     C_R   0.816605 0.392752 0.459937 -0.019909
C39   C     C_R   0.184244 0.615098 0.542138 -0.048710
C40   C     C_R   0.910075 0.398164 0.458007 0.036066
C41   C     C_R   0.090371 0.610937 0.543086 0.032341
C42   C     C_R   0.953422 0.501737 0.500223 0.059662
C43   C     C_R   0.046664 0.507899 0.500312 0.062760
C44   C     C_R   0.903766 0.599157 0.542487 0.121949
C45   C     C_R   0.309733 0.239541 0.260594 -0.149805
C46   C     C_R   0.095999 0.410264 0.458093 0.121263
C47   C     C_R   0.961533 0.304073 0.413252 -0.143457
C48   C     C_R   0.038697 0.705225 0.587396 -0.151827
C49   C     C_2   0.384382 0.864118 0.365589 0.861983
C50   C     C_2   0.609287 0.136510 0.640295 0.871609
C51   C     C_2   0.265921 0.629925 0.907339 0.826659
C52   C     C_2   0.732882 0.369607 0.094921 0.835054
C53   C     C_2   0.770392 0.279697 0.426663 0.851660
C54   C     C_2   0.231548 0.726473 0.578403 0.879077
C55   C     C_3   0.547527 0.020734 0.218947 -0.372861
C56   C     C_R   0.717971 0.807940 0.738826 -0.156199
C57   C     C_3   0.635485 0.080297 0.245995 -0.299637
C58   C     C_3   0.713770 0.000494 0.212911 -0.755513
C59   C     C_3   0.436904 0.887457 0.754952 -0.365910
C60   C     C_3   0.413960 0.020275 0.785642 -0.272662
C61   C     C_3   0.316544 0.033464 0.813485 -0.712256
C62   C     C_2   0.473641 0.179377 0.057086 0.812595
C63   C     C_2   0.543414 0.814370 0.936177 0.806408
C64   C     C_R   0.347179 0.179457 0.338839 -0.128052
C65   C     C_R   0.673332 0.852061 0.658262 -0.167357
C66   C     C_R   0.428259 0.118188 0.328857 0.159477
Cu1   Cu    Cu3+1 0.500010 0.499980 0.597420 0.990944
Cu2   Cu    Cu3+1 0.499990 0.500020 0.402580 0.996880
H1    H     H_    0.773557 0.670172 0.571622 0.139035
H2    H     H_    0.068287 0.783182 0.624959 0.183011
H3    H     H_    0.091078 0.235169 0.380235 0.150865
H4    H     H_    0.909106 0.775080 0.618992 0.144909
H5    H     H_    0.322495 0.289993 0.112751 0.182135
H6    H     H_    0.711758 0.762114 0.888181 0.179149
H7    H     H_    0.246929 0.286861 0.268716 0.143950
H8    H     H_    0.787936 0.787080 0.734143 0.142074
H9    H     H_    0.313125 0.178793 0.408138 0.106483
H10   H     H_    0.709647 0.867745 0.591690 0.126659
H11   H     H_    0.330359 0.830578 0.232644 0.329425
H12   H     H_    0.224909 0.337057 0.431014 0.128926
H13   H     H_    0.645463 0.174986 0.779622 0.328683
H14   H     H_    0.132376 0.630461 0.911052 0.339962
H15   H     H_    0.831787 0.244275 0.093006 0.337627
H16   H     H_    0.759808 0.095483 0.435272 0.323735
H17   H     H_    0.243788 0.910668 0.575886 0.324013
H18   H     H_    0.710590 0.909206 0.246794 0.247821
H19   H     H_    0.713602 0.988218 0.132165 0.287404
H20   H     H_    0.776501 0.045680 0.235479 0.242883
H21   H     H_    0.640805 0.171592 0.212510 0.272141
H22   H     H_    0.637672 0.091945 0.326502 0.236029
H23   H     H_    0.628135 0.421433 0.751861 0.153552
H24   H     H_    0.548110 0.983478 0.142910 0.252814
H25   H     H_    0.540140 0.937787 0.262939 0.214702
H26   H     H_    0.273762 0.003517 0.751430 0.239679
H27   H     H_    0.301721 0.977259 0.877768 0.287542
H28   H     H_    0.301349 0.131064 0.832410 0.253107
H29   H     H_    0.455498 0.050895 0.848311 0.296044
H30   H     H_    0.427313 0.081726 0.724213 0.221254
H31   H     H_    0.407634 0.868976 0.682062 0.227219
H32   H     H_    0.404794 0.820699 0.802550 0.264489
H33   H     H_    0.581618 0.159200 0.971302 0.352882
H34   H     H_    0.372926 0.581769 0.248594 0.152319
H35   H     H_    0.443905 0.855940 0.030036 0.343629
H36   H     H_    0.371231 0.572624 0.752918 0.212215
H37   H     H_    0.624652 0.415110 0.246989 0.206172
H38   H     H_    0.295218 0.619051 0.096528 0.169148
H39   H     H_    0.704569 0.379746 0.904347 0.167200
H40   H     H_    0.931800 0.225956 0.375948 0.174015
N1    N     N_R   0.499960 0.499900 0.743810 -0.196682
N2    N     N_R   0.500040 0.500100 0.256190 -0.197820
O1    O     O_R   0.500000 0.319630 0.582270 -0.577501
O2    O     O_R   0.377559 0.883102 0.265406 -0.789026
O3    O     O_2   0.664474 0.206592 0.608769 -0.592093
O4    O     O_R   0.601629 0.122911 0.741039 -0.786875
O5    O     O_2   0.267039 0.700055 0.839459 -0.606098
O6    O     O_R   0.184935 0.594324 0.946566 -0.752296
O7    O     O_2   0.764606 0.425073 0.165273 -0.591796
O8    O     O_R   0.776309 0.266041 0.055370 -0.749410
O9    O     O_2   0.709851 0.285979 0.368223 -0.633655
O10   O     O_R   0.796403 0.166048 0.462558 -0.744983
O11   O     O_2   0.293555 0.716961 0.634688 -0.604991
O12   O     O_R   0.500000 0.680370 0.417730 -0.577324
O13   O     O_R   0.205702 0.842438 0.547114 -0.745596
O14   O     O_2   0.428279 0.209574 0.987654 -0.613506
O15   O     O_R   0.563518 0.154199 0.042284 -0.773132
O16   O     O_2   0.583644 0.759855 0.999460 -0.609028
O17   O     O_R   0.462516 0.870162 0.960213 -0.778333
O18   O     O_R   0.499990 0.319660 0.417730 -0.569648
O19   O     O_R   0.500010 0.680340 0.582270 -0.576203
O20   O     O_R   0.370260 0.499960 0.582280 -0.573204
O21   O     O_R   0.629740 0.500040 0.417720 -0.559944
O22   O     O_R   0.370250 0.499990 0.417740 -0.585604
O23   O     O_R   0.629750 0.500010 0.582260 -0.586766
O24   O     O_2   0.335179 0.790215 0.402696 -0.597512

loop_
_geom_bond_atom_site_label_1
_geom_bond_atom_site_label_2
_ccdc_geom_bond_type
C40   C47   A    
C38   C40   A    
C54   O13   S    
C56   H8    S    
C22   C29   A    
C17   O21   A    
C59   H31   S    
C64   H9    S    
C1    O18   A    
C55   H25   S    
C2    C65   A    
C58   H19   S    
C8    C56   A    
C62   O14   D    
C21   N2    A    
C61   H28   S    
C7    H5    S    
C57   H21   S    
H11   O2    S    
C63   O17   S    
C18   H23   S    
C7    C45   A    
H15   O8    S    
C35   C37   A    
C24   C26   A    
C60   H30   S    
C19   H34   S    
C39   C54   S    
C56   C65   A    
C35   H12   S    
C33   C36   A    
Cu2   O22   S    
C49   O24   D    
C3    C55   S    
Cu1   N1    S    
C22   C25   A    
H13   O4    S    
H33   O15   S    
C18   N1    A    
C17   C36   S    
H35   O17   S    
Cu2   O18   S    
C61   H27   S    
C33   H1    S    
C16   C37   S    
C52   O7    D    
C40   C42   A    
C59   C60   S    
C23   C46   A    
C59   H32   S    
C41   C43   A    
Cu1   O19   S    
C42   C44   A    
C16   O22   A    
C58   H18   S    
C53   O10   S    
C23   C47   A    
C57   H22   S    
Cu1   Cu2   S    
C23   H3    S    
C9    C49   S    
C12   O12   A    
C4    C6    A    
C60   H29   S    
C12   O19   A    
Cu2   O12   S    
C5    C7    A    
C61   H26   S    
C6    C8    A    
C25   C26   A    
C15   C66   S    
C32   H39   S    
C51   O5    D    
C60   C61   S    
C50   O4    S    
C64   C66   A    
C6    C63   S    
Cu2   O21   S    
C2    C4    A    
C55   H24   S    
H16   O10   S    
C8    H6    S    
C34   C44   A    
Cu2   N2    S    
C19   C28   A    
C9    C11   A    
C49   O2    S    
Cu1   O1    S    
C54   O11   D    
C20   C22   A    
C55   C57   S    
C17   O23   A    
C31   H38   S    
C3    C66   A    
C34   C48   A    
C42   C43   A    
C10   C50   S    
C34   H4    S    
C16   O20   A    
C29   C51   S    
C19   N2    A    
C30   C52   S    
C65   H10   S    
Cu1   O23   S    
C27   C32   A    
C33   C44   A    
C28   C31   A    
C18   C27   A    
C48   H2    S    
C3    C5    A    
C10   C13   A    
C58   H20   S    
C62   O15   S    
C11   C12   S    
C53   O9    D    
C20   H36   S    
C25   C27   A    
C45   C64   A    
C26   C28   A    
C51   O6    S    
C45   H7    S    
C50   O3    D    
C13   C15   A    
C9    C15   A    
H14   O6    S    
C37   C39   A    
C1    O1    A    
C30   C32   A    
C57   C58   S    
C38   C53   S    
C4    C59   S    
C36   C38   A    
C11   C14   A    
C41   C48   A    
C5    C62   S    
H17   O13   S    
C2    C14   S    
C43   C46   A    
C24   C30   A    
C63   O16   D    
C20   N1    A    
Cu1   O20   S    
C1    C13   S    
C39   C41   A    
C29   C31   A    
C47   H40   S    
C21   C24   A    
C35   C46   A    
C21   H37   S    
C10   C14   A    
C52   O8    S    
