data_mof_unit_57675.cif
_audit_creation_date              2012-12-10T18:06:46-0500
_audit_creation_method            fapswitch 2.2
_symmetry_space_group_name_H-M    P1
_symmetry_Int_Tables_number       1
_space_group_crystal_system       triclinic
_cell_length_a                    12.612403
_cell_length_b                    13.145468
_cell_length_c                    15.455685
_cell_angle_alpha                 83.54764
_cell_angle_beta                  98.676218
_cell_angle_gamma                 96.750272
_cell_volume                      2503.88767195

loop_
_atom_site_label
_atom_site_type_symbol
_atom_type_description
_atom_site_fract_x
_atom_site_fract_y
_atom_site_fract_z
_atom_type_partial_charge
C1    C     C_R   0.443482 0.308296 0.510703 0.894610
C2    C     C_R   0.647342 0.404043 0.938271 0.180467
C3    C     C_R   0.540119 0.422915 0.903329 0.087379
C4    C     C_R   0.434608 0.509728 0.336222 0.851071
C5    C     C_R   0.725832 0.407721 0.882308 -0.207195
C6    C     C_R   0.699995 0.434865 0.792437 -0.200065
C7    C     C_R   0.516916 0.452279 0.813557 -0.241359
C8    C     C_R   0.617644 0.939272 0.357335 -0.205545
C9    C     C_R   0.581634 0.800513 0.468173 -0.046231
C10   C     C_R   0.355351 0.161355 0.598226 0.508060
C11   C     C_R   0.350463 0.056385 0.627208 -0.256660
C12   C     C_R   0.424410 0.445671 0.105372 0.082936
C13   C     C_R   0.400721 0.990098 0.586640 -0.261430
C14   C     C_R   0.455737 0.026363 0.513995 0.096628
C15   C     C_R   0.450835 0.129495 0.478775 -0.003984
C16   C     C_R   0.555820 0.691421 0.488794 0.848963
C17   C     C_R   0.516299 0.964128 0.475430 0.105902
C18   C     C_R   0.559522 0.001654 0.396722 0.161127
C19   C     C_R   0.541339 0.099564 0.357010 -0.232394
C20   C     C_R   0.487283 0.162720 0.397361 -0.131758
C21   C     C_R   0.534651 0.865097 0.512594 -0.252853
C22   C     C_R   0.627279 0.837968 0.392343 -0.191989
C23   C     C_R   0.314199 0.452100 0.072072 0.179669
C24   C     C_R   0.411241 0.198199 0.526419 -0.228763
C25   C     C_R   0.138784 0.636391 0.627205 -0.315185
C26   C     C_R   0.757923 0.383281 0.392852 0.628583
C27   C     C_R   0.854535 0.360167 0.369692 -0.372297
C28   C     C_R   0.563527 0.484232 0.664060 0.860703
C29   C     C_R   0.951401 0.404876 0.410323 -0.254350
C30   C     C_R   0.952960 0.473597 0.474592 0.022351
C31   C     C_R   0.853419 0.494675 0.496280 0.140553
C32   C     C_R   0.049056 0.522001 0.517930 0.009572
C33   C     C_R   0.044253 0.589472 0.582713 0.189245
C34   C     C_R   0.496039 0.419693 0.051185 0.071311
C35   C     C_R   0.945269 0.609814 0.602015 -0.287452
C36   C     C_R   0.851114 0.563573 0.558701 -0.194003
C37   C     C_R   0.150686 0.506205 0.499666 -0.057573
C38   C     C_R   0.236860 0.615781 0.607181 0.014887
C39   C     C_R   0.391522 0.497097 0.244332 -0.063015
C40   C     C_R   0.595574 0.458905 0.758155 -0.051801
C41   C     C_R   0.243121 0.476884 0.126365 -0.208539
C42   C     C_R   0.281465 0.498323 0.212595 -0.199913
C43   C     C_R   0.461767 0.472832 0.190022 -0.252021
C44   C     C_3   0.208363 0.207175 0.654915 0.100664
C45   C     C_R   0.461402 0.420772 0.959965 0.070357
C46   C     C_3   0.134265 0.213109 0.566156 -0.387589
C47   C     C_3   0.015970 0.206346 0.579116 -0.928189
C48   C     C_R   0.350061 0.422532 0.928617 -0.232588
C49   C     C_R   0.277300 0.435867 0.984620 -0.243419
C50   C     C_R   0.601567 0.394708 0.084798 -0.239301
C51   C     C_R   0.675363 0.384930 0.028789 -0.242088
H1    H     H_    0.192782 0.437963 0.958450 0.143250
H2    H     H_    0.311368 0.650498 0.641097 0.127261
H3    H     H_    0.438354 0.474544 0.786146 0.162484
H4    H     H_    0.940519 0.662049 0.650509 0.152255
H5    H     H_    0.136772 0.687875 0.676876 0.142541
H6    H     H_    0.163148 0.458447 0.450772 0.114528
H7    H     H_    0.023061 0.383619 0.389968 0.156765
H8    H     H_    0.854884 0.308042 0.320230 0.146806
H9    H     H_    0.777585 0.583658 0.575064 0.213043
H10   H     H_    0.761665 0.437996 0.750168 0.162263
H11   H     H_    0.756110 0.367499 0.056602 0.142277
H12   H     H_    0.807573 0.391851 0.908304 0.133380
H13   H     H_    0.158287 0.480230 0.101990 0.134112
H14   H     H_    0.225312 0.515422 0.254201 0.158252
H15   H     H_    0.546840 0.478278 0.213954 0.182396
H16   H     H_    0.316916 0.411708 0.861297 0.151994
H17   H     H_    0.628433 0.380788 0.154335 0.151557
H18   H     H_    0.187512 0.265389 0.694702 0.170213
H19   H     H_    0.192640 0.131554 0.693063 0.115758
H20   H     H_    0.155745 0.286577 0.526993 0.235802
H21   H     H_    0.145106 0.148714 0.528558 0.209721
H22   H     H_    0.993537 0.134537 0.620356 0.260958
H23   H     H_    0.663178 0.787287 0.357046 0.155009
H24   H     H_    0.964275 0.205508 0.514324 0.276630
H25   H     H_    0.000981 0.273841 0.611148 0.266894
H26   H     H_    0.672497 0.298795 0.307151 0.289784
H27   H     H_    0.569656 0.127607 0.295019 0.139617
H28   H     H_    0.650524 0.967086 0.297171 0.137211
H29   H     H_    0.507356 0.832965 0.573643 0.132908
H30   H     H_    0.393738 0.910747 0.613445 0.151392
H31   H     H_    0.313210 0.025982 0.684593 0.144407
H32   H     H_    0.473438 0.237947 0.364138 0.181546
N1    N     N_R   0.239390 0.551900 0.544730 -0.099566
N2    N     N_R   0.759950 0.448600 0.455730 -0.141779
O1    O     O_R   0.374950 0.371210 0.521360 -0.581816
O2    O     O_3   0.660086 0.342216 0.352381 -0.764230
O3    O     O_R   0.542050 0.338030 0.492790 -0.561925
O4    O     O_R   0.368720 0.526070 0.390200 -0.625410
O5    O     O_R   0.535820 0.492890 0.361630 -0.570459
O6    O     O_R   0.457950 0.661970 0.507210 -0.607055
O7    O     O_R   0.625050 0.628790 0.478640 -0.639820
O8    O     O_R   0.464180 0.507110 0.638370 -0.612188
O9    O     O_R   0.631280 0.473930 0.609800 -0.641947
O10   O     O_3   0.318921 0.231063 0.645494 -0.634633
Zn1   Zn    Zn3+2 0.388420 0.522150 0.519080 0.952257
Zn2   Zn    Zn3+2 0.611580 0.477850 0.480920 0.970069

loop_
_geom_bond_atom_site_label_1
_geom_bond_atom_site_label_2
_ccdc_geom_bond_type
C31   N2    A    
C27   C29   A    
C41   C42   A    
C19   C20   A    
C25   H5    S    
C12   C23   A    
C26   C27   A    
C6    H10   S    
C9    C16   S    
C47   H25   S    
C12   C43   A    
C3    C7    A    
C43   H15   S    
C30   C31   A    
C9    C22   A    
C23   C49   A    
C28   C40   S    
C13   H30   S    
C5    H12   S    
C28   O9    A    
C18   C19   A    
N1    Zn1   S    
O6    Zn1   S    
C35   C36   A    
C26   O2    S    
C8    H28   S    
C8    C22   A    
C7    C40   A    
C37   N1    A    
C44   H19   S    
O5    Zn2   S    
C46   H21   S    
O3    Zn2   S    
C1    O3    A    
C13   C14   A    
C14   C17   A    
C51   H11   S    
C44   C46   S    
O7    Zn2   S    
C50   C51   A    
C39   C42   A    
C4    O5    A    
C11   H31   S    
C15   C20   A    
C34   C50   A    
C35   H4    S    
C7    H3    S    
C47   H22   S    
C10   C11   A    
C39   C43   A    
O9    Zn2   S    
C10   C24   A    
C3    C45   A    
C8    C18   A    
C28   O8    A    
C19   H27   S    
C29   C30   A    
C25   C38   A    
C42   H14   S    
C4    C39   S    
C49   H1    S    
C17   C18   A    
C44   H18   S    
C34   C45   A    
C32   C37   A    
C46   H20   S    
O1    Zn1   S    
C1    C24   S    
C48   C49   A    
C16   O7    A    
O8    Zn1   S    
C6    C40   A    
C2    C5    A    
C22   H23   S    
C12   C34   A    
C4    O4    A    
C45   C48   A    
C1    O1    A    
C46   C47   S    
C15   C24   A    
C38   N1    A    
C14   C15   A    
C36   H9    S    
C23   C41   A    
C32   C33   A    
O4    Zn1   S    
C2    C3    A    
C47   H24   S    
C44   O10   S    
C27   H8    S    
C30   C32   A    
C11   C13   A    
C9    C21   A    
C5    C6    A    
C38   H2    S    
C10   O10   S    
C26   N2    A    
C21   H29   S    
C33   C35   A    
C48   H16   S    
C17   C21   A    
N2    Zn2   S    
C2    C51   A    
C29   H7    S    
H26   O2    S    
C16   O6    A    
C20   H32   S    
C31   C36   A    
C41   H13   S    
C50   H17   S    
C37   H6    S    
C25   C33   A    
