data_mof_unit_23882.cif
_audit_creation_date              2012-12-10T16:41:54-0500
_audit_creation_method            fapswitch 2.2
_symmetry_space_group_name_H-M    P1
_symmetry_Int_Tables_number       1
_space_group_crystal_system       triclinic
_cell_length_a                    10.876666
_cell_length_b                    8.695854
_cell_length_c                    7.49263
_cell_angle_alpha                 102.89905
_cell_angle_beta                  94.850727
_cell_angle_gamma                 92.964141
_cell_volume                      686.489635358

loop_
_atom_site_label
_atom_site_type_symbol
_atom_type_description
_atom_site_fract_x
_atom_site_fract_y
_atom_site_fract_z
_atom_type_partial_charge
C1    C     C_R   0.486959 0.200032 0.453695 0.864706
C2    C     C_2   0.502125 0.967494 0.567413 -0.437306
C3    C     C_R   0.265736 0.504999 0.501903 0.833597
C4    C     C_R   0.499522 0.799661 0.545980 0.861758
C5    C     C_R   0.733822 0.490757 0.497451 0.765095
C6    C     C_2   0.924749 0.498343 0.359624 -0.176628
C7    C     C_2   0.861847 0.453618 0.489112 -0.141157
C8    C     C_2   0.057573 0.487275 0.352709 -0.104707
C9    C     C_2   0.134525 0.519881 0.507433 -0.225227
C10   C     C_2   0.458330 0.032887 0.430884 -0.191101
Cu1   Cu    Cu3+1 0.513740 0.517380 0.684380 0.971745
Cu2   Cu    Cu3+1 0.486260 0.482620 0.315620 0.994240
H1    H     H_    0.878255 0.553800 0.258828 0.153056
H2    H     H_    0.092020 0.460129 0.218224 0.207997
H3    H     H_    0.100409 0.557517 0.641338 0.168189
H4    H     H_    0.552764 0.038424 0.692658 0.183674
H5    H     H_    0.603074 0.614533 0.049384 0.225796
N1    N     N_2   0.465540 0.456420 0.038510 -0.200515
N2    N     N_2   0.534460 0.543580 0.961490 -0.245176
O1    O     O_R   0.508930 0.286130 0.619780 -0.636950
O2    O     O_R   0.485720 0.256780 0.308360 -0.547328
O3    O     O_R   0.333540 0.514670 0.655670 -0.581527
O4    O     O_R   0.310330 0.485320 0.344250 -0.569634
O5    O     O_R   0.514280 0.743220 0.691640 -0.554362
O6    O     O_R   0.491070 0.713870 0.380220 -0.601759
O7    O     O_R   0.689670 0.514680 0.655750 -0.598763
O8    O     O_R   0.666460 0.485330 0.344330 -0.588595
C11   C     C_2   0.909907 0.352437 0.612212 0.375678
H6    H     H_    0.871776 0.356372 0.742287 0.083815
O9    O     O_2   0.986573 0.257492 0.565334 -0.514634
C12   C     C_2   0.371346 0.946099 0.270132 0.432445
H7    H     H_    0.315799 0.841109 0.278504 0.097911
O10   O     O_2   0.358530 0.992912 0.128150 -0.534861
C13   C     C_2   0.363593 0.361785 0.932934 0.789738
H8    H     H_    0.376727 0.250292 0.841048 0.022253
O11   O     O_2   0.258580 0.399391 0.955865 -0.581462

loop_
_geom_bond_atom_site_label_1
_geom_bond_atom_site_label_2
_ccdc_geom_bond_type
C2    C4    S    
Cu1   Cu2   S    
C12   O10   D    
C1    O2    A    
C6    C7    D    
C3    C9    S    
C2    H4    S    
Cu1   O3    S    
C3    O4    A    
C12   H7    S    
Cu2   O6    S    
C11   O9    D    
C4    O6    A    
C9    H3    S    
C6    H1    S    
N1    C13   S    
Cu2   O4    S    
Cu1   N2    S    
C10   C12   S    
C11   H6    S    
H5    N2    S    
N1    N2    D    
C13   O11   D    
C4    O5    A    
C8    H2    S    
Cu1   O1    S    
C1    C10   S    
Cu2   O8    S    
C5    O7    A    
C2    C10   D    
Cu1   O5    S    
C13   H8    S    
Cu2   N1    S    
C5    C7    S    
C3    O3    A    
C6    C8    S    
Cu1   O7    S    
C5    O8    A    
Cu2   O2    S    
C7    C11   S    
C8    C9    D    
C1    O1    A    
