data_mof_unit_7645.cif
_audit_creation_date              2012-12-10T19:09:04-0500
_audit_creation_method            fapswitch 2.2
_symmetry_space_group_name_H-M    P1
_symmetry_Int_Tables_number       1
_space_group_crystal_system       triclinic
_cell_length_a                    17.689323
_cell_length_b                    10.927478
_cell_length_c                    9.624698
_cell_angle_alpha                 91.387341
_cell_angle_beta                  89.814864
_cell_angle_gamma                 94.393732
_cell_volume                      1854.43798121

loop_
_atom_site_label
_atom_site_type_symbol
_atom_type_description
_atom_site_fract_x
_atom_site_fract_y
_atom_site_fract_z
_atom_type_partial_charge
C1    C     C_R   0.499217 0.262823 0.498695 0.855611
C2    C     C_R   0.884885 0.486814 0.490918 0.084336
C3    C     C_1   0.965788 0.503988 0.488403 0.060901
C4    C     C_1   0.033745 0.518532 0.488692 0.099191
C5    C     C_R   0.152368 0.516938 0.620451 -0.005745
C6    C     C_R   0.231240 0.513417 0.621359 -0.230368
C7    C     C_R   0.273445 0.520847 0.498752 -0.090254
C8    C     C_R   0.237001 0.547318 0.375123 -0.153672
C9    C     C_R   0.158168 0.554771 0.369894 -0.032381
C10   C     C_R   0.115219 0.533296 0.493035 -0.026662
C11   C     C_R   0.492858 0.067549 0.622729 0.084831
C12   C     C_R   0.355889 0.505954 0.500067 0.816645
C13   C     C_R   0.496025 0.129724 0.497583 -0.054179
C14   C     C_R   0.496376 0.060658 0.372640 -0.162730
C15   C     C_R   0.496862 0.932930 0.374556 -0.180571
C16   C     C_R   0.501050 0.871862 0.501363 -0.026090
C17   C     C_R   0.498949 0.942415 0.624607 0.039846
C18   C     C_3   0.547831 0.954563 0.753073 -0.346140
C19   C     C_3   0.535040 0.091635 0.756822 -0.262894
C20   C     C_R   0.560909 0.548787 0.074458 0.263595
C21   C     C_R   0.445026 0.433185 0.073678 -0.005824
C22   C     C_R   0.443819 0.434901 0.924900 0.012375
C23   C     C_R   0.501929 0.737955 0.501205 0.819765
C24   C     C_R   0.562739 0.544191 0.928189 0.187329
C25   C     C_3   0.602634 0.669314 0.925619 -0.261345
C26   C     C_3   0.596044 0.676299 0.083813 -0.490862
C27   C     C_R   0.643625 0.489280 0.498811 0.862855
C28   C     C_R   0.846453 0.493365 0.617151 -0.121405
C29   C     C_R   0.767599 0.483465 0.619164 -0.116011
C30   C     C_R   0.725978 0.471146 0.494980 -0.086054
C31   C     C_R   0.765207 0.446498 0.369025 -0.039319
C32   C     C_R   0.844792 0.459906 0.367985 -0.162292
Cu1   Cu    Cu3+1 0.500000 0.499980 0.640670 1.005386
Cu2   Cu    Cu3+1 0.500000 0.500020 0.359330 1.002523
H1    H     H_    0.496764 0.883031 0.276122 0.159330
H2    H     H_    0.520217 0.907084 0.842606 0.134077
H3    H     H_    0.496024 0.115166 0.842610 0.191067
H4    H     H_    0.739241 0.487153 0.718208 0.172083
H5    H     H_    0.555185 0.742469 0.119962 0.189955
H6    H     H_    0.259937 0.506624 0.718625 0.220482
H7    H     H_    0.499558 0.104793 0.273452 0.216976
N1    N     N_R   0.500470 0.500930 0.147930 -0.240308
N2    N     N_R   0.500480 0.500890 0.852020 -0.236083
O1    O     O_R   0.500000 0.319640 0.618810 -0.554571
O2    O     O_R   0.500010 0.319680 0.381230 -0.558691
O3    O     O_R   0.391250 0.499990 0.618840 -0.585937
O4    O     O_R   0.391260 0.500020 0.381250 -0.576641
O5    O     O_R   0.499990 0.680320 0.618770 -0.586751
O6    O     O_R   0.500000 0.680360 0.381190 -0.596252
O7    O     O_R   0.608740 0.499980 0.618750 -0.572220
O8    O     O_R   0.608750 0.500010 0.381160 -0.568210
H8    H     H_    0.877378 0.508018 0.713889 0.165960
C33   C     C_2   0.629922 0.929416 0.730266 0.967021
O9    O     O_2   0.674074 0.943729 0.827847 -0.564473
O10   O     O_R   0.656498 0.898169 0.597974 -0.719443
H9    H     H_    0.713352 0.891750 0.595637 0.366332
C34   C     C_2   0.604687 0.181931 0.751905 0.941763
O11   O     O_2   0.647760 0.183294 0.652059 -0.580912
O12   O     O_R   0.618600 0.265159 0.863001 -0.762294
H10   H     H_    0.666210 0.321310 0.849362 0.339228
C35   C     C_2   0.389315 0.348869 0.145348 0.934238
O13   O     O_2   0.325825 0.380056 0.170913 -0.556104
O14   O     O_R   0.406264 0.228405 0.167202 -0.790410
H11   H     H_    0.362792 0.177662 0.211922 0.328366
C36   C     C_2   0.380398 0.361389 0.854464 0.868054
O15   O     O_2   0.392381 0.273566 0.779519 -0.594920
O16   O     O_R   0.305866 0.381950 0.890552 -0.730648
H12   H     H_    0.267595 0.319109 0.846183 0.358060
C37   C     C_2   0.683055 0.666497 0.873965 0.929028
O17   O     O_2   0.698515 0.698509 0.756067 -0.600718
O18   O     O_R   0.739898 0.627356 0.959199 -0.727115
H13   H     H_    0.791397 0.631604 0.912280 0.340020
H14   H     H_    0.568485 0.732987 0.871031 0.145413
H15   H     H_    0.650227 0.682650 0.142500 0.244398
C38   C     C_2   0.726268 0.395541 0.241410 0.886308
O19   O     O_2   0.751827 0.422007 0.126941 -0.566309
O20   O     O_R   0.663237 0.310770 0.251979 -0.727851
H16   H     H_    0.642132 0.281904 0.157980 0.357027
H17   H     H_    0.875763 0.445962 0.272165 0.185530
C39   C     C_2   0.110476 0.501970 0.754209 0.839512
O21   O     O_2   0.135001 0.439548 0.845125 -0.552770
O22   O     O_R   0.043883 0.560581 0.777762 -0.771077
H18   H     H_    0.021024 0.543030 0.872626 0.347467
H19   H     H_    0.270555 0.563840 0.282429 0.230390
C40   C     C_2   0.123823 0.586285 0.234726 0.878732
O23   O     O_2   0.056033 0.599438 0.225258 -0.595347
O24   O     O_R   0.170061 0.604272 0.117620 -0.718819
H20   H     H_    0.141155 0.630581 0.034067 0.357665

loop_
_geom_bond_atom_site_label_1
_geom_bond_atom_site_label_2
_ccdc_geom_bond_type
O24   H20   S    
C11   C13   A    
Cu2   N1    S    
O10   H9    S    
C7    C8    A    
C33   O9    D    
C19   C34   S    
C11   C19   S    
Cu2   O8    S    
C28   C29   A    
C5    C6    A    
C26   H5    S    
C23   O6    A    
C15   C16   A    
C2    C32   A    
C18   C19   S    
C37   O18   S    
C19   H3    S    
C18   C33   S    
C9    C40   S    
C20   C24   A    
C8    C9    A    
C36   O16   S    
C29   H4    S    
C9    C10   A    
C21   C35   S    
C27   O7    A    
O20   H16   S    
C40   O24   S    
O12   H10   S    
C13   C14   A    
C27   C30   S    
Cu1   O3    S    
C35   O13   D    
C12   O4    A    
C15   H1    S    
C27   O8    A    
Cu1   Cu2   S    
C33   O10   S    
C7    C12   S    
O16   H12   S    
Cu1   N2    S    
C24   C25   S    
C39   O22   S    
C16   C17   A    
Cu1   O7    S    
C40   O23   D    
O14   H11   S    
C38   O19   D    
C22   C36   S    
C29   C30   A    
C1    O1    A    
C31   C38   S    
C22   N2    A    
C35   O14   S    
C17   C18   S    
Cu2   O2    S    
C5    C39   S    
C38   O20   S    
C14   H7    S    
C12   O3    A    
C36   O15   D    
C16   C23   S    
C6    H6    S    
C1    C13   S    
C4    C10   S    
C3    C4    T    
Cu1   O5    S    
C11   C17   A    
Cu2   O6    S    
C23   O5    A    
C8    H19   S    
Cu1   O1    S    
C31   C32   A    
C39   O21   D    
C20   N1    A    
C6    C7    A    
C2    C3    S    
C25   C26   S    
O18   H13   S    
C32   H17   S    
C28   H8    S    
C1    O2    A    
C34   O11   D    
C30   C31   A    
C20   C26   S    
C26   H15   S    
C25   H14   S    
C37   O17   D    
C34   O12   S    
C21   N1    A    
C5    C10   A    
C25   C37   S    
O22   H18   S    
C24   N2    A    
C14   C15   A    
C2    C28   A    
Cu2   O4    S    
C21   C22   A    
C18   H2    S    
