data_mof_unit_44750.cif
_audit_creation_date              2012-12-10T19:05:20-0500
_audit_creation_method            fapswitch 2.2
_symmetry_space_group_name_H-M    P1
_symmetry_Int_Tables_number       1
_space_group_crystal_system       triclinic
_cell_length_a                    9.567852
_cell_length_b                    10.860853
_cell_length_c                    17.245139
_cell_angle_alpha                 90.678607
_cell_angle_beta                  86.88504
_cell_angle_gamma                 89.248974
_cell_volume                      1789.08630866

loop_
_atom_site_label
_atom_site_type_symbol
_atom_type_description
_atom_site_fract_x
_atom_site_fract_y
_atom_site_fract_z
_atom_type_partial_charge
C1    C     C_R   0.499496 0.737615 0.499021 0.909644
C2    C     C_R   0.363206 0.431423 0.775696 0.303729
C3    C     C_R   0.607948 0.471649 0.137033 0.636936
C4    C     C_R   0.614887 0.459576 0.217023 -0.243362
C5    C     C_R   0.423756 0.607719 0.237143 0.611326
C6    C     C_R   0.412626 0.616945 0.157121 0.337896
C7    C     C_R   0.504554 0.547997 0.106731 -0.204763
C8    C     C_2   0.476124 0.449784 0.981020 0.607290
C9    C     C_2   0.490703 0.554878 0.022575 0.470527
C10   C     C_R   0.520488 0.525012 0.267076 -0.304175
C11   C     C_R   0.383363 0.939479 0.528697 -0.103516
C12   C     C_R   0.482781 0.498566 0.650256 0.882762
C13   C     C_R   0.500645 0.871205 0.500354 -0.276249
C14   C     C_R   0.624882 0.933917 0.479025 0.511825
C15   C     C_R   0.627475 0.062074 0.481157 0.553316
C16   C     C_R   0.504616 0.129577 0.502442 -0.313810
C17   C     C_R   0.385839 0.066573 0.528671 -0.138415
C18   C     C_3   0.239387 0.079501 0.504881 0.394481
C19   C     C_3   0.234759 0.939357 0.504882 0.900440
C20   C     C_R   0.932007 0.417274 0.454989 -0.061629
C21   C     C_R   0.919789 0.572710 0.549911 0.598127
C22   C     C_R   0.068389 0.572467 0.550096 0.601426
C23   C     C_R   0.501187 0.262588 0.499442 0.882784
C24   C     C_R   0.079374 0.417021 0.455160 -0.099804
C25   C     C_3   0.093777 0.401761 0.368889 0.973551
C26   C     C_3   0.935819 0.402946 0.368581 0.988147
C27   C     C_R   0.516897 0.505258 0.350428 0.932832
C28   C     C_R   0.477459 0.488105 0.735468 -0.363781
C29   C     C_R   0.592122 0.528484 0.776845 0.325317
C30   C     C_R   0.598481 0.502664 0.855589 0.336703
C31   C     C_R   0.482961 0.450182 0.895848 -0.271330
C32   C     C_R   0.369104 0.407857 0.855621 0.323290
Cu1   Cu    Cu3+1 0.359330 0.500020 0.500000 1.144714
Cu2   Cu    Cu3+1 0.640670 0.499980 0.500000 1.127699
H1    H     H_    0.230373 0.121174 0.446812 0.160229
H2    H     H_    0.691149 0.396968 0.239743 0.264795
N1    N     N_R   0.852130 0.499070 0.499500 -0.251655
N2    N     N_R   0.148040 0.499110 0.499500 -0.236979
O1    O     O_R   0.381190 0.680360 0.500000 -0.508260
O2    O     O_R   0.618770 0.680320 0.499990 -0.513705
O3    O     O_R   0.367430 0.500040 0.613600 -0.520740
O4    O     O_R   0.605020 0.500000 0.613590 -0.530013
O5    O     O_R   0.381230 0.319680 0.500010 -0.563086
O6    O     O_R   0.618810 0.319640 0.500000 -0.534661
O7    O     O_R   0.394980 0.500000 0.386410 -0.502943
O8    O     O_R   0.632570 0.499960 0.386400 -0.531206
O9    O     O_3   0.700060 0.593382 0.740745 -0.501541
C33   C     C_3   0.666095 0.720086 0.747312 -0.113421
H3    H     H_    0.755144 0.773470 0.722107 0.210949
H4    H     H_    0.648891 0.750201 0.809094 0.160811
H5    H     H_    0.572587 0.742986 0.714300 0.110941
O10   O     O_3   0.314083 0.695792 0.128199 -0.530867
C34   C     C_3   0.183991 0.635882 0.130324 -0.121315
H6    H     H_    0.190604 0.546928 0.097396 0.136853
H7    H     H_    0.107159 0.695743 0.102290 0.186747
H8    H     H_    0.143500 0.620708 0.191068 0.258501
F1    F     F_    0.740988 0.872178 0.450334 -0.613844
F2    F     F_    0.747115 0.119080 0.456670 -0.570680
F3    F     F_    0.155115 0.135360 0.563365 -0.622987
O11   O     O_3   0.143198 0.891625 0.563772 -0.561289
C35   C     C_3   0.004900 0.893585 0.539301 0.073814
H9    H     H_    0.991765 0.821247 0.494302 0.218697
H10   H     H_    0.973673 0.985030 0.516979 0.197223
H11   H     H_    0.932608 0.873720 0.589888 0.182749
F4    F     F_    0.222722 0.886180 0.431859 -0.623084
F5    F     F_    0.844586 0.649681 0.598665 -0.639322
F6    F     F_    0.131799 0.647787 0.599965 -0.629994
F7    F     F_    0.151754 0.501845 0.331019 -0.609158
F8    F     F_    0.155553 0.290516 0.345592 -0.623666
F9    F     F_    0.884822 0.504499 0.330804 -0.632096
F10   F     F_    0.880200 0.292726 0.344673 -0.574893
F11   F     F_    0.340321 0.680065 0.285565 -0.543053
O12   O     O_3   0.504182 0.669875 0.988268 -0.537773
C36   C     C_3   0.380569 0.704678 0.952008 -0.229191
H12   H     H_    0.399760 0.700485 0.887995 0.128618
H13   H     H_    0.287178 0.648357 0.968407 0.134972
H14   H     H_    0.354351 0.801702 0.968265 0.221167
O13   O     O_3   0.257744 0.353491 0.895974 -0.563669
C37   C     C_3   0.269002 0.224833 0.884807 -0.131136
H15   H     H_    0.184758 0.180823 0.921005 0.187684
H16   H     H_    0.370880 0.188101 0.903518 0.185409
H17   H     H_    0.254568 0.198207 0.823328 0.176024
F12   F     F_    0.701107 0.408068 0.089169 -0.615720
O14   O     O_3   0.248972 0.393282 0.736245 -0.540806
C38   C     C_3   0.138023 0.478633 0.751345 -0.105429
H18   H     H_    0.052241 0.456036 0.713039 0.193669
H19   H     H_    0.170695 0.574732 0.738845 0.185779
H20   H     H_    0.095163 0.472897 0.812280 0.153369
F13   F     F_    0.452195 0.341236 0.017853 -0.631690
O15   O     O_3   0.713991 0.539100 0.894448 -0.530046
C39   C     C_3   0.807615 0.438025 0.896196 -0.153119
H21   H     H_    0.760139 0.359995 0.929040 0.199549
H22   H     H_    0.901364 0.466990 0.926474 0.199852
H23   H     H_    0.843089 0.407105 0.836466 0.140710

loop_
_geom_bond_atom_site_label_1
_geom_bond_atom_site_label_2
_ccdc_geom_bond_type
C10   C27   S    
C4    H2    S    
C21   F5    S    
Cu2   N1    S    
Cu1   O7    S    
O12   C36   S    
C2    O14   S    
Cu2   O4    S    
C30   O15   S    
C34   H6    S    
C11   C19   S    
Cu1   O1    S    
C36   H13   S    
C29   O9    S    
Cu2   O2    S    
C28   C29   A    
C5    F11   S    
C3    C7    A    
C30   C31   A    
C38   H20   S    
C15   C16   A    
C22   N2    A    
C23   O5    A    
C2    C32   A    
C18   C19   S    
C35   H10   S    
C12   O4    A    
C1    O2    A    
C33   H5    S    
C31   C32   A    
C8    C9    D    
C36   H14   S    
C1    C13   S    
C24   N2    A    
Cu2   O8    S    
C18   H1    S    
C27   O7    A    
C33   H4    S    
C13   C14   A    
C26   F10   S    
C25   F7    S    
C9    O12   S    
C17   C18   S    
C34   H7    S    
C36   H12   S    
C38   H19   S    
Cu1   O5    S    
C20   C24   A    
Cu2   O6    S    
O14   C38   S    
C39   H21   S    
C37   H16   S    
O13   C37   S    
C16   C17   A    
C25   C26   S    
C38   H18   S    
C23   O6    A    
O11   C35   S    
C35   H11   S    
C29   C30   A    
C39   H22   S    
O9    C33   S    
Cu1   Cu2   S    
C24   C25   S    
C27   O8    A    
C33   H3    S    
C12   C28   S    
C16   C23   S    
C3    F12   S    
C26   F9    S    
C15   F2    S    
C25   F8    S    
C4    C10   A    
C3    C4    A    
O10   C34   S    
C12   O3    A    
C34   H8    S    
C7    C9    S    
C14   F1    S    
C11   C17   A    
C8    C31   S    
C37   H17   S    
C6    C7    A    
C19   O11   S    
Cu1   N2    S    
Cu1   O3    S    
C5    C10   A    
C39   H23   S    
C20   N1    A    
C11   C13   A    
O15   C39   S    
C5    C6    A    
C20   C26   S    
C19   F4    S    
C35   H9    S    
C22   F6    S    
C1    O1    A    
C32   O13   S    
C37   H15   S    
C18   F3    S    
C21   N1    A    
C14   C15   A    
C2    C28   A    
C8    F13   S    
C6    O10   S    
C21   C22   A    
