data_mof_unit_39012.cif
_audit_creation_date              2012-12-10T19:32:14-0500
_audit_creation_method            fapswitch 2.2
_symmetry_space_group_name_H-M    P1
_symmetry_Int_Tables_number       1
_space_group_crystal_system       triclinic
_cell_length_a                    23.455543
_cell_length_b                    15.743399
_cell_length_c                    14.933752
_cell_angle_alpha                 90.233518
_cell_angle_beta                  89.861055
_cell_angle_gamma                 89.935078
_cell_volume                      5514.52056742

loop_
_atom_site_label
_atom_site_type_symbol
_atom_type_description
_atom_site_fract_x
_atom_site_fract_y
_atom_site_fract_z
_atom_type_partial_charge
C1    C     C_R   0.500104 0.337560 0.499822 0.905946
C2    C     C_R   0.499894 0.662439 0.500173 0.905770
C3    C     C_R   0.238027 0.497450 0.417387 0.175532
C4    C     C_R   0.762432 0.499156 0.417878 0.186302
C5    C     C_R   0.297400 0.498306 0.418685 -0.197495
C6    C     C_R   0.703029 0.498717 0.418784 -0.223737
C7    C     C_R   0.326897 0.499454 0.500003 -0.116808
C8    C     C_R   0.673108 0.500507 0.499907 -0.116644
C9    C     C_R   0.296914 0.500042 0.581075 -0.218465
C10   C     C_R   0.702673 0.502718 0.581143 -0.196872
C11   C     C_R   0.237508 0.499960 0.581838 0.184260
C12   C     C_R   0.762056 0.502603 0.582308 0.173723
C13   C     C_R   0.208077 0.498569 0.499484 0.260956
C14   C     C_R   0.791934 0.500855 0.500155 0.261164
C15   C     C_3   0.543417 0.972271 0.549115 0.504861
C16   C     C_3   0.456568 0.027732 0.450638 0.458153
C17   C     C_3   0.549933 0.027848 0.464714 -0.291152
C18   C     C_3   0.450075 0.972162 0.535080 -0.292822
C19   C     C_1   0.500361 0.248873 0.499469 -0.113482
C20   C     C_1   0.499639 0.751124 0.500490 -0.112494
C21   C     C_3   0.494404 0.028336 0.584171 0.022926
C22   C     C_3   0.505606 0.971656 0.415578 0.028729
C23   C     C_R   0.389052 0.499886 0.500077 0.901639
C24   C     C_R   0.610950 0.500146 0.499913 0.900826
C25   C     C_3   0.500198 0.083047 0.499828 -0.068663
C26   C     C_3   0.499805 0.916947 0.499959 -0.076046
C27   C     C_1   0.500464 0.173758 0.499427 0.066231
C28   C     C_1   0.499538 0.826239 0.500449 0.067272
C29   C     C_3   0.490703 0.421007 0.969769 0.335769
C30   C     C_3   0.509035 0.579029 0.030222 0.384948
C31   C     C_3   0.541726 0.448221 0.029251 -0.093106
C32   C     C_3   0.458033 0.551847 0.970728 -0.091963
C33   C     C_3   0.449449 0.472303 0.030222 0.398235
C34   C     C_3   0.550291 0.527762 0.969784 0.405468
C35   C     C_3   0.500182 0.499789 0.089843 -0.326778
C36   C     C_3   0.499569 0.500213 0.910177 -0.322701
C37   C     C_1   0.500114 0.499910 0.189906 0.319203
C38   C     C_1   0.499783 0.500076 0.810098 0.316655
C39   C     C_R   0.880850 0.576388 0.498737 0.493496
C40   C     C_R   0.119169 0.422991 0.500109 0.492086
C41   C     C_R   0.880578 0.424382 0.501665 0.490893
C42   C     C_R   0.119430 0.575017 0.498324 0.492986
C43   C     C_R   0.940063 0.422380 0.501355 -0.017671
C44   C     C_R   0.059947 0.577010 0.498384 -0.018393
C45   C     C_R   0.970068 0.499865 0.499819 -0.021877
C46   C     C_R   0.029945 0.499516 0.499538 -0.021958
C47   C     C_R   0.940343 0.577699 0.498567 -0.020542
C48   C     C_R   0.059673 0.421676 0.500415 -0.020621
C49   C     C_R   0.970057 0.345206 0.502343 -0.153480
C50   C     C_R   0.029955 0.654181 0.497260 -0.152017
C51   C     C_R   0.029398 0.344855 0.501783 -0.150183
C52   C     C_R   0.970616 0.654522 0.497271 -0.151478
H1    H     H_    0.947824 0.284955 0.503476 0.197612
H2    H     H_    0.052187 0.714436 0.496327 0.198380
H3    H     H_    0.051410 0.284345 0.502517 0.199479
H4    H     H_    0.948605 0.715029 0.496327 0.198645
H5    H     H_    0.320517 0.498221 0.355747 0.206789
H6    H     H_    0.680233 0.496687 0.355763 0.178083
H7    H     H_    0.319665 0.500510 0.644165 0.179750
H8    H     H_    0.679605 0.504730 0.644100 0.207450
H9    H     H_    0.590605 0.052450 0.436937 0.195079
H10   H     H_    0.409412 0.947567 0.562897 0.198011
N1    N     N_R   0.852623 0.500546 0.500260 -0.361196
N2    N     N_R   0.147390 0.498849 0.499247 -0.361851
N3    N     N_1   0.500020 0.500000 0.268010 -0.083392
N4    N     N_1   0.499980 0.500000 0.731990 -0.083264
O1    O     O_R   0.500000 0.376780 0.574460 -0.597325
O2    O     O_R   0.500000 0.623220 0.425540 -0.597885
O3    O     O_R   0.500010 0.376780 0.425520 -0.603571
O4    O     O_R   0.499990 0.623220 0.574480 -0.602481
O5    O     O_R   0.416150 0.499970 0.574490 -0.628651
O6    O     O_R   0.583850 0.500030 0.425510 -0.629030
O7    O     O_R   0.416160 0.499980 0.425550 -0.602363
O8    O     O_R   0.583840 0.500020 0.574450 -0.602906
O9    O     O_2   0.851243 0.649941 0.497752 -0.544383
O10   O     O_2   0.148782 0.349444 0.501087 -0.541614
O11   O     O_2   0.850707 0.351167 0.502919 -0.556925
O12   O     O_2   0.149295 0.648237 0.497020 -0.552970
Zn1   Zn    Zn3+2 0.499990 0.500000 0.599450 1.042194
Zn2   Zn    Zn3+2 0.500010 0.500000 0.400550 1.041252
C53   C     C_3   0.587160 0.390746 0.071163 -0.342882
C54   C     C_3   0.627681 0.351130 0.002730 -0.725839
H11   H     H_    0.604069 0.322170 0.946357 0.288238
H12   H     H_    0.657674 0.399312 0.976588 0.303455
H13   H     H_    0.653234 0.300777 0.035622 0.225216
H14   H     H_    0.612465 0.428518 0.119859 0.227744
H15   H     H_    0.565285 0.339411 0.108648 0.216207
C55   C     C_3   0.412297 0.608297 0.927994 -0.322497
C56   C     C_3   0.374980 0.654925 0.995945 -0.676147
H16   H     H_    0.351714 0.609604 0.038973 0.296539
H17   H     H_    0.400755 0.698116 0.038067 0.299215
H18   H     H_    0.343027 0.693830 0.959761 0.221339
H19   H     H_    0.433649 0.655785 0.884556 0.231375
H20   H     H_    0.384698 0.568071 0.884896 0.223547
S1    S     S_3+6 0.476100 0.317517 0.925562 0.080040
O13   O     O_2   0.416278 0.315409 0.889963 -0.194816
O14   O     O_2   0.516574 0.297520 0.850159 -0.335481
O15   O     O_3   0.482591 0.244333 0.006646 -0.485401
H21   H     H_    0.522953 0.225940 0.004459 0.353960
S2    S     S_3+6 0.523089 0.682656 0.074221 0.059262
O16   O     O_2   0.482772 0.701269 0.150187 -0.329094
O17   O     O_2   0.583276 0.686248 0.108199 -0.232336
O18   O     O_3   0.514332 0.755031 0.992954 -0.520956
H22   H     H_    0.521311 0.810508 0.022430 0.383607
S3    S     S_3+6 0.615907 0.567168 0.925412 0.063033
O19   O     O_2   0.636511 0.509171 0.851949 -0.342506
O20   O     O_2   0.606484 0.654488 0.887976 -0.209603
O21   O     O_3   0.664788 0.571720 0.007413 -0.533972
H23   H     H_    0.700102 0.591653 0.977716 0.382088
S4    S     S_3+6 0.383696 0.433152 0.074560 0.061382
O22   O     O_2   0.392225 0.344258 0.108234 -0.200518
O23   O     O_2   0.364483 0.488902 0.150821 -0.346645
O24   O     O_3   0.334013 0.433076 0.993643 -0.533008
H24   H     H_    0.298673 0.413380 0.023429 0.382970
C57   C     C_3   0.207956 0.496358 0.327744 -0.422846
C58   C     C_3   0.214842 0.410457 0.281139 -0.731048
H25   H     H_    0.260503 0.396994 0.267159 0.284382
H26   H     H_    0.197055 0.359144 0.323661 0.288715
H27   H     H_    0.191518 0.411043 0.216533 0.245023
H28   H     H_    0.161737 0.509973 0.334514 0.213901
H29   H     H_    0.226000 0.546972 0.284450 0.229095
C59   C     C_3   0.793045 0.496951 0.328490 -0.423949
C60   C     C_3   0.787565 0.581773 0.280100 -0.763984
H30   H     H_    0.742141 0.596361 0.265946 0.269011
H31   H     H_    0.806016 0.633610 0.321496 0.290353
H32   H     H_    0.811035 0.578688 0.215508 0.249731
H33   H     H_    0.839031 0.482156 0.335922 0.216003
H34   H     H_    0.774623 0.445715 0.286117 0.215794
C61   C     C_3   0.206813 0.500696 0.671177 -0.398628
C62   C     C_3   0.211881 0.587188 0.717012 -0.804554
H35   H     H_    0.257224 0.602529 0.730876 0.254196
H36   H     H_    0.193277 0.637453 0.674029 0.291851
H37   H     H_    0.188332 0.586208 0.781586 0.254108
H38   H     H_    0.160901 0.485355 0.664080 0.214502
H39   H     H_    0.225410 0.451079 0.715110 0.227196
C63   C     C_3   0.792223 0.505196 0.671835 -0.397080
C64   C     C_3   0.786314 0.420804 0.720940 -0.779783
H40   H     H_    0.740806 0.406818 0.735267 0.272810
H41   H     H_    0.804713 0.368462 0.679971 0.286824
H42   H     H_    0.809601 0.424132 0.785501 0.250549
H43   H     H_    0.838278 0.519549 0.664501 0.212348
H44   H     H_    0.773682 0.556888 0.713688 0.235702
S5    S     S_3+6 0.602624 0.932532 0.610997 0.033458
O25   O     O_2   0.583597 0.860732 0.669907 -0.284042
O26   O     O_2   0.647288 0.900863 0.546707 -0.270418
O27   O     O_3   0.629884 0.011075 0.674233 -0.554556
H45   H     H_    0.661401 0.984286 0.707967 0.397514
S6    S     S_3+6 0.397121 0.068045 0.389632 0.055479
O28   O     O_2   0.354010 0.103215 0.454490 -0.231051
O29   O     O_2   0.416094 0.137953 0.328156 -0.290035
O30   O     O_3   0.366896 0.989349 0.329949 -0.513640
H46   H     H_    0.387081 0.989206 0.271631 0.366163
C65   C     C_3   0.513187 0.933374 0.321931 -0.354495
C66   C     C_3   0.527227 0.000694 0.252198 -0.771078
H47   H     H_    0.492031 0.047309 0.246658 0.291169
H48   H     H_    0.567157 0.034441 0.270181 0.256946
H49   H     H_    0.533277 0.969730 0.185914 0.258477
H50   H     H_    0.548585 0.886473 0.323765 0.239502
H51   H     H_    0.473641 0.899350 0.302537 0.230864
C67   C     C_3   0.487151 0.066414 0.677976 -0.325325
C68   C     C_3   0.473472 0.998911 0.747687 -0.718309
H52   H     H_    0.433836 0.964465 0.729565 0.245681
H53   H     H_    0.509052 0.952957 0.753444 0.301062
H54   H     H_    0.467071 0.029817 0.813919 0.263550
H55   H     H_    0.526809 0.100320 0.697108 0.255006
H56   H     H_    0.451730 0.113293 0.676590 0.230843

loop_
_geom_bond_atom_site_label_1
_geom_bond_atom_site_label_2
_ccdc_geom_bond_type
O2    Zn2   S    
S5    O27   S    
C57   H29   S    
C29   C33   S    
C18   C21   S    
C6    H6    S    
C10   H8    S    
S1    O13   D    
C18   C26   S    
S6    O30   S    
O5    Zn1   S    
C53   C54   S    
S1    O15   S    
C60   H30   S    
C45   C46   A    
O21   H23   S    
N4    Zn1   S    
S3    O20   D    
C29   C36   S    
C50   H2    S    
C30   C35   S    
C32   C36   S    
C35   C37   S    
S6    O29   D    
O27   H45   S    
C2    O2    A    
C41   O11   S    
C33   C35   S    
O15   H21   S    
C49   H1    S    
C60   H31   S    
S5    O25   D    
C32   C55   S    
C30   S2    S    
C65   H50   S    
C58   H25   S    
C40   C48   A    
C59   H33   S    
S4    O22   D    
C15   C26   S    
C63   H44   S    
C17   H9    S    
C61   H39   S    
C52   H4    S    
C48   C51   A    
C38   N4    T    
C49   C51   A    
C37   N3    T    
C50   C52   A    
O30   H46   S    
C39   O9    S    
C56   H17   S    
C19   C27   T    
C66   H48   S    
C53   H14   S    
C3    C13   A    
N3    Zn2   S    
C4    C14   A    
C41   C43   A    
C42   C44   A    
C23   O7    A    
C11   C61   S    
C68   H53   S    
C44   C46   A    
C68   H52   S    
C46   C48   A    
C45   C47   A    
C64   H42   S    
C55   H20   S    
C1    C19   S    
C30   C34   S    
C2    C20   S    
C23   O5    A    
O1    Zn1   S    
S6    O28   D    
C66   H49   S    
C4    C6    A    
C5    C7    A    
C43   C49   A    
C60   H32   S    
C6    C8    A    
C20   C28   T    
C67   H55   S    
S2    O18   S    
C1    O3    A    
C40   O10   S    
C9    H7    S    
C65   H51   S    
C62   H36   S    
C63   H43   S    
C9    C11   A    
C29   C31   S    
S2    O17   D    
C31   C34   S    
C4    C59   S    
S3    O21   S    
C56   H18   S    
C43   C45   A    
S4    O24   S    
C66   H47   S    
C53   H15   S    
C10   C12   A    
C15   S5    S    
C16   C18   S    
C12   C14   A    
C54   H11   S    
C67   H56   S    
O8    Zn1   S    
C12   C63   S    
C21   C67   S    
C31   C35   S    
C62   H37   S    
C41   N1    A    
C56   H16   S    
C42   N2    A    
C68   H54   S    
C24   O6    A    
C39   C47   A    
O24   H24   S    
S3    O19   D    
C44   C50   A    
C16   C25   S    
S5    O26   D    
C21   C25   S    
C55   H19   S    
C16   C22   S    
O4    Zn1   S    
C64   H41   S    
C34   S3    S    
C26   C28   S    
C18   H10   S    
C63   C64   S    
C3    C5    A    
C40   N2    A    
S1    O14   D    
C42   O12   S    
C47   C52   A    
C1    O1    A    
C25   C27   S    
C54   H13   S    
C39   N1    A    
C64   H40   S    
C54   H12   S    
C17   C22   S    
C31   C53   S    
C58   H27   S    
C5    H5    S    
C16   S6    S    
C17   C25   S    
C67   C68   S    
C36   C38   S    
C62   H35   S    
C61   C62   S    
O6    Zn2   S    
C3    C57   S    
C32   C33   S    
C30   C32   S    
C11   C13   A    
C24   O8    A    
C13   N2    S    
C2    O4    A    
C7    C23   S    
C14   N1    S    
S2    O16   D    
C8    C24   S    
O7    Zn2   S    
C58   H26   S    
C51   H3    S    
C59   H34   S    
S4    O23   D    
C29   S1    S    
C61   H38   S    
C7    C9    A    
C15   C21   S    
C55   C56   S    
C34   C36   S    
C8    C10   A    
C57   H28   S    
C22   C26   S    
O18   H22   S    
C59   C60   S    
O3    Zn2   S    
C33   S4    S    
C65   C66   S    
C15   C17   S    
C57   C58   S    
C22   C65   S    
