data_mof_unit_61935.cif
_audit_creation_date              2012-12-10T17:06:13-0500
_audit_creation_method            fapswitch 2.2
_symmetry_space_group_name_H-M    P1
_symmetry_Int_Tables_number       1
_space_group_crystal_system       triclinic
_cell_length_a                    10.614799
_cell_length_b                    10.995968
_cell_length_c                    10.151727
_cell_angle_alpha                 112.719968
_cell_angle_beta                  99.083539
_cell_angle_gamma                 92.665175
_cell_volume                      1071.71846539

loop_
_atom_site_label
_atom_site_type_symbol
_atom_type_description
_atom_site_fract_x
_atom_site_fract_y
_atom_site_fract_z
_atom_type_partial_charge
C1    C     C_R   0.491942 0.253185 0.438283 0.804117
C2    C     C_R   0.508058 0.746815 0.561717 0.804117
C3    C     C_R   0.260004 0.500671 0.499988 0.795739
C4    C     C_R   0.739996 0.499328 0.500012 0.795739
C5    C     C_3   0.063467 0.533074 0.636606 -0.106980
C6    C     C_3   0.936532 0.466926 0.363394 -0.106980
C7    C     C_3   0.962407 0.410704 0.550526 -0.139253
C8    C     C_3   0.037593 0.589296 0.449473 -0.139252
C9    C     C_3   0.877264 0.499018 0.499764 -0.009669
C10   C     C_3   0.122736 0.500982 0.500236 -0.009669
C11   C     C_3   0.976112 0.621321 0.585663 -0.151229
C12   C     C_3   0.023888 0.378679 0.414337 -0.151229
C13   C     C_2   0.480712 0.109328 0.399412 -0.009334
C14   C     C_2   0.519288 0.890671 0.600588 -0.009335
C15   C     C_2   0.528731 0.062938 0.499483 0.120862
C16   C     C_2   0.471269 0.937062 0.500517 0.120862
C17   C     C_2   0.511239 0.510946 0.080896 0.246715
C18   C     C_2   0.488761 0.489054 0.919104 0.246715
Cu1   Cu    Cu3+1 0.522260 0.521810 0.644920 1.062305
Cu2   Cu    Cu3+1 0.477740 0.478190 0.355080 1.062305
N1    N     N_2   0.444270 0.445410 0.137360 -0.108865
N2    N     N_2   0.555730 0.554590 0.862640 -0.108865
O1    O     O_R   0.511880 0.332340 0.577400 -0.552383
O2    O     O_R   0.488120 0.667660 0.422600 -0.552383
O3    O     O_R   0.474280 0.295500 0.332650 -0.534956
O4    O     O_R   0.525720 0.704500 0.667350 -0.534956
O5    O     O_R   0.335640 0.518390 0.622350 -0.571253
O6    O     O_R   0.664360 0.481610 0.377650 -0.571253
O7    O     O_R   0.298050 0.481550 0.377590 -0.552595
O8    O     O_R   0.701950 0.518450 0.622410 -0.552595
H1    H     H_    0.930374 0.338030 0.592958 0.188217
H2    H     H_    0.069626 0.661970 0.407042 0.188217
H3    H     H_    0.117637 0.560491 0.748905 0.183451
H4    H     H_    0.882363 0.439509 0.251095 0.183451
H5    H     H_    0.953595 0.720554 0.655804 0.173884
H6    H     H_    0.046405 0.279446 0.344196 0.173884
I1    I     I_    0.277579 0.855361 0.389964 -0.293019
I2    I     I_    0.722421 0.144639 0.610036 -0.293020
I3    I     I_    0.572114 0.017766 0.826481 -0.179085
I4    I     I_    0.427886 0.982234 0.173519 -0.179085
I5    I     I_    0.337352 0.341591 0.768859 -0.243036
I6    I     I_    0.662648 0.658409 0.231141 -0.243036
I7    I     I_    0.708265 0.708714 0.944199 -0.123633
I8    I     I_    0.291735 0.291286 0.055801 -0.123633

loop_
_geom_bond_atom_site_label_1
_geom_bond_atom_site_label_2
_ccdc_geom_bond_type
Cu1   O1    S    
C1    O3    A    
C15   I2    S    
C1    O1    A    
C12   H6    S    
N1    I8    S    
Cu1   O5    S    
Cu1   Cu2   S    
N2    I7    S    
C16   I1    S    
C6    C9    S    
C11   H5    S    
C17   C18   S    
C4    C9    S    
C4    O8    A    
C5    C10   S    
C2    O4    A    
C3    C10   S    
C6    C12   S    
C9    C11   S    
C10   C12   S    
C8    C11   S    
C3    O5    A    
C4    O6    A    
C5    C11   S    
Cu2   O7    S    
C13   C15   D    
C2    O2    A    
C7    C12   S    
C2    C14   S    
C14   C16   D    
C1    C13   S    
Cu2   O3    S    
C15   C16   S    
C8    H2    S    
C7    C9    S    
Cu1   N2    S    
C7    H1    S    
Cu2   N1    S    
C3    O7    A    
C18   I5    S    
C5    C7    S    
Cu1   O4    S    
Cu2   O2    S    
C17   I6    S    
C13   I4    S    
C6    C8    S    
Cu2   O6    S    
C14   I3    S    
C18   N2    D    
Cu1   O8    S    
C8    C10   S    
C17   N1    D    
C6    H4    S    
C5    H3    S    
