data_mof_unit_55587.cif
_audit_creation_date              2012-12-10T16:55:00-0500
_audit_creation_method            fapswitch 2.2
_symmetry_space_group_name_H-M    P1
_symmetry_Int_Tables_number       1
_space_group_crystal_system       triclinic
_cell_length_a                    9.759087
_cell_length_b                    10.927317
_cell_length_c                    15.499994
_cell_angle_alpha                 89.958411
_cell_angle_beta                  72.984148
_cell_angle_gamma                 88.993796
_cell_volume                      1580.30976561

loop_
_atom_site_label
_atom_site_type_symbol
_atom_type_description
_atom_site_fract_x
_atom_site_fract_y
_atom_site_fract_z
_atom_type_partial_charge
C1    C     C_R   0.000191 0.265478 0.501569 0.853742
C2    C     C_R   0.665365 0.565777 0.903500 0.087982
C3    C     C_R   0.761497 0.604828 0.950166 0.165239
C4    C     C_R   0.515816 0.566645 0.947735 0.028834
C5    C     C_R   0.469380 0.571133 0.043560 0.038497
C6    C     C_R   0.568430 0.607785 0.089213 -0.215502
C7    C     C_R   0.710827 0.629500 0.042313 -0.240348
C8    C     C_R   0.410447 0.569532 0.900443 0.074549
C9    C     C_R   0.269921 0.537680 0.946414 -0.268814
C10   C     C_R   0.226669 0.522760 0.039765 0.136601
C11   C     C_R   0.324792 0.542800 0.089755 0.086489
C12   C     C_R   0.916021 0.504546 0.672170 0.796773
C13   C     C_R   0.083376 0.495241 0.084238 -0.198904
C14   C     C_R   0.035848 0.488004 0.177993 -0.195740
C15   C     C_R   0.275433 0.530601 0.184123 -0.242724
C16   C     C_2   0.883404 0.934747 0.511342 -0.169793
C17   C     C_2   0.003268 0.866334 0.494365 -0.314387
C18   C     C_2   0.885653 0.068626 0.506524 -0.148990
C19   C     C_2   0.001062 0.133268 0.507119 -0.322229
C20   C     C_2   0.452089 0.452287 0.437876 -0.101833
C21   C     C_2   0.598978 0.431921 0.449622 -0.033397
C22   C     C_R   0.999699 0.734409 0.499164 0.847955
C23   C     C_R   0.084009 0.500247 0.327667 0.794718
C24   C     C_R   0.867895 0.529558 0.769694 -0.048639
C25   C     C_R   0.131748 0.505534 0.228483 -0.053002
C26   C     C_R   0.907666 0.615404 0.904312 -0.220429
C27   C     C_R   0.960332 0.579966 0.813937 -0.195717
C28   C     C_R   0.722734 0.517491 0.816438 -0.246521
Cu1   Cu    Cu3+1 0.138640 0.500020 0.499980 0.929001
Cu2   Cu    Cu3+1 0.861360 0.499980 0.500020 0.918888
H1    H     H_    0.783046 0.659636 0.079165 0.145052
H2    H     H_    0.007437 0.480785 0.046521 0.142044
H3    H     H_    0.779729 0.891778 0.527940 0.163727
H4    H     H_    0.108755 0.905914 0.475275 0.149698
H5    H     H_    0.787410 0.114748 0.503942 0.167093
H6    H     H_    0.097975 0.090595 0.514387 0.148974
H7    H     H_    0.435978 0.427595 0.373877 0.150904
H8    H     H_    0.351530 0.480609 0.565024 0.207163
H9    H     H_    0.666749 0.361251 0.408499 0.128258
H10   H     H_    0.347463 0.538930 0.224674 0.145313
H11   H     H_    0.924394 0.468190 0.210846 0.150689
H12   H     H_    0.191312 0.532114 0.909807 0.141001
H13   H     H_    0.980488 0.651956 0.938321 0.134443
H14   H     H_    0.072592 0.592631 0.778716 0.143946
H15   H     H_    0.655688 0.466515 0.785376 0.149065
H16   H     H_    0.538012 0.625217 0.160802 0.139246
N1    N     N_2   0.346430 0.498660 0.500980 -0.278049
N2    N     N_2   0.652550 0.498630 0.501000 -0.178307
O1    O     O_R   0.117050 0.321960 0.499980 -0.574851
O2    O     O_R   0.882890 0.321920 0.500020 -0.576770
O3    O     O_R   0.052910 0.500040 0.629810 -0.587691
O4    O     O_R   0.818750 0.499990 0.629840 -0.592193
O5    O     O_R   0.117110 0.678080 0.499980 -0.570014
O6    O     O_R   0.882950 0.678040 0.500020 -0.603828
O7    O     O_R   0.181250 0.500010 0.370160 -0.582352
O8    O     O_R   0.947090 0.499960 0.370190 -0.582730
C29   C     C_3   0.586680 0.617848 0.535438 -0.072077
C30   C     C_3   0.588599 0.710088 0.459238 -0.336738
C31   C     C_3   0.493427 0.822186 0.494903 -0.913434
H17   H     H_    0.380907 0.794379 0.526406 0.275103
H18   H     H_    0.531994 0.871955 0.545267 0.247807
H19   H     H_    0.495930 0.885242 0.438273 0.249865
H20   H     H_    0.699518 0.740175 0.426358 0.227033
H21   H     H_    0.550509 0.668491 0.405529 0.219774
H22   H     H_    0.480715 0.611526 0.585189 0.113726
H23   H     H_    0.645928 0.656961 0.579200 0.187045
C32   C     C_3   0.431922 0.637847 0.811670 -0.411611
C33   C     C_3   0.453230 0.774593 0.825477 -0.310231
C34   C     C_3   0.475780 0.846197 0.738196 -0.879433
H24   H     H_    0.578272 0.816967 0.688716 0.247858
H25   H     H_    0.385615 0.831574 0.709393 0.258016
H26   H     H_    0.481324 0.945398 0.751976 0.249037
H27   H     H_    0.357224 0.812731 0.876932 0.221056
H28   H     H_    0.548097 0.787380 0.850183 0.227385
H29   H     H_    0.521093 0.601490 0.755755 0.195109
H30   H     H_    0.335832 0.629061 0.787492 0.182580

loop_
_geom_bond_atom_site_label_1
_geom_bond_atom_site_label_2
_ccdc_geom_bond_type
C8    C9    A    
C13   H2    S    
C24   C27   A    
C29   H23   S    
C4    C8    A    
N2    C29   S    
C22   O6    A    
Cu1   O1    S    
Cu2   O6    S    
C9    H12   S    
Cu1   N1    S    
Cu2   N2    S    
C5    C11   A    
C3    C7    A    
C19   H6    S    
Cu1   O3    S    
C5    C6    A    
C15   C25   A    
C33   H28   S    
C18   C19   D    
C34   H25   S    
C11   C15   A    
C27   H14   S    
C16   C17   D    
C1    O2    A    
C21   N2    D    
Cu2   O2    S    
C31   H17   S    
C13   C14   A    
C9    C10   A    
C12   O4    A    
C26   H13   S    
C22   O5    A    
C30   H21   S    
C28   H15   S    
C31   H18   S    
C7    H1    S    
C32   C33   S    
C23   O8    A    
C33   C34   S    
Cu1   O7    S    
C33   H27   S    
C1    C19   S    
Cu2   O8    S    
C34   H26   S    
C2    C4    A    
Cu1   Cu2   S    
C16   H3    S    
C21   H9    S    
C26   C27   A    
H8    N1    S    
C14   H11   S    
C32   H29   S    
C17   H4    S    
C12   O3    A    
C18   H5    S    
C30   H20   S    
Cu2   O4    S    
C31   H19   S    
C6    H16   S    
C3    C26   A    
C24   C28   A    
C29   H22   S    
C4    C5    A    
C10   C13   A    
C23   O7    A    
C6    C7    A    
C12   C24   S    
C17   C22   S    
C2    C3    A    
C30   C31   S    
C20   H7    S    
C29   C30   S    
Cu1   O5    S    
C23   C25   S    
C14   C25   A    
C34   H24   S    
C15   H10   S    
C20   N1    D    
C10   C11   A    
C20   C21   S    
C8    C32   S    
C16   C18   S    
C2    C28   A    
C32   H30   S    
C1    O1    A    
