data_mof_unit_32344.cif
_audit_creation_date              2012-12-11T14:25:46-0500
_audit_creation_method            fapswitch 2.2
_symmetry_space_group_name_H-M    P1
_symmetry_Int_Tables_number       1
_space_group_crystal_system       triclinic
_cell_length_a                    6.946859
_cell_length_b                    14.987218
_cell_length_c                    16.086035
_cell_angle_alpha                 90.880822
_cell_angle_beta                  91.797637
_cell_angle_gamma                 89.864926
_cell_volume                      1673.75791211

loop_
_atom_site_label
_atom_site_type_symbol
_atom_type_description
_atom_site_fract_x
_atom_site_fract_y
_atom_site_fract_z
_atom_type_partial_charge
O1    O     O_R   0.494490 0.416160 0.413410 -0.539961
O2    O     O_R   0.823830 0.407240 0.585990 -0.538725
O3    O     O_R   0.994160 0.583840 0.586590 -0.538468
C1    C     C_R   0.659169 0.388526 0.615365 0.638873
O4    O     O_R   0.824200 0.405280 0.414020 -0.538754
O5    O     O_R   0.994530 0.581860 0.413390 -0.535726
C2    C     C_R   0.653482 0.382998 0.385821 0.744812
O6    O     O_R   0.494110 0.418140 0.586610 -0.544133
O7    O     O_3   0.660810 0.557940 0.500000 -0.379227
V1    V     V_3+5 0.935650 0.489250 0.500000 1.393583
O8    O     O_R   0.324250 0.592760 0.414010 -0.548763
C3    C     C_R   0.153113 0.612760 0.384574 0.711894
O9    O     O_R   0.323880 0.594720 0.585980 -0.554324
C4    C     C_R   0.156964 0.615106 0.616269 0.648227
V2    V     V_3+5 0.435660 0.510750 0.500000 1.360696
O10   O     O_3   0.160630 0.442060 0.500000 -0.363291
C5    C     C_3   0.987474 0.661002 0.748064 -0.340674
H1    H     H_    0.845116 0.669043 0.715400 0.131303
H2    H     H_    0.993698 0.589889 0.765506 0.131877
C6    C     C_3   0.994408 0.724404 0.826318 -0.376385
H3    H     H_    0.051412 0.690849 0.882651 0.140495
H4    H     H_    0.844404 0.744014 0.840939 0.141889
H5    H     H_    0.968156 0.770360 0.606195 0.104450
H6    H     H_    0.873768 0.833427 0.726604 0.118357
C7    C     C_3   0.096095 0.780061 0.648851 -0.078302
C8    C     C_3   0.343669 0.693661 0.738502 -0.020638
C9    C     C_3   0.148676 0.685151 0.686358 0.039477
H7    H     H_    0.457803 0.709981 0.694298 0.090909
C10   C     C_3   0.117409 0.808326 0.808342 0.044954
C11   C     C_3   0.032305 0.844002 0.722755 -0.049928
C12   C     C_3   0.330718 0.776053 0.798278 -0.304349
H8    H     H_    0.401545 0.762535 0.859347 0.139924
H9    H     H_    0.415429 0.831998 0.773459 0.107917
C13   C     C_2   0.984136 0.714959 0.280177 0.124021
C14   C     C_2   0.142901 0.671127 0.310515 -0.293133
H10   H     H_    0.275036 0.674879 0.276438 0.159436
C15   C     C_2   0.990067 0.766513 0.201605 -0.185582
C16   C     C_2   0.131551 0.823959 0.184031 0.177723
H11   H     H_    0.862730 0.763267 0.160653 0.093781
C17   C     C_2   0.693553 0.252661 0.815288 0.141892
C18   C     C_2   0.591940 0.174431 0.811906 -0.022603
C19   C     C_2   0.657666 0.325039 0.753766 -0.189515
C20   C     C_2   0.666596 0.312380 0.671243 0.193913
H12   H     H_    0.644285 0.392793 0.777405 0.070615
C21   C     C_2   0.779999 0.205794 0.216217 -0.137846
C22   C     C_2   0.616580 0.179095 0.176062 -0.306533
H13   H     H_    0.916069 0.176625 0.198232 0.137724
H14   H     H_    0.479300 0.207766 0.192226 0.128325
C23   C     C_2   0.789683 0.275078 0.284031 -0.139949
C24   C     C_2   0.635652 0.314250 0.318781 -0.317047
H15   H     H_    0.933257 0.293823 0.306452 0.138367
H16   H     H_    0.490643 0.296178 0.298572 0.129440
O11   O     O_R   0.770850 0.076180 0.907410 -0.541995
O12   O     O_R   0.440600 0.088970 0.079950 -0.546755
O13   O     O_R   0.270430 0.912340 0.080550 -0.542139
C25   C     C_R   0.610602 0.110405 0.108877 0.739797
O14   O     O_R   0.441120 0.087010 0.907980 -0.544760
O15   O     O_R   0.270950 0.910370 0.907350 -0.541756
C26   C     C_R   0.605906 0.108103 0.879654 0.675065
O16   O     O_R   0.770320 0.078150 0.080620 -0.534173
O17   O     O_3   0.604200 0.936340 0.994000 -0.371067
V3    V     V_3+5 0.329300 0.004970 0.993950 1.376287
O18   O     O_R   0.941240 0.899420 0.907920 -0.544700
C27   C     C_R   0.108728 0.876447 0.879876 0.663921
O19   O     O_R   0.940720 0.901380 0.079890 -0.545245
C28   C     C_R   0.112271 0.882118 0.109760 0.647252
V4    V     V_3+5 0.829310 0.983370 0.993880 1.387528
O20   O     O_3   0.104280 0.052120 0.993920 -0.370748
C29   C     C_3   0.262903 0.817704 0.595572 -0.350871
C30   C     C_3   0.195469 0.873569 0.520145 -0.299671
C31   C     C_3   0.321509 0.955943 0.507215 -0.773167
H17   H     H_    0.323339 0.001349 0.562162 0.217463
H18   H     H_    0.472450 0.937676 0.495828 0.230420
H19   H     H_    0.264541 0.993164 0.452555 0.220086
H20   H     H_    0.199478 0.831279 0.462935 0.186481
H21   H     H_    0.044420 0.895013 0.525445 0.206031
H22   H     H_    0.368754 0.855209 0.635390 0.173956
H23   H     H_    0.346002 0.761500 0.569394 0.158366
C32   C     C_3   0.044280 0.946013 0.707287 -0.347735
C33   C     C_3   0.865596 0.977985 0.656347 -0.326526
C34   C     C_3   0.906484 0.059974 0.605832 -0.724208
H24   H     H_    0.970863 0.112817 0.646700 0.269300
H25   H     H_    0.005989 0.045024 0.555455 0.223370
H26   H     H_    0.769392 0.082327 0.575740 0.231032
H27   H     H_    0.808939 0.925063 0.613192 0.177635
H28   H     H_    0.748288 0.993997 0.699741 0.181853
H29   H     H_    0.045714 0.985031 0.766344 0.151025
H30   H     H_    0.179815 0.964101 0.678270 0.193696
C35   C     C_3   0.793911 0.717028 0.323539 -0.314397
C36   C     C_3   0.812903 0.771776 0.404523 -0.300343
C37   C     C_3   0.622629 0.777668 0.447520 -0.775563
H31   H     H_    0.566103 0.710500 0.459281 0.265786
H32   H     H_    0.645917 0.812254 0.508426 0.192673
H33   H     H_    0.516373 0.814260 0.407915 0.253130
H34   H     H_    0.919590 0.741275 0.448149 0.192685
H35   H     H_    0.861608 0.840463 0.390710 0.192726
H36   H     H_    0.681823 0.749238 0.283099 0.175437
H37   H     H_    0.740338 0.648592 0.334094 0.184973
O21   O     O_3   0.288151 0.832776 0.238961 -0.658313
H38   H     H_    0.370225 0.882488 0.221198 0.287134
C38   C     C_3   0.835595 0.275141 0.886393 -0.405876
C39   C     C_3   0.734856 0.298281 0.967411 -0.309153
C40   C     C_3   0.879767 0.328695 0.035201 -0.754247
H39   H     H_    0.982721 0.273957 0.050096 0.231437
H40   H     H_    0.960644 0.387894 0.014719 0.219758
H41   H     H_    0.802449 0.347371 0.092279 0.225698
H42   H     H_    0.629027 0.352282 0.956438 0.198596
H43   H     H_    0.655541 0.239885 0.989836 0.185362
H44   H     H_    0.938342 0.219475 0.896709 0.191239
H45   H     H_    0.923471 0.333623 0.869224 0.175411
C41   C     C_3   0.419039 0.159994 0.751350 -0.313466
C42   C     C_3   0.241320 0.215294 0.775799 -0.315926
C43   C     C_3   0.184586 0.285616 0.711638 -0.684667
H46   H     H_    0.291955 0.339750 0.710812 0.214757
H47   H     H_    0.166572 0.255105 0.648540 0.230927
H48   H     H_    0.047195 0.317089 0.728683 0.220236
H49   H     H_    0.117288 0.169278 0.781311 0.189707
H50   H     H_    0.265156 0.248761 0.837445 0.186831
H51   H     H_    0.452646 0.168970 0.685628 0.221086
H52   H     H_    0.377964 0.088286 0.752008 0.111904
O22   O     O_3   0.731279 0.232032 0.640693 -0.665371
H53   H     H_    0.733723 0.235591 0.579159 0.271074
C44   C     C_3   0.422378 0.605971 0.780115 -0.328255
C45   C     C_3   0.349705 0.580356 0.866475 -0.287370
C46   C     C_3   0.453957 0.498526 0.900002 -0.841457
H54   H     H_    0.414353 0.488151 0.965523 0.220718
H55   H     H_    0.408366 0.438595 0.863151 0.229009
H56   H     H_    0.612620 0.507062 0.898212 0.235946
H57   H     H_    0.372955 0.634718 0.912983 0.188092
H58   H     H_    0.196049 0.562377 0.863569 0.193228
H59   H     H_    0.398158 0.548342 0.736913 0.166507
H60   H     H_    0.581080 0.613370 0.787313 0.156277

loop_
_geom_bond_atom_site_label_1
_geom_bond_atom_site_label_2
_ccdc_geom_bond_type
O15   V3    S    
C38   C39   S    
C44   H60   S    
C13   C15   S    
C29   H22   S    
C41   C42   S    
C1    O6    A    
C34   H26   S    
C32   H29   S    
C34   H24   S    
O11   C26   A    
C44   C45   S    
C21   C22   D    
C8    C9    S    
C33   H27   S    
O5    C3    A    
C42   H49   S    
O14   C26   A    
C38   H44   S    
V2    O10   S    
O13   V3    S    
C5    C6    S    
C41   H51   S    
C13   C14   D    
C42   C43   S    
C33   H28   S    
C17   C38   S    
O8    V2    S    
C16   C28   S    
O16   V4    S    
C23   H15   S    
C46   H56   S    
C24   H16   S    
C12   H9    S    
C39   H43   S    
C30   C31   S    
O1    V2    S    
C4    C9    S    
C10   C11   S    
O7    V1    S    
C20   O22   S    
O17   V3    S    
C43   H48   S    
C17   C19   S    
C10   C27   S    
C8    C12   S    
O9    C4    A    
C29   H23   S    
C39   C40   S    
C19   H12   S    
C32   H30   S    
C34   H25   S    
O18   V4    S    
C6    C10   S    
C21   H13   S    
O15   C27   A    
O12   C25   A    
V4    O20   S    
C5    C9    S    
O14   V3    S    
C18   C26   S    
C37   H31   S    
C31   H18   S    
C16   O21   S    
O12   V3    S    
O19   V4    S    
C38   H45   S    
C32   C33   S    
C35   H36   S    
C41   H52   S    
C14   H10   S    
O2    C1    A    
C15   C16   D    
C37   H32   S    
O17   V4    S    
O21   H38   S    
C21   C23   S    
C5    H1    S    
C45   H58   S    
C39   H42   S    
C40   H40   S    
C3    C14   S    
O22   H53   S    
O3    C4    A    
C11   C32   S    
C17   C18   D    
C6    H4    S    
O19   C28   A    
O6    V2    S    
O9    V2    S    
C30   H21   S    
C46   H54   S    
C7    C29   S    
C19   C20   D    
O2    V1    S    
C40   H39   S    
O13   C28   A    
O4    C2    A    
C43   H46   S    
C7    C11   S    
C44   H59   S    
O1    C2    A    
C12   H8    S    
C2    C24   S    
C33   C34   S    
C36   H34   S    
O5    V1    S    
C31   H19   S    
O8    C3    A    
C36   H35   S    
C1    C20   S    
C7    C9    S    
C8    C44   S    
C8    H7    S    
V3    O20   S    
C35   H37   S    
O7    V2    S    
C13   C35   S    
C31   H17   S    
C10   C12   S    
O3    V1    S    
V1    O10   S    
C37   H33   S    
C42   H50   S    
C36   C37   S    
C5    H2    S    
C45   H57   S    
C40   H41   S    
H5    C7    S    
C29   C30   S    
O11   V4    S    
H6    C11   S    
O18   C27   A    
C22   H14   S    
C25   O16   A    
O4    V1    S    
C6    H3    S    
C15   H11   S    
C23   C24   D    
C18   C41   S    
C22   C25   S    
C30   H20   S    
C46   H55   S    
C35   C36   S    
C45   C46   S    
C43   H47   S    
