data_mof_unit_64764.cif
_audit_creation_date              2012-10-26T18:11:29-0400
_audit_creation_method            fapswitch 2.2
_symmetry_space_group_name_H-M    P1
_symmetry_Int_Tables_number       1
_space_group_crystal_system       triclinic
_cell_length_a                    18.752898
_cell_length_b                    18.75379
_cell_length_c                    18.795924
_cell_angle_alpha                 109.347783
_cell_angle_beta                  109.754698
_cell_angle_gamma                 109.179987
_cell_volume                      5096.73125068

loop_
_atom_site_label
_atom_site_type_symbol
_atom_type_description
_atom_site_fract_x
_atom_site_fract_y
_atom_site_fract_z
_atom_type_partial_charge
C1    C     C_R   0.618136 0.618823 0.499371 0.561203
C2    C     C_R   0.683611 0.686166 0.498266 0.015625
C3    C     C_R   0.685562 0.508476 0.760813 -0.159227
C4    C     C_R   0.380740 0.499821 0.380680 0.563183
C5    C     C_R   0.748229 0.506746 0.825488 0.055204
C6    C     C_R   0.817209 0.499798 0.815682 0.040623
C7    C     C_R   0.824105 0.495691 0.742105 0.114943
C8    C     C_R   0.762353 0.500594 0.678744 0.246181
C9    C     C_R   0.691455 0.504509 0.687560 -0.015560
C10   C     C_R   0.241924 0.322508 0.499582 0.202728
C11   C     C_R   0.178039 0.259125 0.502351 0.219890
C12   C     C_3   0.175694 0.430163 0.218471 0.049300
C13   C     C_R   0.185442 0.186626 0.500777 0.013846
C14   C     C_R   0.257458 0.179164 0.501979 -0.174928
C15   C     C_R   0.322792 0.243051 0.502855 0.035482
C16   C     C_R   0.381326 0.381154 0.500308 0.600296
C17   C     C_R   0.314493 0.314514 0.501120 0.061078
C18   C     C_R   0.002947 0.618758 0.121568 0.598158
C19   C     C_R   0.123073 0.499438 0.122442 0.598025
C20   C     C_R   0.004277 0.381195 0.885387 0.554815
C21   C     C_R   0.884210 0.499796 0.883788 0.573379
C22   C     C_R   0.001502 0.881831 0.381781 0.565114
C23   C     C_3   0.233118 0.502832 0.313853 0.064033
C24   C     C_R   0.881170 0.880689 0.499490 0.566804
C25   C     C_R   0.999537 0.119145 0.618215 0.548328
C26   C     C_R   0.118772 0.118958 0.500159 0.596450
C27   C     C_R   0.994346 0.753322 0.174717 0.062043
C28   C     C_R   0.621298 0.501617 0.619874 0.530901
C29   C     C_R   0.994478 0.818833 0.238815 0.086585
C30   C     C_R   0.002390 0.815715 0.314742 0.022823
C31   C     C_R   0.010658 0.748696 0.327042 -0.149856
C32   C     C_R   0.010262 0.683177 0.263749 0.062502
C33   C     C_R   0.002250 0.685908 0.187614 0.080854
C34   C     C_3   0.313906 0.500030 0.313059 0.025874
C35   C     C_R   0.079931 0.308503 0.833791 0.089028
C36   C     C_R   0.077681 0.244054 0.767318 -0.101848
C37   C     C_R   0.000982 0.187066 0.686044 0.006907
C38   C     C_R   0.925945 0.194277 0.671043 -0.136766
C39   C     C_R   0.927210 0.257260 0.737294 -0.156705
C40   C     C_3   0.331179 0.570717 0.285356 -0.168300
C41   C     C_R   0.003937 0.314544 0.818153 0.063482
C42   C     C_3   0.248758 0.571581 0.285381 0.219501
C43   C     C_3   0.190367 0.498840 0.189297 0.068464
C44   C     C_3   0.271528 0.496312 0.189134 0.044432
C45   C     C_R   0.757851 0.754573 0.578122 0.207858
C46   C     C_3   0.255921 0.427162 0.216983 0.263711
C47   C     C_R   0.820910 0.822068 0.579159 0.056315
C48   C     C_R   0.813889 0.813489 0.499273 -0.003158
C49   C     C_R   0.741682 0.742339 0.419000 0.107926
C50   C     C_R   0.673943 0.680674 0.418357 0.194860
Cu1   Cu    Cu3+1 0.500500 0.438200 0.438680 1.053454
Cu2   Cu    Cu3+1 0.499500 0.561800 0.561320 1.033369
Cu3   Cu    Cu3+1 0.942090 0.438180 0.003770 1.005327
Cu4   Cu    Cu3+1 0.065710 0.561750 0.003750 1.029321
Cu5   Cu    Cu3+1 0.062280 0.999890 0.562170 0.970658
Cu6   Cu    Cu3+1 0.937720 0.999930 0.437650 1.029872
H1    H     H_    0.631284 0.512049 0.767099 0.133932
H2    H     H_    0.795073 0.573211 0.954908 0.234372
H3    H     H_    0.685899 0.513640 0.896842 0.228947
H4    H     H_    0.883227 0.424512 0.721590 0.212513
H5    H     H_    0.896423 0.490952 0.679807 0.291452
H6    H     H_    0.746610 0.533892 0.589195 0.346203
H7    H     H_    0.171596 0.373843 0.463891 0.326737
H8    H     H_    0.128863 0.330192 0.541134 0.335090
H9    H     H_    0.451969 0.286277 0.567207 0.226165
H10   H     H_    0.391996 0.177798 0.503309 0.234202
H11   H     H_    0.035141 0.811120 0.111056 0.243009
H12   H     H_    0.262566 0.123303 0.502205 0.136229
H13   H     H_    0.925006 0.750686 0.063356 0.223006
H14   H     H_    0.041362 0.922632 0.222242 0.230616
H15   H     H_    0.930734 0.864540 0.171766 0.236545
H16   H     H_    0.079452 0.622213 0.284435 0.267722
H17   H     H_    0.020476 0.620030 0.334468 0.230583
H18   H     H_    0.209246 0.355951 0.916963 0.235580
H19   H     H_    0.145853 0.351091 0.962241 0.245651
H20   H     H_    0.350295 0.490233 0.138080 0.256780
H21   H     H_    0.303426 0.549046 0.118500 0.256796
H22   H     H_    0.215667 0.318859 0.118720 0.339434
H23   H     H_    0.395178 0.628312 0.312952 0.124369
H24   H     H_    0.104823 0.318901 0.214101 0.245525
H25   H     H_    0.053382 0.375477 0.200335 0.243154
H26   H     H_    0.155580 0.511559 0.365923 0.237342
H27   H     H_    0.198126 0.448718 0.381895 0.254915
H28   H     H_    0.830288 0.777011 0.693508 0.335504
H29   H     H_    0.877894 0.905649 0.710939 0.243883
H30   H     H_    0.888306 0.953476 0.653307 0.225900
H31   H     H_    0.786746 0.721110 0.334876 0.219175
H32   H     H_    0.678914 0.682847 0.284042 0.289744
H33   H     H_    0.016522 0.747053 0.385793 0.133307
H34   H     H_    0.135788 0.238541 0.778848 0.131803
H35   H     H_    0.866125 0.150351 0.608770 0.140457
H36   H     H_    0.868732 0.262156 0.725280 0.117237
H37   H     H_    0.288172 0.680308 0.382518 0.343121
H38   H     H_    0.549537 0.595506 0.348009 0.328193
N1    N     N_3   0.742939 0.513119 0.901764 -0.588214
N2    N     N_3   0.212873 0.507906 0.382974 -0.578627
N3    N     N_3   0.890076 0.900701 0.659787 -0.588669
N4    N     N_3   0.737957 0.734719 0.338744 -0.571117
N5    N     N_3   0.894627 0.486823 0.733265 -0.577598
N6    N     N_3   0.398023 0.236342 0.506389 -0.585888
N7    N     N_3   0.984266 0.753350 0.095502 -0.619307
N8    N     N_3   0.988874 0.889671 0.228527 -0.600785
N9    N     N_3   0.019013 0.614391 0.276683 -0.595636
N10   N     N_3   0.158040 0.366614 0.917479 -0.584365
N11   N     N_3   0.291587 0.491186 0.119875 -0.613865
N12   N     N_3   0.092568 0.353670 0.182561 -0.601163
O1    O     O_R   0.590610 0.537990 0.448230 -0.512709
O2    O     O_R   0.948100 0.909770 0.357840 -0.477677
O3    O     O_R   0.962410 0.909720 0.552480 -0.486546
O4    O     O_R   0.589770 0.642360 0.551790 -0.471919
O5    O     O_R   0.857220 0.909750 0.447330 -0.490835
O6    O     O_R   0.051900 0.090060 0.641980 -0.515939
O7    O     O_R   0.946710 0.090090 0.536830 -0.502320
O8    O     O_R   0.142780 0.090070 0.552500 -0.527633
O9    O     O_R   0.037590 0.090110 0.447350 -0.450658
O10   O     O_R   0.409550 0.447810 0.357350 -0.473620
O11   O     O_R   0.408710 0.552190 0.460910 -0.498131
O12   O     O_R   0.055400 0.642330 0.093210 -0.488621
O13   O     O_R   0.410230 0.357640 0.448210 -0.484076
O14   O     O_R   0.409390 0.462010 0.551770 -0.473684
O15   O     O_R   0.591290 0.447810 0.539090 -0.496779
O16   O     O_R   0.590450 0.552190 0.642650 -0.512114
O17   O     O_R   0.951000 0.537980 0.093230 -0.487984
O18   O     O_3   0.242816 0.646432 0.320013 -0.702646
O19   O     O_3   0.599910 0.616163 0.339111 -0.695434
O20   O     O_3   0.773605 0.502316 0.610217 -0.689812
O21   O     O_3   0.234160 0.391004 0.492666 -0.698110
O22   O     O_3   0.109987 0.267524 0.509765 -0.686549
O23   O     O_R   0.042570 0.447790 0.094640 -0.504596
O24   O     O_3   0.260477 0.351569 0.181356 -0.654583
O25   O     O_3   0.767460 0.752594 0.653536 -0.683281
O26   O     O_R   0.146970 0.552140 0.094620 -0.497957
O27   O     O_R   0.952400 0.357600 0.914310 -0.523129
O28   O     O_R   0.056800 0.461950 0.914290 -0.481909
O29   O     O_R   0.860830 0.447790 0.912900 -0.492765
O30   O     O_R   0.965230 0.552140 0.912880 -0.484762
O31   O     O_R   0.053290 0.909730 0.462990 -0.527587

loop_
_geom_bond_atom_site_label_1
_geom_bond_atom_site_label_2
_ccdc_geom_bond_type
C19   O23   A    
Cu5   Cu6   S    
H20   N11   S    
Cu5   O6    S    
C27   C29   A    
C35   C36   A    
Cu3   O29   S    
H37   O18   S    
C15   N6    S    
C43   C44   S    
H4    N5    S    
C20   C41   S    
C42   O18   S    
C7    C8    A    
C39   C41   A    
Cu3   Cu4   S    
C27   C33   A    
C22   O31   A    
C37   C38   A    
C23   C42   S    
C7    N5    S    
C34   C40   S    
C36   C37   A    
C12   C43   S    
C16   O14   A    
Cu6   O5    S    
C5    C6    A    
C28   O16   A    
C10   C17   A    
Cu4   O28   S    
H24   N12   S    
C23   N2    S    
C1    C2    S    
H10   N6    S    
H30   N3    S    
C26   O9    A    
Cu6   O2    S    
C2    C50   A    
C25   O6    A    
C25   C37   S    
C49   N4    S    
Cu2   O16   S    
C47   C48   A    
C44   C46   S    
C16   C17   S    
H8    O22   S    
Cu1   O13   S    
Cu6   O7    S    
C34   C46   S    
C20   O27   A    
C18   O12   A    
C21   O30   A    
C18   O17   A    
H31   N4    S    
Cu2   O11   S    
C40   C42   S    
C13   C14   A    
Cu5   O3    S    
H5    N5    S    
C24   O5    A    
H3    N1    S    
C35   C41   A    
C5    N1    S    
C19   C43   S    
C40   C44   S    
C45   C47   A    
C2    C45   A    
C38   C39   A    
C4    C34   S    
C40   H23   S    
H26   N2    S    
Cu1   Cu2   S    
C24   C48   S    
Cu3   O27   S    
C12   C46   S    
C35   N10   S    
Cu3   O17   S    
C16   O13   A    
H6    O20   S    
C28   O15   A    
C8    C9    A    
C31   H33   S    
C44   N11   S    
C6    C21   S    
C38   H35   S    
C27   N7    S    
H2    N1    S    
C26   O8    A    
C29   C30   A    
C3    C9    A    
C25   O7    A    
C1    O4    A    
C31   C32   A    
C12   C23   S    
Cu2   O4    S    
C23   C34   S    
Cu4   O30   S    
C32   N9    S    
C50   O19   S    
C1    O1    A    
C3    H1    S    
C8    O20   S    
C48   C49   A    
H16   N9    S    
H15   N8    S    
C45   O25   S    
Cu4   O12   S    
H19   N10   S    
Cu1   O15   S    
C4    O11   A    
Cu3   O23   S    
C42   C43   S    
C10   O21   S    
Cu2   O14   S    
C39   H36   S    
H11   N7    S    
H18   N10   S    
H38   O19   S    
C36   H34   S    
C19   O26   A    
C15   C17   A    
H25   N12   S    
C22   C30   S    
C4    O10   A    
C24   O3    A    
H9    N6    S    
C3    C5    A    
C47   N3    S    
C46   O24   S    
H14   N8    S    
C6    C7    A    
Cu5   O8    S    
H13   N7    S    
Cu4   O26   S    
H28   O25   S    
Cu1   O10   S    
Cu5   O31   S    
C32   C33   A    
H21   N11   S    
C11   O22   S    
H22   O24   S    
C12   N12   S    
C11   C13   A    
C30   C31   A    
C22   O2    A    
H27   N2    S    
Cu6   O9    S    
C29   N8    S    
C13   C26   S    
C18   C33   S    
H7    O21   S    
H29   N3    S    
C10   C11   A    
H17   N9    S    
Cu1   O1    S    
C49   C50   A    
C14   H12   S    
C14   C15   A    
C20   O28   A    
C21   O29   A    
H32   N4    S    
C9    C28   S    
