data_mof_unit_65360.cif
_audit_creation_date              2012-10-26T18:13:13-0400
_audit_creation_method            fapswitch 2.2
_symmetry_space_group_name_H-M    P1
_symmetry_Int_Tables_number       1
_space_group_crystal_system       triclinic
_cell_length_a                    18.702662
_cell_length_b                    18.663984
_cell_length_c                    18.622517
_cell_angle_alpha                 109.471997
_cell_angle_beta                  109.295054
_cell_angle_gamma                 109.536443
_cell_volume                      5010.85448198

loop_
_atom_site_label
_atom_site_type_symbol
_atom_type_description
_atom_site_fract_x
_atom_site_fract_y
_atom_site_fract_z
_atom_type_partial_charge
C1    C     C_R   0.622230 0.502234 0.620053 0.563934
C2    C     C_3   0.849212 0.771645 0.553669 -0.240709
C3    C     C_3   0.256566 0.159801 0.491012 -0.223480
C4    C     C_3   0.764203 0.850952 0.539185 -0.230212
C5    C     C_3   0.776041 0.596694 0.750327 -0.099677
C6    C     C_3   0.280647 0.430245 0.214634 -0.083955
C7    C     C_3   0.844394 0.596180 0.824896 -0.270829
C8    C     C_3   0.209895 0.433838 0.145652 -0.282441
C9    C     C_3   0.655099 0.476713 0.745843 -0.206582
C10   C     C_3   0.346530 0.593138 0.320456 -0.204598
C11   C     C_3   0.719708 0.436434 0.648898 0.161017
C12   C     C_R   0.380016 0.499971 0.379682 0.539729
C13   C     C_3   0.229451 0.479339 0.323592 0.151666
C14   C     C_3   0.691826 0.503411 0.689924 0.017561
C15   C     C_3   0.311257 0.500551 0.310612 0.009239
C16   C     C_R   0.381481 0.379832 0.501610 0.536257
C17   C     C_R   0.617611 0.620104 0.497612 0.545032
C18   C     C_3   0.810898 0.502566 0.813728 -0.024716
C19   C     C_3   0.189048 0.503242 0.191885 -0.030142
C20   C     C_3   0.724083 0.475906 0.818927 -0.048601
C21   C     C_3   0.275629 0.594949 0.249777 -0.047295
C22   C     C_3   0.792774 0.440059 0.722804 -0.198042
C23   C     C_3   0.332391 0.233785 0.497404 -0.041516
C24   C     C_3   0.156435 0.476478 0.250517 -0.176097
C25   C     C_3   0.998624 0.310811 0.809576 0.045925
C26   C     C_3   0.997632 0.689073 0.186749 0.038426
C27   C     C_R   0.998631 0.118531 0.620164 0.544056
C28   C     C_R   0.000986 0.880992 0.379902 0.542260
C29   C     C_R   0.119682 0.118773 0.498568 0.543180
C30   C     C_R   0.880143 0.878923 0.499088 0.543087
C31   C     C_R   0.997865 0.620003 0.117940 0.543144
C32   C     C_R   0.998772 0.379983 0.878653 0.538126
C33   C     C_R   0.879985 0.502523 0.882611 0.531024
C34   C     C_3   0.690393 0.780401 0.538518 -0.036331
C35   C     C_R   0.119860 0.502809 0.122750 0.546486
C36   C     C_3   0.903326 0.165550 0.666207 -0.232743
C37   C     C_3   0.078744 0.797694 0.349460 -0.234055
C38   C     C_3   0.045609 0.196559 0.780612 -0.224799
C39   C     C_3   0.006786 0.837866 0.240789 -0.233287
C40   C     C_3   0.048539 0.349525 0.767333 -0.226242
C41   C     C_3   0.913545 0.651482 0.193244 -0.224949
C42   C     C_3   0.043602 0.267503 0.850837 -0.238721
C43   C     C_3   0.002634 0.764461 0.166739 -0.234234
C44   C     C_3   0.903440 0.239229 0.735879 -0.230492
C45   C     C_3   0.312683 0.310066 0.501528 0.023353
C46   C     C_3   0.078083 0.727213 0.276284 -0.242362
C47   C     C_3   0.998517 0.187564 0.689137 0.046073
C48   C     C_3   0.000565 0.811934 0.310417 0.046653
C49   C     C_3   0.046457 0.276567 0.695049 -0.240225
C50   C     C_3   0.914402 0.724376 0.264446 -0.238784
C51   C     C_3   0.302126 0.348590 0.583047 -0.214902
C52   C     C_3   0.671055 0.661667 0.402625 -0.218446
C53   C     C_3   0.234463 0.274900 0.584307 -0.229230
C54   C     C_3   0.742475 0.734220 0.403475 -0.226906
C55   C     C_3   0.223764 0.269508 0.418422 -0.268410
C56   C     C_3   0.686094 0.689482 0.497206 0.016798
C57   C     C_3   0.775994 0.701179 0.552959 -0.273223
C58   C     C_2   0.418733 0.262806 0.573012 0.549520
C59   C     C_2   0.604121 0.777000 0.494182 0.554316
C60   C     C_2   0.760502 0.672071 0.787815 0.589948
C61   C     C_2   0.353618 0.436323 0.193514 0.589467
C62   C     C_3   0.658918 0.294252 0.533351 0.045482
C63   C     C_3   0.614058 0.287807 0.444414 -0.246361
C64   C     C_3   0.618568 0.221208 0.374021 -0.495671
C65   C     C_3   0.232648 0.510871 0.458791 0.038425
C66   C     C_3   0.134589 0.467364 0.428360 -0.289620
C67   C     C_3   0.188411 0.187121 0.497919 0.027683
C68   C     C_3   0.115672 0.436762 0.489813 -0.489948
C69   C     C_2   0.684107 0.388292 0.815173 0.583495
C70   C     C_2   0.262479 0.670920 0.291458 0.556793
C71   C     C_3   0.810803 0.810199 0.499012 0.025000
C72   C     C_3   0.149908 0.201055 0.419077 -0.235923
Cu1   Cu    Cu3+1 0.499950 0.562450 0.562440 1.010814
Cu2   Cu    Cu3+1 0.500050 0.437550 0.437560 0.953539
Cu3   Cu    Cu3+1 0.062480 0.999960 0.562430 0.917183
Cu4   Cu    Cu3+1 0.937520 0.000040 0.437570 0.907311
Cu5   Cu    Cu3+1 0.062470 0.562430 0.999950 0.952720
Cu6   Cu    Cu3+1 0.937530 0.437570 0.000050 0.963603
H1    H     H_    0.117848 0.399626 0.818192 0.139993
H2    H     H_    0.789668 0.720820 0.621418 0.167280
H3    H     H_    0.113389 0.138022 0.356114 0.126046
H4    H     H_    0.898159 0.824595 0.622770 0.143017
H5    H     H_    0.804415 0.609557 0.708932 0.084334
H6    H     H_    0.249551 0.364388 0.208228 0.112702
H7    H     H_    0.906490 0.618817 0.822888 0.133230
H8    H     H_    0.149716 0.367984 0.103350 0.107517
H9    H     H_    0.860106 0.643272 0.890988 0.145032
H10   H     H_    0.230826 0.449358 0.100660 0.151735
H11   H     H_    0.114512 0.293062 0.709901 0.110018
H12   H     H_    0.854481 0.621981 0.128845 0.135989
H13   H     H_    0.857285 0.731970 0.233799 0.134540
H14   H     H_    0.633759 0.521697 0.775708 0.152534
H15   H     H_    0.406321 0.612107 0.314580 0.147528
H16   H     H_    0.740413 0.527382 0.883179 0.118120
H17   H     H_    0.301036 0.606877 0.206062 0.149721
H18   H     H_    0.746220 0.457181 0.609131 0.079464
H19   H     H_    0.204478 0.412383 0.316223 0.056750
H20   H     H_    0.853396 0.463468 0.718260 0.062100
H21   H     H_    0.099241 0.408658 0.209892 0.084475
H22   H     H_    0.775627 0.373657 0.714349 0.180983
H23   H     H_    0.334826 0.205104 0.435864 0.119891
H24   H     H_    0.132479 0.519408 0.278846 0.188781
H25   H     H_    0.594764 0.411675 0.701804 0.198773
H26   H     H_    0.368149 0.643030 0.387837 0.218839
H27   H     H_    0.865235 0.210294 0.763546 0.145465
H28   H     H_    0.139123 0.756890 0.273966 0.170051
H29   H     H_    0.868017 0.102183 0.662835 0.111299
H30   H     H_    0.141647 0.860263 0.384499 0.130619
H31   H     H_    0.012778 0.272643 0.630992 0.121473
H32   H     H_    0.907586 0.705240 0.313436 0.104902
H33   H     H_    0.867094 0.157924 0.600775 0.137460
H34   H     H_    0.708307 0.801175 0.608386 0.134020
H35   H     H_    0.074825 0.776602 0.398005 0.138089
H36   H     H_    0.870296 0.268928 0.704480 0.104329
H37   H     H_    0.076778 0.673932 0.291217 0.131306
H38   H     H_    0.018377 0.382595 0.738592 0.116272
H39   H     H_    0.909107 0.598741 0.209947 0.139086
H40   H     H_    0.114903 0.214705 0.800169 0.143562
H41   H     H_    0.952232 0.849360 0.211768 0.142549
H42   H     H_    0.013308 0.132713 0.777576 0.122274
H43   H     H_    0.069061 0.900133 0.272359 0.107735
H44   H     H_    0.007836 0.237220 0.879593 0.127516
H45   H     H_    0.281379 0.143344 0.542891 0.172653
H46   H     H_    0.061623 0.792722 0.160783 0.145485
H47   H     H_    0.111570 0.317952 0.905109 0.115295
H48   H     H_    0.944411 0.738530 0.102995 0.116850
H49   H     H_    0.279688 0.396421 0.580703 0.114626
H50   H     H_    0.673634 0.600234 0.375493 0.132405
H51   H     H_    0.365635 0.385396 0.644978 0.177049
H52   H     H_    0.605111 0.646886 0.357747 0.188798
H53   H     H_    0.267695 0.268244 0.641504 0.170758
H54   H     H_    0.711151 0.759136 0.363498 0.172352
H55   H     H_    0.185474 0.292697 0.592874 0.095437
H56   H     H_    0.738445 0.881262 0.502532 0.165010
H57   H     H_    0.775359 0.706167 0.372237 0.100763
H58   H     H_    0.208052 0.320990 0.415127 0.098673
H59   H     H_    0.775703 0.638037 0.526104 0.120594
H60   H     H_    0.103024 0.224084 0.423796 0.136156
H61   H     H_    0.883317 0.742077 0.526042 0.128476
H62   H     H_    0.488011 0.300916 0.701094 0.354022
H63   H     H_    0.515584 0.768684 0.389265 0.341868
H64   H     H_    0.762387 0.781335 0.789494 0.340024
H65   H     H_    0.419921 0.377474 0.161219 0.334968
H66   H     H_    0.627920 0.228017 0.525754 0.180518
H67   H     H_    0.224351 0.098744 0.427108 0.083047
H68   H     H_    0.729037 0.314555 0.554568 0.077539
H69   H     H_    0.544350 0.267734 0.424117 0.205756
H70   H     H_    0.646476 0.352898 0.450094 0.157744
H71   H     H_    0.687771 0.240565 0.392503 0.144097
H72   H     H_    0.586016 0.218491 0.310582 0.153411
H73   H     H_    0.584690 0.154921 0.365407 0.159105
H74   H     H_    0.268473 0.566587 0.526964 0.165532
H75   H     H_    0.258012 0.465396 0.461823 0.128296
H76   H     H_    0.111950 0.515102 0.426794 0.178902
H77   H     H_    0.097094 0.409752 0.361129 0.142161
H78   H     H_    0.812386 0.905185 0.607992 0.085794
H79   H     H_    0.136181 0.387613 0.491010 0.139299
H80   H     H_    0.044423 0.405952 0.466388 0.148161
H81   H     H_    0.150975 0.493289 0.557439 0.148798
H82   H     H_    0.627664 0.256580 0.746044 0.339534
H83   H     H_    0.240607 0.736602 0.384763 0.327587
H84   H     H_    0.226964 0.237670 0.358173 0.125467
O1    O     O_R   0.591120 0.552750 0.643890 -0.491864
O2    O     O_R   0.408790 0.552730 0.461580 -0.475153
O3    O     O_R   0.408810 0.461590 0.552740 -0.536909
O4    O     O_R   0.591190 0.538410 0.447260 -0.529801
O5    O     O_R   0.408900 0.356100 0.447280 -0.511179
O6    O     O_R   0.591100 0.643900 0.552720 -0.478025
O7    O     O_R   0.052750 0.091090 0.643890 -0.513613
O8    O     O_R   0.947250 0.908910 0.356110 -0.515872
O9    O     O_R   0.947230 0.091150 0.538450 -0.516836
O10   O     O_R   0.052770 0.908850 0.461550 -0.516379
O11   O     O_R   0.143910 0.091120 0.552710 -0.511281
O12   O     O_R   0.408880 0.447250 0.356110 -0.493280
O13   O     O_R   0.856090 0.908880 0.447290 -0.512739
O14   O     O_R   0.038380 0.091180 0.447270 -0.517120
O15   O     O_R   0.961620 0.908820 0.552730 -0.515409
O16   O     O_R   0.052740 0.643910 0.091070 -0.500704
O17   O     O_R   0.947260 0.356090 0.908930 -0.515794
O18   O     O_2   0.476451 0.257310 0.558759 -0.467730
O19   O     O_R   0.430459 0.290245 0.657722 -0.732637
O20   O     O_2   0.563877 0.785892 0.533464 -0.500866
O21   O     O_R   0.571875 0.766603 0.409950 -0.725787
O22   O     O_2   0.736317 0.679301 0.842080 -0.531662
O23   O     O_R   0.947240 0.538460 0.091150 -0.514809
O24   O     O_R   0.775115 0.734273 0.760555 -0.721920
O25   O     O_2   0.396451 0.500471 0.191094 -0.542900
O26   O     O_R   0.370200 0.366507 0.174572 -0.686852
O27   O     O_3   0.646621 0.350028 0.595523 -0.479141
O28   O     O_3   0.251494 0.545448 0.406120 -0.519231
O29   O     O_2   0.677150 0.386128 0.877565 -0.516895
O30   O     O_R   0.653437 0.310192 0.740320 -0.669117
O31   O     O_2   0.271835 0.725300 0.267473 -0.520873
O32   O     O_R   0.242829 0.680743 0.359150 -0.684864
O33   O     O_R   0.052760 0.461540 0.908850 -0.520320
O34   O     O_R   0.961590 0.552710 0.908800 -0.526024
O35   O     O_R   0.038410 0.447290 0.091200 -0.523225
O36   O     O_R   0.856080 0.447270 0.908890 -0.475285
O37   O     O_R   0.143920 0.552730 0.091110 -0.488498
O38   O     O_R   0.591210 0.447270 0.538420 -0.493390

loop_
_geom_bond_atom_site_label_1
_geom_bond_atom_site_label_2
_ccdc_geom_bond_type
C11   H18   S    
C60   O22   D    
C23   C58   S    
C66   C68   S    
C34   C56   S    
C23   C45   S    
Cu3   O11   S    
C24   H21   S    
C34   H34   S    
Cu1   Cu2   S    
C63   H70   S    
C3    C23   S    
C61   O25   D    
Cu3   Cu4   S    
C69   O29   D    
C30   C71   S    
C51   H51   S    
C2    C57   S    
C35   O37   A    
C47   C49   S    
C40   H38   S    
Cu5   Cu6   S    
C49   H11   S    
C42   H44   S    
C46   H37   S    
C58   O19   S    
C22   H20   S    
C2    H61   S    
C6    C61   S    
C4    H56   S    
C19   C21   S    
Cu5   O34   S    
C38   C42   S    
Cu1   O2    S    
C10   C15   S    
Cu1   O6    S    
C25   C40   S    
C66   H77   S    
C5    H5    S    
C11   C14   S    
C37   H35   S    
C45   C51   S    
C16   O5    A    
C55   H58   S    
C50   H32   S    
C56   C57   S    
C9    H14   S    
C36   C47   S    
C67   C72   S    
H65   O26   S    
C59   O21   S    
C65   H75   S    
C42   H47   S    
C6    C15   S    
C29   C67   S    
C12   O12   A    
C28   O10   A    
C7    H9    S    
C54   C71   S    
C33   O34   A    
C52   C54   S    
Cu3   O7    S    
C32   O17   A    
C53   H53   S    
Cu6   O35   S    
C68   H81   S    
C27   O7    A    
C24   H24   S    
C72   H3    S    
C70   O32   S    
C38   H42   S    
C25   C32   S    
C72   H60   S    
C41   H12   S    
C44   H36   S    
C26   C31   S    
C36   H29   S    
C57   H2    S    
C32   O33   A    
C68   H80   S    
C25   C44   S    
C63   H69   S    
Cu2   O5    S    
C3    H45   S    
C26   C43   S    
C62   O27   S    
C43   H48   S    
C10   C21   S    
C52   H50   S    
H64   O24   S    
C4    C34   S    
C8    C19   S    
C22   H22   S    
C31   O16   A    
Cu6   O17   S    
Cu4   O14   S    
C6    H6    S    
H82   O30   S    
C37   H30   S    
Cu1   O3    S    
C62   H66   S    
C5    C7    S    
C39   C43   S    
C21   H17   S    
C10   H15   S    
C44   H27   S    
C61   O26   S    
C13   O28   S    
C13   C24   S    
C64   H72   S    
C8    H10   S    
C41   C50   S    
C16   C45   S    
C59   O20   D    
C66   H76   S    
C9    C14   S    
C62   C63   S    
C12   O2    A    
C9    C20   S    
C12   C15   S    
C16   O3    A    
C9    H25   S    
C7    C18   S    
C31   O23   A    
C36   H33   S    
C5    C14   S    
C40   H1    S    
C57   H59   S    
Cu6   O23   S    
C37   C48   S    
Cu4   O8    S    
Cu5   O37   S    
C17   C56   S    
C45   C55   S    
C38   C47   S    
Cu4   O9    S    
C28   O8    A    
C4    H78   S    
Cu2   O38   S    
C3    H67   S    
C53   H55   S    
C13   C15   S    
C34   C59   S    
C20   C69   S    
C36   C44   S    
C1    O38   A    
C29   O14   A    
C2    C71   S    
C27   O9    A    
C30   O13   A    
Cu2   O4    S    
C35   O35   A    
C49   H31   S    
C27   C47   S    
C20   H16   S    
C28   C48   S    
C60   O24   S    
C5    C60   S    
C18   C22   S    
Cu4   O13   S    
C69   O30   S    
C55   C72   S    
C55   H84   S    
C29   O11   A    
C17   O6    A    
C25   C42   S    
C6    C8    S    
Cu2   O12   S    
C1    C14   S    
C54   H54   S    
C21   C70   S    
C11   C22   S    
C11   O27   S    
Cu5   O16   S    
C39   H43   S    
C64   H71   S    
C17   O4    A    
C51   H49   S    
C65   H74   S    
C10   H26   S    
C19   C24   S    
Cu5   O33   S    
Cu3   O15   S    
C52   H52   S    
Cu1   O1    S    
C19   C35   S    
C8    H8    S    
C40   C49   S    
C23   H23   S    
C3    C67   S    
C33   O36   A    
C70   O31   D    
C39   H41   S    
C54   H57   S    
C46   H28   S    
C48   C50   S    
C30   O15   A    
H83   O32   S    
C18   C20   S    
C13   H19   S    
C64   H73   S    
C53   C67   S    
C18   C33   S    
C2    H4    S    
C26   C46   S    
C51   C53   S    
C63   C64   S    
C38   H40   S    
C52   C56   S    
C50   H13   S    
C7    H7    S    
C65   O28   S    
C1    O1    A    
C65   C66   S    
C62   H68   S    
Cu3   O10   S    
C41   H39   S    
C58   O18   D    
H62   O19   S    
Cu6   O36   S    
H63   O21   S    
C37   C46   S    
C43   H46   S    
C4    C71   S    
C68   H79   S    
C26   C41   S    
C39   C48   S    
