data_mof_unit_39392.cif
_audit_creation_date              2012-10-26T20:14:28-0400
_audit_creation_method            fapswitch 2.2
_symmetry_space_group_name_H-M    P1
_symmetry_Int_Tables_number       1
_space_group_crystal_system       triclinic
_cell_length_a                    7.785084
_cell_length_b                    9.096761
_cell_length_c                    17.346527
_cell_angle_alpha                 89.997815
_cell_angle_beta                  86.864548
_cell_angle_gamma                 89.99952
_cell_volume                      1226.62554655

loop_
_atom_site_label
_atom_site_type_symbol
_atom_type_description
_atom_site_fract_x
_atom_site_fract_y
_atom_site_fract_z
_atom_type_partial_charge
C1    C     C_R   0.499999 0.779973 0.500003 0.553989
C2    C     C_R   0.372368 0.491535 0.227417 -0.112080
C3    C     C_R   0.626224 0.442568 0.851140 0.152685
C4    C     C_R   0.372901 0.494131 0.147059 0.152055
C5    C     C_R   0.466867 0.431996 0.893427 0.052508
C6    C     C_R   0.530465 0.513558 0.104135 0.051538
C7    C     C_R   0.312854 0.439570 0.855725 -0.151428
C8    C     C_R   0.683163 0.531850 0.142134 -0.157209
C9    C     C_R   0.315547 0.463282 0.776465 -0.144770
C10   C     C_R   0.681883 0.525168 0.222272 -0.147264
C11   C     C_2   0.457220 0.421797 0.977495 -0.098128
C12   C     C_R   0.500001 0.220027 0.499996 0.552855
C13   C     C_2   0.540375 0.518905 0.019700 -0.089857
C14   C     C_3   0.115216 0.355279 0.122950 -0.331247
C15   C     C_3   0.828287 0.277277 0.906648 -0.310000
C16   C     C_1   0.499999 0.934634 0.500001 -0.049223
C17   C     C_1   0.500001 0.065369 0.499999 -0.049221
C18   C     C_R   0.479364 0.496488 0.650311 0.541733
C19   C     C_R   0.520587 0.501038 0.349659 0.540533
C20   C     C_R   0.473102 0.479028 0.734227 -0.008165
C21   C     C_R   0.526336 0.504557 0.265304 -0.010668
C22   C     C_R   0.627721 0.468465 0.771941 -0.116288
Cu1   Cu    Cu3+1 0.330920 0.500000 0.500000 1.016401
Cu2   Cu    Cu3+1 0.669080 0.500000 0.500000 1.016568
H1    H     H_    0.190563 0.431158 0.888197 0.116560
H2    H     H_    0.013144 0.349638 0.080840 0.146729
H3    H     H_    0.053365 0.354415 0.182189 0.139108
H4    H     H_    0.198353 0.256579 0.114792 0.150464
H5    H     H_    0.886376 0.482000 0.860061 0.238680
H6    H     H_    0.947551 0.276306 0.938887 0.130816
H7    H     H_    0.850368 0.211582 0.852996 0.144545
H8    H     H_    0.724197 0.225805 0.943736 0.159885
H9    H     H_    0.803830 0.549923 0.109468 0.115336
H10   H     H_    0.750580 0.477103 0.739762 0.128334
H11   H     H_    0.250639 0.480117 0.260177 0.134897
H12   H     H_    0.801767 0.537917 0.250446 0.133482
H13   H     H_    0.194829 0.469285 0.748398 0.132979
H14   H     H_    0.624093 0.600735 0.991575 0.140403
H15   H     H_    0.375448 0.337813 0.004356 0.139776
H16   H     H_    0.141333 0.582093 0.118857 0.247204
N1    N     N_1   0.923170 0.500000 0.500010 -0.086191
N2    N     N_1   0.076830 0.500000 0.499990 -0.086198
N3    N     N_2   0.214473 0.488521 0.109897 -0.530966
N4    N     N_2   0.784712 0.427143 0.887723 -0.531703
O1    O     O_R   0.357240 0.711600 0.500000 -0.494786
O2    O     O_R   0.642760 0.288400 0.500000 -0.495777
O3    O     O_R   0.642760 0.711600 0.500000 -0.495234
O4    O     O_R   0.357240 0.288400 0.500000 -0.496097
O5    O     O_R   0.340660 0.500000 0.613590 -0.506140
O6    O     O_R   0.659340 0.500000 0.386410 -0.506236
O7    O     O_R   0.626230 0.500000 0.613600 -0.511998
O8    O     O_R   0.373770 0.500000 0.386400 -0.513189

loop_
_geom_bond_atom_site_label_1
_geom_bond_atom_site_label_2
_ccdc_geom_bond_type
C2    H11   S    
C15   N4    S    
C2    C4    A    
Cu1   Cu2   S    
C15   H7    S    
Cu1   O1    S    
C4    N3    S    
C14   H3    S    
C5    C7    A    
N1    N2    T    
C9    C20   A    
C7    H1    S    
C12   O4    A    
Cu2   O2    S    
C14   N3    S    
C2    C21   A    
C9    H13   S    
Cu1   O8    S    
C15   H8    S    
H5    N4    S    
C1    C16   S    
C14   H2    S    
C6    C13   S    
C11   H15   S    
Cu2   N1    S    
C11   C13   D    
C19   O6    A    
C1    O1    A    
C13   H14   S    
Cu1   N2    S    
Cu2   O7    S    
C6    C8    A    
C4    C6    A    
C19   C21   S    
C20   C22   A    
C18   O7    A    
C5    C11   S    
C18   C20   S    
C8    H9    S    
C10   C21   A    
Cu2   O6    S    
C22   H10   S    
C3    N4    S    
Cu1   O5    S    
C12   C17   S    
C15   H6    S    
C8    C10   A    
C7    C9    A    
C1    O3    A    
C3    C22   A    
C10   H12   S    
Cu1   O4    S    
C14   H4    S    
Cu2   O3    S    
C19   O8    A    
H16   N3    S    
C18   O5    A    
C16   C17   T    
C3    C5    A    
C12   O2    A    
