data_mof_unit_63406.cif
_audit_creation_date              2012-12-10T20:59:07-0500
_audit_creation_method            fapswitch 2.2
_symmetry_space_group_name_H-M    P1
_symmetry_Int_Tables_number       1
_space_group_crystal_system       triclinic
_cell_length_a                    13.660964
_cell_length_b                    15.095713
_cell_length_c                    15.854328
_cell_angle_alpha                 90.017336
_cell_angle_beta                  89.976395
_cell_angle_gamma                 83.076978
_cell_volume                      3245.67258052

loop_
_atom_site_label
_atom_site_type_symbol
_atom_type_description
_atom_site_fract_x
_atom_site_fract_y
_atom_site_fract_z
_atom_type_partial_charge
C1    C     C_R   0.499976 0.500028 0.661097 0.892626
C2    C     C_R   0.550932 0.946616 0.561950 0.649029
C3    C     C_1   0.500174 0.192944 0.500277 0.255514
C4    C     C_1   0.499826 0.807056 0.499723 0.255514
C5    C     C_R   0.686158 0.484212 0.499973 0.904724
C6    C     C_R   0.313841 0.515788 0.500027 0.904724
C7    C     C_1   0.210380 0.527909 0.500043 -0.139064
C8    C     C_1   0.789620 0.472091 0.499957 -0.139064
C9    C     C_2   0.019235 0.538406 0.500058 0.484951
C10   C     C_2   0.980765 0.461594 0.499942 0.484951
C11   C     C_1   0.877154 0.464171 0.499946 0.038539
C12   C     C_R   0.500024 0.499972 0.338903 0.892626
C13   C     C_1   0.122846 0.535829 0.500054 0.038539
C14   C     C_R   0.505304 0.419094 0.043976 -0.333823
C15   C     C_R   0.494696 0.580906 0.956024 -0.333823
C16   C     C_R   0.499984 0.500292 0.086899 -0.099524
C17   C     C_R   0.500016 0.499708 0.913101 -0.099524
C18   C     C_R   0.494673 0.581303 0.043498 0.685411
C19   C     C_R   0.505327 0.418696 0.956502 0.685411
C20   C     C_1   0.500002 0.500104 0.175711 0.100464
C21   C     C_1   0.499998 0.499896 0.824289 0.100464
C22   C     C_3   0.607924 0.082981 0.631407 -0.690927
C23   C     C_1   0.499984 0.500014 0.749470 -0.128636
C24   C     C_3   0.392076 0.917019 0.368593 -0.690927
C25   C     C_1   0.500015 0.499986 0.250530 -0.128636
C26   C     C_R   0.552013 0.040626 0.563326 -0.032551
C27   C     C_R   0.447987 0.959374 0.436674 -0.032551
C28   C     C_R   0.500619 0.094852 0.500808 -0.197751
C29   C     C_R   0.499381 0.905148 0.499192 -0.197751
C30   C     C_R   0.449068 0.053384 0.438050 0.649029
F1    F     F_    0.038301 0.381394 0.499819 -0.641294
F2    F     F_    0.961699 0.618606 0.500181 -0.641294
F3    F     F_    0.510485 0.339958 0.914316 -0.630169
F4    F     F_    0.489515 0.660042 0.085684 -0.630169
F5    F     F_    0.600362 0.894917 0.622065 -0.636143
F6    F     F_    0.399638 0.105083 0.377935 -0.636143
H1    H     H_    0.509402 0.356557 0.078124 0.211262
H2    H     H_    0.490598 0.643443 0.921876 0.211262
H3    H     H_    0.644748 0.033182 0.676153 0.291376
H4    H     H_    0.665516 0.119142 0.602315 0.228233
H5    H     H_    0.556390 0.130989 0.667962 0.237198
H6    H     H_    0.355252 0.966818 0.323847 0.291376
H7    H     H_    0.443610 0.869011 0.332038 0.237198
H8    H     H_    0.334484 0.880858 0.397685 0.228233
N1    N     N_1   0.500030 0.729450 0.499980 -0.082828
N2    N     N_1   0.499970 0.270550 0.500020 -0.082828
O1    O     O_R   0.500000 0.426350 0.621980 -0.601636
O2    O     O_R   0.500000 0.573650 0.378020 -0.601636
O3    O     O_R   0.499960 0.573690 0.621980 -0.601212
O4    O     O_R   0.500040 0.426310 0.378020 -0.601211
O5    O     O_R   0.640370 0.415730 0.499980 -0.613749
O6    O     O_R   0.359630 0.584270 0.500020 -0.613749
O7    O     O_R   0.640330 0.563060 0.499980 -0.583710
O8    O     O_R   0.359670 0.436940 0.500020 -0.583710
Zn1   Zn    Zn3+2 0.500030 0.401620 0.500000 1.033691
Zn2   Zn    Zn3+2 0.499970 0.598380 0.500000 1.033691

loop_
_geom_bond_atom_site_label_1
_geom_bond_atom_site_label_2
_ccdc_geom_bond_type
N2    Zn1   S    
C2    F5    S    
C15   C18   A    
C12   O4    A    
C15   H2    S    
C6    C7    S    
C5    C8    S    
O3    Zn2   S    
C24   H6    S    
C9    C10   D    
C3    N2    T    
C26   C28   A    
C4    C29   S    
O2    Zn2   S    
C24   C27   S    
C30   F6    S    
C12   C25   S    
C16   C20   S    
C22   H4    S    
C28   C30   A    
O1    Zn1   S    
C2    C26   A    
C14   H1    S    
C18   F4    S    
C6    O8    A    
C8    C11   T    
C22   H3    S    
C10   F1    S    
C5    O7    A    
C3    C28   S    
C17   C19   A    
C12   O2    A    
C1    C23   S    
O5    Zn1   S    
C4    N1    T    
C21   C23   T    
C19   F3    S    
C24   H8    S    
C14   C16   A    
C22   H5    S    
C27   C29   A    
C10   C11   S    
O6    Zn2   S    
C7    C13   T    
C2    C29   A    
C16   C18   A    
C22   C26   S    
O7    Zn2   S    
C15   C17   A    
C24   H7    S    
C9    C13   S    
O8    Zn1   S    
C5    O5    A    
C9    F2    S    
C6    O6    A    
C1    O3    A    
C14   C19   A    
C1    O1    A    
O4    Zn1   S    
N1    Zn2   S    
C27   C30   A    
C20   C25   T    
C17   C21   S    
