data_mof_unit_42165.cif
_audit_creation_date              2012-12-11T14:46:06-0500
_audit_creation_method            fapswitch 2.2
_symmetry_space_group_name_H-M    P1
_symmetry_Int_Tables_number       1
_space_group_crystal_system       triclinic
_cell_length_a                    11.070425
_cell_length_b                    10.987162
_cell_length_c                    18.741935
_cell_angle_alpha                 90.093161
_cell_angle_beta                  90.685903
_cell_angle_gamma                 120.645292
_cell_volume                      1961.03524808

loop_
_atom_site_label
_atom_site_type_symbol
_atom_type_description
_atom_site_fract_x
_atom_site_fract_y
_atom_site_fract_z
_atom_type_partial_charge
C1    C     C_R   0.865223 0.639864 0.603062 0.575622
C2    C     C_R   0.414228 0.623740 0.778515 -0.115048
C3    C     C_R   0.399027 0.620313 0.705833 -0.134407
C4    C     C_R   0.320717 0.673500 0.675766 0.023130
C5    C     C_R   0.850196 0.188111 0.830009 -0.025491
C6    C     C_R   0.092554 0.250490 0.840884 -0.076957
C7    C     C_R   0.216272 0.274105 0.811129 0.110972
C8    C     C_R   0.227808 0.275826 0.737335 -0.086612
C9    C     C_R   0.113926 0.249589 0.693273 -0.122453
C10   C     C_R   0.983375 0.219820 0.722240 -0.006770
C11   C     C_R   0.975212 0.218623 0.797818 -0.028440
C12   C     C_R   0.270105 0.633339 0.603713 0.545241
C13   C     C_R   0.733937 0.148625 0.716461 -0.025905
C14   C     C_R   0.742855 0.188787 0.788170 0.043459
C15   C     C_R   0.602324 0.084584 0.681271 -0.060716
C16   C     C_R   0.491903 0.094232 0.709723 0.095230
C17   C     C_R   0.510680 0.160857 0.775547 -0.096075
C18   C     C_R   0.635642 0.212220 0.815641 0.043428
C19   C     C_R   0.858739 0.184316 0.680236 -0.041354
C20   C     C_R   0.714278 0.557107 0.709147 -0.178517
C21   C     C_R   0.693496 0.578640 0.779722 -0.174493
C22   C     C_R   0.777356 0.710365 0.812994 -0.003384
C23   C     C_R   0.865497 0.231038 0.604782 0.537219
C24   C     C_R   0.869763 0.825813 0.771787 -0.121762
C25   C     C_R   0.889420 0.806300 0.700293 0.087375
C26   C     C_R   0.817782 0.669168 0.670024 0.058788
C27   C     C_R   0.385327 0.581153 0.293056 0.063978
C28   C     C_R   0.450532 0.624859 0.227940 0.107223
C29   C     C_R   0.440601 0.726757 0.188064 0.014826
C30   C     C_R   0.415006 0.822733 0.223900 -0.168078
C31   C     C_R   0.375734 0.799629 0.295330 -0.164487
C32   C     C_R   0.347484 0.673354 0.328325 0.004493
C33   C     C_R   0.725115 0.154555 0.286720 -0.151058
C34   C     C_R   0.904916 0.613166 0.389281 0.581444
C35   C     C_R   0.727679 0.153995 0.214069 -0.164071
C36   C     C_R   0.834688 0.147174 0.178054 0.060668
C37   C     C_R   0.944869 0.148336 0.217058 0.092577
C38   C     C_R   0.945670 0.157820 0.291543 -0.115035
C39   C     C_R   0.838383 0.166477 0.325895 0.016463
C40   C     C_R   0.988101 0.737713 0.271980 0.105022
C41   C     C_R   0.981953 0.734196 0.197111 0.042797
C42   C     C_R   0.850842 0.638207 0.163473 0.009073
C43   C     C_R   0.760390 0.513099 0.199543 -0.161592
C44   C     C_R   0.782752 0.501840 0.272552 -0.156355
C45   C     C_R   0.271834 0.632811 0.396239 0.535434
C46   C     C_R   0.888890 0.618671 0.310682 0.045101
C47   C     C_R   0.808816 0.109380 0.897670 0.524297
C48   C     C_R   0.396004 0.700450 0.896389 0.544951
C49   C     C_R   0.772518 0.731397 0.889986 0.564447
C50   C     C_R   0.806421 0.104191 0.103464 0.550540
C51   C     C_R   0.463021 0.730694 0.110758 0.568118
C52   C     C_R   0.805184 0.687274 0.099673 0.528098
C53   C     C_R   0.859946 0.225973 0.396999 0.542731
C54   C     C_R   0.265255 0.738516 0.718779 -0.111405
C55   C     C_R   0.288790 0.749646 0.791976 -0.130319
C56   C     C_R   0.359774 0.687613 0.821848 0.034544
Cr1   Cr    Cr6+3 0.791660 0.390250 0.499930 1.003812
Cr2   Cr    Cr6+3 0.098520 0.708290 0.500540 1.030187
Cr3   Cr    Cr6+3 0.109770 0.401430 0.499480 0.989793
Cr4   Cr    Cr6+3 0.874790 0.925890 0.000070 0.995233
Cr5   Cr    Cr6+3 0.574120 0.948670 0.999300 0.974019
Cr6   Cr    Cr6+3 0.551420 0.625320 0.000920 0.961247
H1    H     H_    0.198013 0.774135 0.696497 0.172885
H2    H     H_    0.587799 0.033663 0.629750 0.126555
H3    H     H_    0.425423 0.169703 0.795563 0.157895
H4    H     H_    0.654061 0.451454 0.686546 0.140607
H5    H     H_    0.612273 0.491730 0.807868 0.147639
H6    H     H_    0.929974 0.930366 0.795605 0.139877
H7    H     H_    0.426093 0.914760 0.197022 0.123122
H8    H     H_    0.247931 0.801072 0.825028 0.123607
H9    H     H_    0.361928 0.876776 0.323965 0.122025
H10   H     H_    0.638705 0.157276 0.311670 0.130557
H11   H     H_    0.640468 0.152730 0.186514 0.130692
H12   H     H_    0.031625 0.163409 0.322339 0.112756
H13   H     H_    0.667733 0.429232 0.172995 0.119710
H14   H     H_    0.711196 0.406229 0.300351 0.127938
H15   H     H_    0.467502 0.574631 0.801473 0.151999
H16   H     H_    0.440101 0.567743 0.673749 0.126938
H17   H     H_    0.324876 0.295574 0.713874 0.112422
H18   H     H_    0.089785 0.258625 0.898360 0.126223
H19   H     H_    0.129410 0.241328 0.637411 0.161110
O1    O     O_R   0.766500 0.250040 0.579790 -0.515298
O2    O     O_R   0.218690 0.701900 0.425960 -0.509805
O3    O     O_R   0.249490 0.516440 0.419420 -0.547329
O4    O     O_R   0.982880 0.281910 0.424890 -0.509398
O5    O     O_3   0.999980 0.499990 0.499980 -0.269496
O6    O     O_R   0.895110 0.806860 0.920430 -0.524626
O7    O     O_R   0.872260 0.046970 0.925000 -0.525975
O8    O     O_R   0.691430 0.085060 0.918550 -0.518995
O9    O     O_R   0.451490 0.822460 0.925250 -0.493024
O10   O     O_R   0.413330 0.603360 0.920440 -0.547256
O11   O     O_R   0.676110 0.626250 0.926750 -0.523518
O12   O     O_R   0.798570 0.516780 0.574780 -0.511887
O13   O     O_R   0.895350 0.809870 0.080950 -0.506080
O14   O     O_R   0.872490 0.049760 0.073800 -0.463867
O15   O     O_R   0.691680 0.088070 0.079070 -0.553027
O16   O     O_R   0.451720 0.825250 0.074050 -0.518666
O17   O     O_R   0.413580 0.606370 0.080960 -0.528471
O18   O     O_R   0.676340 0.629040 0.075550 -0.533091
O19   O     O_3   0.666780 0.833290 0.000090 -0.273334
O20   O     O_R   0.984000 0.732950 0.581090 -0.474069
O21   O     O_R   0.218600 0.700890 0.574760 -0.516824
O22   O     O_R   0.249390 0.515350 0.579940 -0.522973
O23   O     O_R   0.982790 0.280900 0.573700 -0.509575
O24   O     O_R   0.766600 0.251130 0.419260 -0.535911
O25   O     O_R   0.798660 0.517790 0.425980 -0.512540
O26   O     O_R   0.984100 0.734040 0.420570 -0.464167
N1    N     N_3   0.363615 0.046172 0.670039 -0.649060
H20   H     H_    0.362115 0.990675 0.624339 0.238038
H21   H     H_    0.363165 0.135701 0.651838 0.215212
N2    N     N_3   0.984406 0.925068 0.658722 -0.602470
H22   H     H_    0.078863 0.983048 0.687264 0.247925
H23   H     H_    0.938506 0.986346 0.650199 0.226180
C57   C     C_3   0.353280 0.436196 0.322768 -0.210437
C58   C     C_3   0.380452 0.336438 0.277713 -0.454674
H24   H     H_    0.339955 0.327197 0.222458 0.151717
H25   H     H_    0.493226 0.371828 0.277792 0.179642
H26   H     H_    0.326074 0.229303 0.301663 0.109181
H27   H     H_    0.410779 0.453023 0.374287 0.173195
H28   H     H_    0.238529 0.372580 0.330753 0.169118
N3    N     N_3   0.550059 0.586658 0.209390 -0.636051
H29   H     H_    0.644575 0.680586 0.201077 0.246546
H30   H     H_    0.513370 0.520668 0.164689 0.267373
N4    N     N_3   0.054828 0.141365 0.181008 -0.615123
H31   H     H_    0.116037 0.238026 0.155417 0.226837
H32   H     H_    0.119923 0.129961 0.217559 0.197489
N5    N     N_3   0.081195 0.868374 0.308565 -0.596374
H33   H     H_    0.060130 0.945589 0.290695 0.226587
H34   H     H_    0.185519 0.901320 0.299349 0.207700
C59   C     C_3   0.113179 0.835000 0.155271 -0.257275
C60   C     C_3   0.140067 0.760001 0.093949 -0.398957
H35   H     H_    0.162348 0.679187 0.115445 0.165469
H36   H     H_    0.049663 0.707229 0.056248 0.160536
H37   H     H_    0.231562 0.839170 0.063327 0.159867
H38   H     H_    0.110595 0.928998 0.136193 0.190792
H39   H     H_    0.207769 0.880093 0.189458 0.113245
N6    N     N_3   0.328361 0.290378 0.856263 -0.696601
H40   H     H_    0.351489 0.369238 0.893846 0.263249
H41   H     H_    0.291563 0.196516 0.884800 0.211943
C61   C     C_3   0.650622 0.296331 0.884256 -0.246050
C62   C     C_3   0.800435 0.417309 0.900750 -0.407569
H42   H     H_    0.867062 0.377158 0.922086 0.140603
H43   H     H_    0.849500 0.480757 0.852353 0.163919
H44   H     H_    0.798282 0.486978 0.942906 0.169540
H45   H     H_    0.581819 0.341002 0.881252 0.140559
H46   H     H_    0.605464 0.228401 0.931492 0.172032

loop_
_geom_bond_atom_site_label_1
_geom_bond_atom_site_label_2
_ccdc_geom_bond_type
C51   O16   A    
Cr1   O24   S    
C55   C56   A    
C23   O1    A    
C41   C42   A    
C14   C18   A    
C35   C36   A    
C60   H37   S    
N5    H34   S    
C57   C58   S    
Cr4   O7    S    
Cr5   O15   S    
C7    C8    A    
C24   H6    S    
C39   C53   S    
N1    H20   S    
C40   C46   A    
N6    H41   S    
C33   C39   A    
Cr3   O23   S    
C20   H4    S    
C28   C29   A    
C5    C11   A    
C62   H43   S    
C29   C51   S    
C38   C39   A    
C50   O14   A    
Cr1   O12   S    
C54   H1    S    
C15   C16   A    
Cr1   O5    S    
Cr2   O26   S    
C32   C45   S    
C44   H14   S    
C49   O6    A    
C33   H10   S    
Cr6   O17   S    
C62   H42   S    
C35   H11   S    
C59   H38   S    
Cr5   O8    S    
C8    C9    A    
C58   H25   S    
C48   O10   A    
Cr6   O11   S    
C8    H17   S    
C15   H2    S    
C52   O13   A    
Cr2   O21   S    
C4    C12   S    
C29   C30   A    
C9    C10   A    
C57   H27   S    
C51   O17   A    
C31   H9    S    
Cr1   O25   S    
C48   O9    A    
C21   C22   A    
C21   H5    S    
C47   O8    A    
C45   O2    A    
Cr2   O5    S    
Cr4   O6    S    
C44   C46   A    
Cr4   O14   S    
C43   H13   S    
Cr5   O16   S    
C13   C19   A    
C34   O25   A    
C24   C25   A    
C12   O22   A    
C62   H44   S    
C61   H46   S    
C6    C11   A    
C7    N6    S    
C25   N2    S    
C28   N3    S    
C16   C17   A    
C60   H36   S    
C25   C26   A    
C40   N5    S    
C19   C23   S    
C43   C44   A    
Cr3   O4    S    
C12   O21   A    
C37   C38   A    
C37   N4    S    
C5    C47   S    
C6    H18   S    
C23   O23   A    
C10   C19   A    
C58   H26   S    
Cr6   O10   S    
C17   C18   A    
C5    C14   A    
N2    H23   S    
Cr2   O20   S    
C61   C62   S    
C18   C61   S    
N3    H29   S    
C22   C49   S    
C34   C46   S    
C40   C41   A    
C13   C15   A    
C1    C26   S    
Cr6   O19   S    
Cr5   O19   S    
C42   C43   A    
C34   O26   A    
C49   O11   A    
C3    C4    A    
C1    O20   A    
C30   H7    S    
C36   C50   S    
Cr5   O9    S    
N4    H32   S    
C38   H12   S    
C48   C56   S    
C54   C55   A    
C36   C37   A    
N2    H22   S    
C4    C54   A    
C27   C32   A    
C31   C32   A    
C59   H39   S    
Cr4   O19   S    
C61   H45   S    
C6    C7    A    
N6    H40   S    
C52   O18   A    
C17   H3    S    
Cr3   O3    S    
Cr3   O22   S    
C47   O7    A    
C59   C60   S    
Cr3   O5    S    
C2    H15   S    
C2    C56   A    
Cr2   O2    S    
C30   C31   A    
C50   O15   A    
C58   H24   S    
C41   C59   S    
C20   C26   A    
C33   C35   A    
N1    H21   S    
C2    C3    A    
C22   C24   A    
C60   H35   S    
N3    H30   S    
C55   H8    S    
C10   C11   A    
C16   N1    S    
Cr6   O18   S    
C45   O3    A    
C27   C57   S    
C53   O24   A    
C20   C21   A    
C1    O12   A    
C9    H19   S    
C27   C28   A    
Cr1   O1    S    
C53   O4    A    
C13   C14   A    
C3    H16   S    
C57   H28   S    
N5    H33   S    
C42   C52   S    
N4    H31   S    
Cr4   O13   S    
