data_mof_unit_28435.cif
_audit_creation_date              2012-12-10T16:53:08-0500
_audit_creation_method            fapswitch 2.2
_symmetry_space_group_name_H-M    P1
_symmetry_Int_Tables_number       1
_space_group_crystal_system       triclinic
_cell_length_a                    10.873309
_cell_length_b                    10.932037
_cell_length_c                    9.653583
_cell_angle_alpha                 90.033671
_cell_angle_beta                  89.486819
_cell_angle_gamma                 90.188429
_cell_volume                      1147.44405811

loop_
_atom_site_label
_atom_site_type_symbol
_atom_type_description
_atom_site_fract_x
_atom_site_fract_y
_atom_site_fract_z
_atom_type_partial_charge
C1    C     C_R   0.498522 0.265233 0.500017 0.851071
C2    C     C_R   0.060549 0.496886 0.631563 0.076297
C3    C     C_R   0.126792 0.523497 0.506313 -0.150505
C4    C     C_R   0.060208 0.549695 0.383544 0.086390
C5    C     C_R   0.933514 0.532593 0.384387 -0.241948
C6    C     C_R   0.871649 0.487249 0.500782 -0.144310
C7    C     C_2   0.498850 0.932962 0.386121 -0.164761
C8    C     C_2   0.507655 0.866728 0.502324 -0.319514
C9    C     C_2   0.504215 0.066937 0.386134 -0.162350
C10   C     C_2   0.492337 0.133293 0.502204 -0.320168
C11   C     C_2   0.423908 0.434577 0.922701 -0.092476
C12   C     C_R   0.262025 0.510364 0.501362 0.792575
C13   C     C_2   0.427304 0.430818 0.078625 -0.090217
C14   C     C_R   0.501607 0.734772 0.500096 0.846069
C15   C     C_R   0.737496 0.491645 0.499867 0.808822
C16   C     C_R   0.110929 0.508971 0.766051 -0.190078
C17   C     C_R   0.049740 0.463476 0.882450 -0.196748
C18   C     C_R   0.936283 0.405165 0.869226 0.147192
C19   C     C_R   0.881263 0.401500 0.738779 -0.183864
C20   C     C_R   0.936954 0.459726 0.622788 0.070252
Cu1   Cu    Cu3+1 0.500020 0.500020 0.638630 0.926142
Cu2   Cu    Cu3+1 0.499980 0.499980 0.361370 0.926107
H1    H     H_    0.475233 0.092351 0.602530 0.145250
H2    H     H_    0.355087 0.378905 0.871660 0.159914
H3    H     H_    0.567543 0.547548 0.893378 0.194616
H4    H     H_    0.364877 0.368125 0.130924 0.149871
H5    H     H_    0.554411 0.561945 0.105407 0.189525
H6    H     H_    0.193320 0.560870 0.786096 0.176767
H7    H     H_    0.091285 0.473883 0.983092 0.124170
H8    H     H_    0.794468 0.353834 0.729473 0.150362
H9    H     H_    0.881681 0.557722 0.293435 0.156560
H10   H     H_    0.489444 0.888105 0.286322 0.167494
H11   H     H_    0.522337 0.907796 0.602797 0.147403
H12   H     H_    0.516614 0.111679 0.286483 0.163099
N1    N     N_2   0.498640 0.498660 0.846910 -0.287282
N2    N     N_2   0.498610 0.498630 0.153040 -0.284640
O1    O     O_R   0.500020 0.321960 0.617040 -0.582202
O2    O     O_R   0.499980 0.321920 0.382900 -0.572152
O3    O     O_R   0.319670 0.500020 0.617100 -0.588979
O4    O     O_R   0.319630 0.499980 0.382950 -0.575141
O5    O     O_R   0.500020 0.678080 0.617100 -0.579610
O6    O     O_R   0.499980 0.678040 0.382960 -0.577241
O7    O     O_R   0.680370 0.500020 0.617050 -0.584260
O8    O     O_R   0.680330 0.499980 0.382900 -0.582474
C21   C     C_3   0.117257 0.603284 0.252076 -0.385205
C22   C     C_3   0.173663 0.730242 0.277480 -0.304028
C23   C     C_3   0.238050 0.778334 0.147269 -0.844601
H13   H     H_    0.315539 0.717366 0.117740 0.263141
H14   H     H_    0.172273 0.783573 0.060090 0.246310
H15   H     H_    0.275082 0.871379 0.167321 0.234140
H16   H     H_    0.099624 0.794992 0.308167 0.207500
H17   H     H_    0.241462 0.727455 0.362574 0.219683
H18   H     H_    0.184618 0.539364 0.205287 0.216244
H19   H     H_    0.046242 0.614578 0.170906 0.172789
C24   C     C_3   0.868986 0.357937 0.995940 -0.415343
C25   C     C_3   0.936831 0.250608 0.062615 -0.348724
C26   C     C_3   0.867945 0.204515 0.190961 -0.819283
H20   H     H_    0.860112 0.278529 0.269410 0.260148
H21   H     H_    0.774353 0.172436 0.162929 0.250753
H22   H     H_    0.918867 0.126941 0.237182 0.236656
H23   H     H_    0.945407 0.174532 0.986691 0.219938
H24   H     H_    0.030695 0.279596 0.093748 0.213170
H25   H     H_    0.859732 0.433876 0.071924 0.193761
H26   H     H_    0.774376 0.327928 0.968633 0.197917

loop_
_geom_bond_atom_site_label_1
_geom_bond_atom_site_label_2
_ccdc_geom_bond_type
C13   N2    D    
C12   O4    A    
C21   C22   S    
C24   C25   S    
C16   H6    S    
Cu1   N1    S    
H5    N2    S    
C2    C16   A    
C9    C10   D    
C11   H2    S    
C23   H13   S    
Cu1   O3    S    
C1    O1    A    
C14   O6    A    
Cu2   O4    S    
C24   H26   S    
C12   O3    A    
C11   N1    D    
C2    C3    A    
C3    C12   S    
C15   O7    A    
C7    C8    D    
C23   H14   S    
Cu2   O6    S    
Cu1   Cu2   S    
C11   C13   S    
C26   H20   S    
C5    C6    A    
Cu2   O8    S    
C18   C24   S    
H3    N1    S    
C14   O5    A    
Cu1   O5    S    
C1    O2    A    
C21   H19   S    
C17   C18   A    
C23   H15   S    
C4    C21   S    
C9    H12   S    
C10   H1    S    
C25   H24   S    
C13   H4    S    
C26   H21   S    
C16   C17   A    
C2    C20   A    
C3    C4    A    
Cu2   O2    S    
C22   H17   S    
C17   H7    S    
C6    C20   A    
C25   C26   S    
Cu1   O1    S    
C18   C19   A    
C7    C9    S    
C15   O8    A    
C22   C23   S    
C4    C5    A    
C26   H22   S    
C8    C14   S    
C7    H10   S    
C6    C15   S    
Cu1   O7    S    
C19   H8    S    
C22   H16   S    
C21   H18   S    
Cu2   N2    S    
C1    C10   S    
C19   C20   A    
C24   H25   S    
C8    H11   S    
C5    H9    S    
C25   H23   S    
