data_mof_unit_26774.cif
_audit_creation_date              2013-03-05T16:34:32-0500
_audit_creation_method            fapswitch 2.2
_symmetry_space_group_name_H-M    P1
_symmetry_Int_Tables_number       1
_space_group_crystal_system       triclinic
_cell_length_a                    12.999554
_cell_length_b                    9.095666
_cell_length_c                    7.792805
_cell_angle_alpha                 89.998739
_cell_angle_beta                  96.179142
_cell_angle_gamma                 89.991081
_cell_volume                      916.064902609

loop_
_atom_site_label
_atom_site_type_symbol
_atom_site_description
_atom_site_fract_x
_atom_site_fract_y
_atom_site_fract_z
_atom_type_partial_charge
O1    O     O_R   0.500000 0.288400 0.642760 -0.572670
O2    O     O_R   0.500000 0.711600 0.357240 -0.572646
O3    O     O_R   0.500000 0.288400 0.357240 -0.579512
O4    O     O_R   0.500000 0.711600 0.642760 -0.579516
N1    N     N_1   0.499980 0.500000 0.076820 -0.012503
N2    N     N_1   0.500020 0.500000 0.923180 -0.012499
C1    C     C_R   0.499993 0.220055 0.500001 0.840690
C2    C     C_R   0.500006 0.779945 0.499999 0.840727
O5    O     O_R   0.349000 0.500000 0.619590 -0.589273
O6    O     O_R   0.651000 0.500000 0.380410 -0.589291
O7    O     O_R   0.348990 0.500000 0.334020 -0.523824
O8    O     O_R   0.651010 0.500000 0.665980 -0.523809
C3    C     C_R   0.300153 0.502522 0.467977 0.864415
C4    C     C_R   0.699847 0.497478 0.532024 0.864387
Cu1   Cu    Cu3+1 0.500010 0.500000 0.669080 1.091219
Cu2   Cu    Cu3+1 0.499990 0.500000 0.330920 1.091225
C5    C     C_R   0.812238 0.489045 0.550792 -0.242335
C6    C     C_R   0.187766 0.510983 0.449220 -0.242356
C7    C     C_R   0.026586 0.596842 0.296389 0.299530
C8    C     C_R   0.973433 0.403348 0.703743 0.299358
C9    C     C_R   0.134291 0.584956 0.309379 0.595932
C10   C     C_R   0.865723 0.415190 0.690721 0.595816
C11   C     C_R   0.134499 0.448957 0.577177 -0.203780
C12   C     C_R   0.865502 0.551056 0.422821 -0.203820
C13   C     C_R   0.027359 0.463172 0.571414 -0.076578
C14   C     C_R   0.972649 0.536915 0.428640 -0.076651
H1    H     H_    0.822101 0.611544 0.319637 0.225563
H2    H     H_    0.177894 0.388387 0.680297 0.225510
C15   C     C_1   0.499999 0.065376 0.500003 -0.121987
C16   C     C_1   0.500001 0.934624 0.499997 -0.121974
F1    F     F_    0.813256 0.354558 0.814875 -0.585180
F2    F     F_    0.186763 0.645712 0.185308 -0.585147
N3    N     N_R   0.973458 0.669084 0.148443 0.144762
O9    O     O_R   0.007055 0.794487 0.096565 -0.245040
O10   O     O_R   0.901595 0.600068 0.050844 -0.309261
N4    N     N_R   0.026599 0.331459 0.851935 0.144706
O11   O     O_R   0.098565 0.400660 0.949126 -0.309301
O12   O     O_R   0.992932 0.206312 0.904473 -0.244889

loop_
_geom_bond_atom_site_label_1
_geom_bond_atom_site_label_2
_geom_bond_distance
_ccdc_geom_bond_type
C12   H1    1.081574 S    
C15   C16   1.189274 T    
O1    Cu1   1.935545 S    
C6    C9    1.400092 A    
O2    Cu2   1.935544 S    
O7    Cu2   1.965680 S    
C5    C10   1.400126 A    
O8    Cu1   1.965680 S    
O4    C2    1.274405 A    
C2    C16   1.406914 S    
O4    Cu1   1.935535 S    
N4    O12   1.301383 A    
N3    O9    1.301286 A    
O5    Cu1   1.959431 S    
C13   C14   1.422350 A    
O6    Cu2   1.959431 S    
C11   H2    1.081574 S    
O7    C3    1.279045 A    
C4    C5    1.454592 S    
C3    C6    1.454568 S    
C1    C15   1.406914 S    
N4    O11   1.301040 A    
C7    C9    1.397031 A    
O8    C4    1.279043 A    
O3    C1    1.274405 A    
C11   C13   1.394647 A    
C7    N3    1.437490 S    
N1    N2    1.197343 T    
C12   C14   1.394632 A    
C9    F2    1.359254 S    
C5    C12   1.393139 A    
C10   F1    1.359247 S    
C6    C11   1.393124 A    
C8    N4    1.437655 S    
O6    C4    1.279912 A    
C7    C14   1.416517 A    
O5    C3    1.279899 A    
N1    Cu2   1.980137 S    
N3    O10   1.300956 A    
N2    Cu1   1.980137 S    
O1    C1    1.274394 A    
O2    C2    1.274393 A    
O3    Cu2   1.935536 S    
Cu1   Cu2   2.635188 S    
C8    C10   1.397061 A    
C8    C13   1.416548 A    
