data_mof_unit_20708.cif
_audit_creation_date              2013-03-05T15:42:40-0500
_audit_creation_method            fapswitch 2.2
_symmetry_space_group_name_H-M    P1
_symmetry_Int_Tables_number       1
_space_group_crystal_system       triclinic
_cell_length_a                    7.752605
_cell_length_b                    8.660203
_cell_length_c                    27.75719
_cell_angle_alpha                 91.48355
_cell_angle_beta                  85.340808
_cell_angle_gamma                 93.57701
_cell_volume                      1853.41067569

loop_
_atom_site_label
_atom_site_type_symbol
_atom_site_description
_atom_site_fract_x
_atom_site_fract_y
_atom_site_fract_z
_atom_type_partial_charge
O1    O     O_R   0.389250 0.738570 0.503220 -0.600208
O2    O     O_R   0.610750 0.261430 0.496780 -0.600209
O3    O     O_R   0.678390 0.711630 0.494810 -0.562547
O4    O     O_R   0.321610 0.288370 0.505190 -0.562543
C1    C     C_R   0.545112 0.794000 0.498183 0.841364
C2    C     C_R   0.454888 0.206001 0.501817 0.841373
O5    O     O_R   0.355440 0.513440 0.575450 -0.550930
O6    O     O_R   0.644560 0.486560 0.424550 -0.550931
O7    O     O_R   0.644590 0.486500 0.567040 -0.540059
O8    O     O_R   0.355410 0.513500 0.432960 -0.540084
C3    C     C_R   0.501389 0.499071 0.594041 0.971278
C4    C     C_R   0.498612 0.500934 0.405958 0.971267
Zn1   Zn    Zn3+2 0.306940 0.517990 0.505620 1.263222
Zn2   Zn    Zn3+2 0.693060 0.482010 0.494380 1.263229
C5    C     C_R   0.565449 0.620584 0.821300 0.704039
C6    C     C_R   0.434598 0.379435 0.178696 0.704214
O9    O     O_2   0.627902 0.743408 0.794879 -0.413055
O10   O     O_2   0.372198 0.256591 0.205114 -0.413004
N1    N     N_R   0.506911 0.488322 0.798493 -0.321328
N2    N     N_R   0.493092 0.511710 0.201505 -0.321330
C7    C     C_R   0.437518 0.362695 0.823495 0.655712
C8    C     C_R   0.562451 0.637353 0.176504 0.655535
C9    C     C_R   0.350677 0.501604 0.726469 -0.233798
C10   C     C_R   0.649385 0.498810 0.273535 -0.233768
C11   C     C_R   0.348355 0.506002 0.676643 0.646417
C12   C     C_R   0.651710 0.494420 0.323360 0.646341
C13   C     C_R   0.660359 0.477962 0.668249 0.536679
C14   C     C_R   0.339570 0.521680 0.331748 0.536672
C15   C     C_R   0.661019 0.473896 0.718280 0.654523
C16   C     C_R   0.338908 0.525763 0.281717 0.654504
C17   C     C_R   0.506306 0.486030 0.747233 -0.071605
C18   C     C_R   0.493686 0.514008 0.252767 -0.071694
C19   C     C_R   0.495908 0.497716 0.898438 -0.149538
C20   C     C_R   0.504107 0.502319 0.101559 -0.149555
C21   C     C_R   0.558954 0.628928 0.871905 -0.275082
C22   C     C_R   0.441086 0.371097 0.128090 -0.275114
C23   C     C_R   0.602662 0.766964 0.896615 0.590767
C24   C     C_R   0.397397 0.233058 0.103379 0.590772
C25   C     C_R   0.428793 0.365724 0.873956 -0.090704
C26   C     C_R   0.571192 0.634319 0.126042 -0.090660
C27   C     C_R   0.503648 0.494699 0.646836 -0.475009
C28   C     C_R   0.496353 0.505322 0.353164 -0.475101
C29   C     C_R   0.574006 0.631927 0.024329 0.018674
C30   C     C_R   0.426008 0.368112 0.975668 0.018684
C31   C     C_R   0.440291 0.364984 0.026228 -0.140421
C32   C     C_R   0.559736 0.635051 0.973768 -0.140425
C33   C     C_R   0.504031 0.500439 0.050537 -0.047586
C34   C     C_R   0.495987 0.499596 0.949460 -0.047583
C35   C     C_R   0.666310 0.750595 0.049634 0.725662
C36   C     C_R   0.333687 0.249451 0.950364 0.725654
C37   C     C_R   0.655880 0.755548 0.099728 -0.145840
C38   C     C_R   0.344095 0.244503 0.900271 -0.145867
O11   O     O_2   0.623023 0.764340 0.200529 -0.476377
O12   O     O_2   0.376888 0.235728 0.799468 -0.476310
C39   C     C_R   0.594650 0.771853 0.946733 0.640327
C40   C     C_R   0.405394 0.228176 0.053261 0.640346
H1    H     H_    0.768703 0.488857 0.250798 0.246502
H2    H     H_    0.231415 0.511854 0.749209 0.246387
H3    H     H_    0.722933 0.851241 0.117755 0.230931
H4    H     H_    0.277024 0.148817 0.882246 0.230930
C41   C     C_2   0.569364 0.955848 0.500635 -0.006569
C42   C     C_2   0.430636 0.044152 0.499367 -0.006553
N3    N     N_2   0.950320 0.457960 0.486880 0.293077
N4    N     N_2   0.049680 0.542040 0.513120 0.293060
F1    F     F_    0.812978 0.465940 0.641141 -0.498935
F2    F     F_    0.186880 0.533288 0.358853 -0.498763
F3    F     F_    0.031342 0.358980 0.456536 -0.463341
F4    F     F_    0.968657 0.641016 0.543465 -0.463407
F5    F     F_    0.812077 0.458796 0.738765 -0.566556
F6    F     F_    0.187780 0.540507 0.261231 -0.566595
F7    F     F_    0.642933 0.901128 0.872762 -0.548291
F8    F     F_    0.357147 0.098888 0.127230 -0.548316
F9    F     F_    0.806180 0.478786 0.341961 -0.510887
F10   F     F_    0.193965 0.522051 0.658047 -0.511022
F11   F     F_    0.784604 0.851704 0.026921 -0.563443
F12   F     F_    0.215397 0.148344 0.973081 -0.563445
F13   F     F_    0.601023 0.914588 0.967958 -0.517964
F14   F     F_    0.399024 0.085446 0.032034 -0.517977
N5    N     N_R   0.741699 0.016905 0.508388 0.252302
O13   O     O_R   0.859277 0.025667 0.472230 -0.219557
O14   O     O_R   0.781839 0.057930 0.551698 -0.281619
N6    N     N_R   0.258299 0.983096 0.491615 0.252309
O15   O     O_R   0.140725 0.974329 0.527774 -0.219528
O16   O     O_R   0.218155 0.942078 0.448305 -0.281723

loop_
_geom_bond_atom_site_label_1
_geom_bond_atom_site_label_2
_geom_bond_distance
_ccdc_geom_bond_type
C9    H2    1.083377 S    
C13   C15   1.390532 A    
C14   F2    1.357806 S    
N1    C17   1.422829 S    
C24   F8    1.358966 S    
O5    C3    1.295297 A    
C19   C25   1.407889 A    
O1    C1    1.270317 A    
N4    F4    1.335134 S    
C21   C23   1.399651 A    
C10   C12   1.386134 A    
C7    O12   1.350253 S    
C39   F13   1.355314 S    
C12   F9    1.357683 S    
C40   F14   1.355305 S    
C11   F10   1.357650 S    
C14   C28   1.412099 A    
O4    Zn1   1.998550 S    
C4    C28   1.468464 S    
C38   H4    1.083706 S    
C31   C40   1.418796 A    
C10   H1    1.083375 S    
C35   C37   1.385946 A    
C32   C39   1.418798 A    
C36   C38   1.385938 A    
C35   F11   1.356353 S    
O6    C4    1.295301 A    
C25   C38   1.393755 A    
C42   N6    1.436524 S    
O2    C2    1.270318 A    
C5    C21   1.401625 A    
C16   F6    1.357596 S    
C8    O11   1.350233 S    
C15   F5    1.357575 S    
C31   C33   1.420006 A    
N3    F3    1.335134 S    
O4    C2    1.287641 A    
C11   C27   1.411463 A    
N5    O14   1.301208 A    
C29   C35   1.419200 A    
N5    O13   1.300256 A    
C9    C17   1.394061 A    
O1    Zn1   1.976951 S    
C5    N1    1.364905 A    
O7    Zn2   2.021133 S    
C10   C18   1.394083 A    
C13   F1    1.357801 S    
C36   F12   1.356370 S    
C13   C27   1.412106 A    
C7    C25   1.396436 A    
C6    N2    1.364913 A    
C8    C26   1.396454 A    
C1    C41   1.403152 S    
O7    C3    1.296831 A    
O3    Zn2   1.998550 S    
O8    C4    1.296830 A    
N2    C8    1.363864 A    
N6    O16   1.301206 A    
C23   F7    1.358967 S    
C20   C26   1.407868 A    
C37   H3    1.083701 S    
C30   C31   1.417781 A    
C12   C28   1.411441 A    
N2    C18   1.422882 S    
C30   C36   1.419193 A    
C5    O9    1.349851 S    
O6    Zn2   2.006011 S    
N1    C7    1.363852 A    
O3    C1    1.287642 A    
O8    Zn1   2.021133 S    
C26   C37   1.393753 A    
C2    C42   1.403151 S    
C14   C16   1.390525 A    
C15   C17   1.396521 A    
C6    C22   1.401645 A    
C16   C18   1.396532 A    
Zn1   N4    2.011623 S    
C41   N5    1.436524 S    
Zn2   N3    2.011622 S    
C22   C24   1.399651 A    
C19   C21   1.409985 A    
C3    C27   1.468457 S    
C20   C22   1.409978 A    
C9    C11   1.386141 A    
C41   C42   1.361221 D    
O2    Zn2   1.976951 S    
C29   C32   1.417785 A    
N3    N4    1.283647 D    
C23   C39   1.387153 A    
C32   C34   1.420020 A    
O5    Zn1   2.006010 S    
C24   C40   1.387162 A    
C6    O10   1.349838 S    
N6    O15   1.300257 A    
C19   C34   1.415951 A    
C20   C33   1.415964 A    
C29   C33   1.421917 A    
C30   C34   1.421913 A    
