data_mof_unit_64694.cif
_audit_creation_date              2012-12-10T18:55:54-0500
_audit_creation_method            fapswitch 2.2
_symmetry_space_group_name_H-M    P1
_symmetry_Int_Tables_number       1
_space_group_crystal_system       triclinic
_cell_length_a                    17.112721
_cell_length_b                    18.148415
_cell_length_c                    19.456559
_cell_angle_alpha                 90.019681
_cell_angle_beta                  89.350612
_cell_angle_gamma                 93.594876
_cell_volume                      6030.32191641

loop_
_atom_site_label
_atom_site_type_symbol
_atom_type_description
_atom_site_fract_x
_atom_site_fract_y
_atom_site_fract_z
_atom_type_partial_charge
C1    C     C_R   0.500057 0.500019 0.367529 0.796241
C2    C     C_R   0.499943 0.499981 0.632471 0.796241
C3    C     C_R   0.500725 0.433249 0.815875 -0.165168
C4    C     C_R   0.499279 0.566751 0.184125 -0.165168
C5    C     C_R   0.499951 0.499990 0.852226 0.104861
C6    C     C_R   0.500049 0.500010 0.147774 0.104860
C7    C     C_R   0.499153 0.566729 0.815932 -0.163650
C8    C     C_R   0.500843 0.433271 0.184068 -0.163651
C9    C     C_R   0.499172 0.566754 0.744364 -0.183106
C10   C     C_R   0.500824 0.433246 0.255636 -0.183107
C11   C     C_R   0.499931 0.499989 0.707959 -0.030269
C12   C     C_R   0.500069 0.500011 0.292041 -0.030268
C13   C     C_R   0.450790 0.545252 0.964733 -0.174812
C14   C     C_R   0.549210 0.454748 0.035267 -0.174811
C15   C     C_R   0.450816 0.545258 0.036299 -0.168603
C16   C     C_R   0.549184 0.454742 0.963701 -0.168604
C17   C     C_R   0.500026 0.500006 0.072108 0.096292
C18   C     C_R   0.499974 0.499994 0.927892 0.096293
C19   C     C_R   0.550998 0.723946 0.458406 0.097411
C20   C     C_R   0.449000 0.276054 0.541592 0.097409
C21   C     C_R   0.551901 0.801343 0.457550 -0.277062
C22   C     C_R   0.448097 0.198657 0.542449 -0.277062
C23   C     C_R   0.650910 0.508844 0.500751 0.850410
C24   C     C_R   0.349090 0.491156 0.499248 0.850409
C25   C     C_R   0.499910 0.838429 0.499937 0.108680
C26   C     C_R   0.500090 0.161571 0.500062 0.108679
C27   C     C_R   0.447922 0.795218 0.542321 -0.268431
C28   C     C_R   0.552080 0.204782 0.457680 -0.268431
C29   C     C_R   0.448913 0.717932 0.541536 0.131684
C30   C     C_R   0.551088 0.282068 0.458465 0.131684
C31   C     C_R   0.486410 0.960497 0.561009 -0.174050
C32   C     C_R   0.513590 0.039503 0.438991 -0.174050
C33   C     C_R   0.486473 0.037900 0.561044 -0.164946
C34   C     C_R   0.513527 0.962100 0.438955 -0.164946
C35   C     C_R   0.500064 0.078725 0.500036 0.120133
C36   C     C_R   0.499936 0.921275 0.499964 0.120134
C37   C     C_R   0.736637 0.513400 0.501648 -0.111836
C38   C     C_R   0.263362 0.486600 0.498352 -0.111836
C39   C     C_R   0.778452 0.458642 0.533897 0.333844
C40   C     C_R   0.221548 0.541358 0.466103 0.333844
C41   C     C_R   0.859893 0.462886 0.530470 -0.188146
C42   C     C_R   0.140107 0.537114 0.469530 -0.188146
C43   C     C_R   0.900876 0.521513 0.495298 0.320540
C44   C     C_R   0.099124 0.478487 0.504701 0.320539
C45   C     C_R   0.859162 0.576713 0.465472 -0.184803
C46   C     C_R   0.140838 0.423287 0.534527 -0.184803
C47   C     C_R   0.777719 0.572889 0.468607 -0.282719
C48   C     C_R   0.222281 0.427110 0.531392 -0.282719
C49   C     C_R   0.500678 0.433222 0.744308 -0.160615
C50   C     C_R   0.499325 0.566778 0.255692 -0.160616
Cu1   Cu    Cu3+1 0.500020 0.573360 0.500000 0.974920
Cu2   Cu    Cu3+1 0.499980 0.426640 0.500000 0.974919
H1    H     H_    0.411562 0.579818 0.063682 0.136343
H2    H     H_    0.588439 0.420182 0.936318 0.136342
H3    H     H_    0.591318 0.696057 0.425724 0.110476
H4    H     H_    0.408679 0.303943 0.574274 0.110477
H5    H     H_    0.593844 0.831834 0.424639 0.129644
H6    H     H_    0.406153 0.168166 0.575359 0.129645
H7    H     H_    0.405937 0.820766 0.575196 0.132250
H8    H     H_    0.594066 0.179234 0.424806 0.132251
H9    H     H_    0.408584 0.685291 0.574198 0.121041
H10   H     H_    0.591419 0.314709 0.425803 0.121042
H11   H     H_    0.477074 0.931441 0.609270 0.129340
H12   H     H_    0.522926 0.068559 0.390730 0.129340
H13   H     H_    0.477177 0.065854 0.609330 0.132273
H14   H     H_    0.522823 0.934146 0.390670 0.132272
H15   H     H_    0.109221 0.579707 0.444438 0.187244
H16   H     H_    0.890779 0.420293 0.555562 0.187243
H17   H     H_    0.889996 0.622390 0.438845 0.156743
H18   H     H_    0.110004 0.377609 0.561154 0.156743
H19   H     H_    0.746733 0.615662 0.443817 0.167246
H20   H     H_    0.253267 0.384337 0.556182 0.167246
H21   H     H_    0.501067 0.380910 0.717534 0.158787
H22   H     H_    0.498939 0.619090 0.282465 0.158784
H23   H     H_    0.500398 0.381030 0.842841 0.130681
H24   H     H_    0.499608 0.618970 0.157158 0.130681
H25   H     H_    0.499483 0.618949 0.842924 0.129703
H26   H     H_    0.500511 0.381051 0.157076 0.129704
H27   H     H_    0.498746 0.619061 0.717629 0.149784
H28   H     H_    0.501248 0.380939 0.282371 0.149785
H29   H     H_    0.411517 0.579808 0.938174 0.131773
H30   H     H_    0.588483 0.420192 0.061826 0.131774
N1    N     N_2   0.983638 0.527247 0.488861 -0.243182
N2    N     N_2   0.016361 0.472753 0.511138 -0.243182
N3    N     N_R   0.500010 0.683620 0.500020 -0.170146
N4    N     N_R   0.499990 0.316380 0.499980 -0.170146
O1    O     O_R   0.500030 0.561980 0.400180 -0.576221
O2    O     O_R   0.499970 0.438020 0.599820 -0.576220
O3    O     O_R   0.500000 0.438070 0.400190 -0.599717
O4    O     O_R   0.500000 0.561930 0.599810 -0.599718
O5    O     O_R   0.613940 0.568730 0.499360 -0.601666
O6    O     O_R   0.386060 0.431270 0.500640 -0.601667
O7    O     O_R   0.613910 0.444830 0.499370 -0.537933
O8    O     O_R   0.386090 0.555170 0.500630 -0.537933
Cl1   Cl    Cl    0.267792 0.614607 0.418222 -0.611256
Cl2   Cl    Cl    0.732208 0.385394 0.581779 -0.611258

loop_
_geom_bond_atom_site_label_1
_geom_bond_atom_site_label_2
_ccdc_geom_bond_type
C1    O1    A    
C23   O5    A    
C27   C29   A    
C43   N1    S    
C20   H4    S    
Cu1   N3    S    
C3    C49   A    
C33   H13   S    
C39   C41   A    
C13   C18   A    
C15   H1    S    
C19   C21   A    
C50   H22   S    
Cu1   O4    S    
C13   H29   S    
C7    C9    A    
C9    H27   S    
C45   C47   A    
C2    O4    A    
Cu1   O5    S    
C20   N4    A    
C24   C38   S    
C31   C33   A    
C2    O2    A    
C30   N4    A    
C3    H23   S    
C29   N3    A    
C7    H25   S    
C40   C42   A    
C8    H26   S    
C41   C43   A    
C14   C17   A    
C34   H14   S    
Cu2   O3    S    
C1    C12   S    
C42   C44   A    
C48   H20   S    
C2    C11   S    
C24   O6    A    
C44   C46   A    
C41   H16   S    
C46   C48   A    
C28   H8    S    
C29   H9    S    
C46   H18   S    
C45   H17   S    
Cu1   Cu2   S    
C32   C35   A    
C31   H11   S    
Cu2   O2    S    
C32   H12   S    
C4    C6    A    
Cu1   O1    S    
C5    C7    A    
C10   H28   S    
C6    C8    A    
C5    C18   S    
C25   C36   S    
C19   N3    A    
C23   C37   S    
C23   O7    A    
C4    C50   A    
C32   C34   A    
C21   H5    S    
C11   C49   A    
C24   O8    A    
C43   C45   A    
N1    N2    D    
Cu2   O7    S    
C9    C11   A    
C47   H19   S    
C10   C12   A    
C16   C18   A    
C20   C22   A    
C30   H10   S    
C42   H15   S    
C14   C16   A    
Cu2   O6    S    
C37   C47   A    
C14   H30   S    
C40   Cl1   S    
C3    C5    A    
C19   H3    S    
C15   C17   A    
C6    C17   S    
C21   C25   A    
C1    O3    A    
C38   C48   A    
C44   N2    S    
C22   H6    S    
C12   C50   A    
C25   C27   A    
C26   C28   A    
C13   C15   A    
C28   C30   A    
C37   C39   A    
C27   H7    S    
C38   C40   A    
Cu2   N4    S    
C33   C35   A    
C34   C36   A    
C49   H21   S    
C16   H2    S    
C39   Cl2   S    
C4    H24   S    
Cu1   O8    S    
C26   C35   S    
C8    C10   A    
C22   C26   A    
C31   C36   A    
