data_mof_unit_56232.cif
_audit_creation_date              2012-12-11T14:17:37-0500
_audit_creation_method            fapswitch 2.2
_symmetry_space_group_name_H-M    P1
_symmetry_Int_Tables_number       1
_space_group_crystal_system       triclinic
_cell_length_a                    6.9454
_cell_length_b                    13.637747
_cell_length_c                    20.425381
_cell_angle_alpha                 102.086774
_cell_angle_beta                  90.014452
_cell_angle_gamma                 90.535532
_cell_volume                      1891.70776371

loop_
_atom_site_label
_atom_site_type_symbol
_atom_type_description
_atom_site_fract_x
_atom_site_fract_y
_atom_site_fract_z
_atom_type_partial_charge
O1    O     O_R   0.506860 0.599390 0.449240 -0.540394
O2    O     O_R   0.180220 0.594600 0.586780 -0.543442
O3    O     O_R   0.004500 0.400610 0.550760 -0.538564
C1    C     C_R   0.349045 0.616035 0.613474 0.740232
O4    O     O_R   0.177490 0.611290 0.451970 -0.541596
O5    O     O_R   0.001750 0.417420 0.414990 -0.539478
C2    C     C_R   0.346612 0.637897 0.435183 0.694747
O6    O     O_R   0.509610 0.582580 0.585010 -0.543376
O7    O     O_3   0.337420 0.436370 0.488020 -0.371363
V1    V     V_3+5 0.064680 0.511800 0.502220 1.419837
O8    O     O_R   0.671710 0.405400 0.413220 -0.545258
C3    C     C_R   0.839628 0.386098 0.386080 0.724633
O9    O     O_R   0.674440 0.388710 0.548030 -0.540797
C4    C     C_R   0.842776 0.362140 0.564832 0.699486
V2    V     V_3+5 0.564010 0.488200 0.497780 1.418895
O10   O     O_3   0.841140 0.563630 0.511980 -0.373449
C5    C     C_R   0.857776 0.111156 0.612524 -0.158495
H1    H     H_    0.850580 0.161361 0.519785 0.107438
H2    H     H_    0.867465 0.985808 0.695567 0.122243
H3    H     H_    0.860080 0.032820 0.587460 0.113743
C6    C     C_R   0.849929 0.285282 0.604958 -0.032082
C7    C     C_R   0.859220 0.315284 0.928624 -0.169782
C8    C     C_R   0.854062 0.391410 0.892938 -0.118919
C9    C     C_R   0.852835 0.368734 0.823172 -0.157176
C10   C     C_R   0.856783 0.268016 0.786951 0.077161
C11   C     C_R   0.861575 0.190227 0.823983 0.067406
C12   C     C_R   0.856111 0.241896 0.715389 0.072345
C13   C     C_R   0.859538 0.138958 0.682729 0.141611
C14   C     C_R   0.864495 0.064354 0.720182 -0.202798
C15   C     C_R   0.865661 0.089366 0.789617 -0.194495
C16   C     C_R   0.851946 0.314205 0.674823 -0.213961
C17   C     C_R   0.852521 0.183960 0.573895 -0.174558
C18   C     C_R   0.862735 0.215033 0.894926 -0.074587
H4    H     H_    0.849505 0.393590 0.695629 0.093198
H5    H     H_    0.860527 0.334585 0.982865 0.100338
H6    H     H_    0.848754 0.431984 0.799329 0.106692
H7    H     H_    0.851178 0.468884 0.919579 0.118914
H8    H     H_    0.869688 0.028541 0.816186 0.116592
C19   C     C_2   0.001814 0.287394 0.285118 -0.109659
C20   C     C_2   0.840940 0.325512 0.317159 -0.276554
H9    H     H_    0.140398 0.303826 0.309815 0.127095
H10   H     H_    0.703378 0.316259 0.291509 0.165892
C21   C     C_2   0.003568 0.229254 0.214525 -0.127655
C22   C     C_2   0.859101 0.168583 0.184894 0.053370
H11   H     H_    0.134489 0.234972 0.186428 0.093674
C23   C     C_2   0.204729 0.790762 0.782325 -0.135939
C24   C     C_2   0.363768 0.815791 0.819923 -0.305980
H12   H     H_    0.066942 0.820849 0.801674 0.130989
H13   H     H_    0.502385 0.786088 0.801840 0.127964
C25   C     C_2   0.203053 0.722344 0.714833 -0.131657
C26   C     C_2   0.361080 0.684221 0.680220 -0.311267
H14   H     H_    0.061795 0.703486 0.692698 0.133754
H15   H     H_    0.504189 0.702647 0.700335 0.125327
C27   C     C_R   0.368872 0.888810 0.387369 -0.156678
H16   H     H_    0.365720 0.838615 0.480147 0.104843
H17   H     H_    0.375099 0.014175 0.304252 0.133472
H18   H     H_    0.374901 0.967147 0.412400 0.115399
C28   C     C_R   0.356087 0.714702 0.395015 -0.030404
C29   C     C_R   0.348614 0.684631 0.071350 -0.168777
C30   C     C_R   0.342226 0.608520 0.107071 -0.120542
C31   C     C_R   0.344682 0.631202 0.176835 -0.159586
C32   C     C_R   0.353257 0.731924 0.213015 0.078486
C33   C     C_R   0.358398 0.809695 0.175950 0.069453
C34   C     C_R   0.357116 0.758066 0.284563 0.072601
C35   C     C_R   0.365256 0.861008 0.317175 0.141464
C36   C     C_R   0.369226 0.935610 0.279685 -0.203121
C37   C     C_R   0.365719 0.910566 0.210265 -0.205887
C38   C     C_R   0.352978 0.685774 0.325159 -0.215185
C39   C     C_R   0.363937 0.816012 0.426038 -0.176261
C40   C     C_R   0.356630 0.784879 0.105018 -0.074304
H19   H     H_    0.346364 0.606401 0.304388 0.092033
H20   H     H_    0.347547 0.665322 0.017110 0.102550
H21   H     H_    0.339754 0.567959 0.200709 0.104960
H22   H     H_    0.335832 0.531044 0.080458 0.117831
H23   H     H_    0.368729 0.971369 0.183648 0.118816
O11   O     O_R   0.203230 0.917310 0.915020 -0.538750
O12   O     O_R   0.535500 0.888690 0.048040 -0.540792
O13   O     O_R   0.711080 0.082610 0.085000 -0.541575
C41   C     C_R   0.366406 0.862232 0.064958 0.688268
O14   O     O_R   0.532630 0.905370 0.913230 -0.547894
O15   O     O_R   0.708190 0.099410 0.949230 -0.537660
C42   C     C_R   0.364389 0.884233 0.886510 0.744740
O16   O     O_R   0.206120 0.900510 0.050790 -0.538363
O17   O     O_3   0.375360 0.063570 0.011990 -0.372378
V3    V     V_3+5 0.648170 0.988200 0.997780 1.413162
O18   O     O_R   0.038240 0.111390 0.951940 -0.540475
C43   C     C_R   0.869918 0.137666 0.934976 0.689441
O19   O     O_R   0.041120 0.094710 0.086750 -0.550071
C44   C     C_R   0.872580 0.113073 0.114280 0.681959
V4    V     V_3+5 0.148810 0.011930 0.002180 1.415292
O20   O     O_3   0.871750 0.936430 0.988010 -0.370893
N1    N     N_3   0.693678 0.150079 0.222920 -0.668702
H24   H     H_    0.570435 0.170244 0.199642 0.221309
H25   H     H_    0.685592 0.073109 0.221582 0.231923

loop_
_geom_bond_atom_site_label_1
_geom_bond_atom_site_label_2
_ccdc_geom_bond_type
C1    O6    A    
V3    O20   S    
C24   H13   S    
C27   C35   A    
C7    H5    S    
C6    C16   A    
C32   C33   A    
C34   C38   A    
C4    C6    S    
C13   C14   A    
O5    C3    A    
V2    O10   S    
C5    H3    S    
C15   H8    S    
C24   C42   S    
O16   V4    S    
C32   C34   A    
O8    V2    S    
C25   H14   S    
C8    C9    A    
O1    V2    S    
C14   C15   A    
O7    V1    S    
C2    C28   S    
C22   N1    S    
C29   H20   S    
C20   H10   S    
C36   C37   A    
O12   V3    S    
C29   C30   A    
O9    C4    A    
O17   V4    S    
C33   C37   A    
O12   C41   A    
O13   C44   A    
C6    C17   A    
C23   H12   S    
C1    C26   S    
C12   C16   A    
C9    C10   A    
O14   C42   A    
O18   V4    S    
O11   C42   A    
C19   C20   D    
O4    C2    A    
O18   C43   A    
C19   C21   S    
C31   H21   S    
C10   C11   A    
C8    H7    S    
C30   C31   A    
C26   H15   S    
C3    C20   S    
O2    C1    A    
C21   C22   D    
O14   V3    S    
C11   C18   A    
C33   C40   A    
N1    H25   S    
C25   C26   D    
C16   H4    S    
C9    H6    S    
O17   V3    S    
C21   H11   S    
O15   C43   A    
O3    C4    A    
O13   V3    S    
C28   C38   A    
O19   V4    S    
C11   C15   A    
O6    V2    S    
O9    V2    S    
C37   H23   S    
O2    V1    S    
C7    C18   A    
C23   C24   D    
C40   C41   S    
O1    C2    A    
C5    C13   A    
O5    V1    S    
O8    C3    A    
C28   C39   A    
C10   C12   A    
C23   C25   S    
C34   C35   A    
H16   C39   S    
O7    V2    S    
O4    V1    S    
O3    V1    S    
V1    O10   S    
C41   O16   A    
V4    O20   S    
C27   C39   A    
C38   H19   S    
H17   C36   S    
C30   H22   S    
N1    H24   S    
C18   C43   S    
C31   C32   A    
C29   C40   A    
H1    C17   S    
O19   C44   A    
C19   H9    S    
C35   C36   A    
C12   C13   A    
C5    C17   A    
C7    C8    A    
O15   V3    S    
C22   C44   S    
O11   V4    S    
C27   H18   S    
H2    C14   S    
