data_mof_unit_34017.cif
_audit_creation_date              2012-12-11T14:06:51-0500
_audit_creation_method            fapswitch 2.2
_symmetry_space_group_name_H-M    P1
_symmetry_Int_Tables_number       1
_space_group_crystal_system       triclinic
_cell_length_a                    6.92894
_cell_length_b                    17.286682
_cell_length_c                    24.097479
_cell_angle_alpha                 104.4886
_cell_angle_beta                  90.479433
_cell_angle_gamma                 90.023232
_cell_volume                      2794.45636378

loop_
_atom_site_label
_atom_site_type_symbol
_atom_type_description
_atom_site_fract_x
_atom_site_fract_y
_atom_site_fract_z
_atom_type_partial_charge
O1    O     O_R   0.494290 0.391990 0.999150 -0.537004
O2    O     O_R   0.827170 0.534410 0.082350 -0.541953
O3    O     O_R   0.994360 0.608010 0.000850 -0.535805
C1    C     C_R   0.658865 0.550193 0.106067 0.729035
O4    O     O_R   0.824210 0.388010 0.004470 -0.547468
O5    O     O_R   0.991370 0.460560 0.922410 -0.540165
C2    C     C_R   0.654505 0.354888 0.001468 0.773223
O6    O     O_R   0.497270 0.539440 0.077590 -0.541369
O7    O     O_3   0.659770 0.523970 0.973170 -0.371106
V1    V     V_3+5 0.935840 0.495550 0.004980 1.428794
O8    O     O_R   0.320910 0.465590 0.917650 -0.542297
C3    C     C_R   0.151326 0.450176 0.893968 0.732310
O9    O     O_R   0.323870 0.611990 0.995530 -0.544895
C4    C     C_R   0.154425 0.645116 0.998500 0.776931
V2    V     V_3+5 0.435470 0.504450 0.995020 1.432222
O10   O     O_3   0.161670 0.476030 0.026830 -0.373964
C5    C     C_2   0.142742 0.730280 0.998043 -0.309759
H1    H     H_    0.277048 0.761181 0.994664 0.151799
C6    C     C_2   0.972795 0.769725 0.001957 -0.314841
H2    H     H_    0.838485 0.738822 0.005325 0.146815
C7    C     C_R   0.990461 0.258784 0.627515 0.670337
N1    N     N_R   0.095055 0.327327 0.648936 -0.549820
C8    C     C_R   0.182650 0.366594 0.612974 0.639813
C9    C     C_R   0.167992 0.336858 0.553037 -0.033488
C10   C     C_R   0.059964 0.266807 0.530447 -0.019726
C11   C     C_R   0.969557 0.227471 0.567877 -0.043794
C12   C     C_R   0.258354 0.375407 0.515254 -0.139231
C13   C     C_R   0.242156 0.344703 0.455929 -0.136683
C14   C     C_R   0.134645 0.274825 0.432881 -0.029680
C15   C     C_R   0.042719 0.235914 0.470292 -0.011293
C16   C     C_R   0.934020 0.166071 0.447687 -0.035222
C17   C     C_R   0.843519 0.127563 0.485491 -0.143668
C18   C     C_R   0.861345 0.157803 0.544833 -0.112255
C19   C     C_R   0.116772 0.242723 0.373246 0.585686
N2    N     N_R   0.011075 0.174425 0.351723 -0.545824
C20   C     C_R   0.919862 0.136180 0.387726 0.602510
O11   O     O_2   0.908244 0.220640 0.663779 -0.469828
O12   O     O_2   0.283286 0.434267 0.635110 -0.501564
H3    H     H_    0.342320 0.429348 0.531373 0.158805
H4    H     H_    0.314247 0.375953 0.428215 0.176930
O13   O     O_2   0.203476 0.279834 0.337077 -0.516658
O14   O     O_2   0.817687 0.068899 0.365673 -0.502491
H5    H     H_    0.759106 0.073751 0.469374 0.160016
H6    H     H_    0.790000 0.126367 0.572565 0.185839
C21   C     C_R   0.163858 0.111919 0.259105 -0.149522
H7    H     H_    0.300914 0.112312 0.281124 0.156189
C22   C     C_R   0.153829 0.081198 0.199576 0.584884
C23   C     C_R   0.976808 0.080084 0.169809 -0.187621
C24   C     C_R   0.811064 0.109568 0.201616 -0.247308
H8    H     H_    0.673206 0.110270 0.180326 0.216544
C25   C     C_R   0.821799 0.139961 0.261211 -0.072708
H9    H     H_    0.692817 0.162990 0.284665 0.154274
C26   C     C_R   0.998535 0.141774 0.290372 0.288288
C27   C     C_R   0.954638 0.397828 0.741376 -0.101602
H10   H     H_    0.822033 0.405292 0.719270 0.188421
C28   C     C_R   0.967150 0.427268 0.800936 -0.175943
H11   H     H_    0.842564 0.456640 0.823716 0.152065
C29   C     C_R   0.139105 0.419700 0.830599 -0.117855
C30   C     C_R   0.297715 0.381391 0.799236 -0.236153
H12   H     H_    0.431018 0.373904 0.821106 0.159505
C31   C     C_R   0.283954 0.350305 0.739668 0.433920
C32   C     C_R   0.111980 0.358832 0.710270 0.295177
C33   C     C_R   0.560932 0.877853 0.614042 0.584368
N3    N     N_R   0.523984 0.826831 0.648243 -0.552690
C34   C     C_R   0.507470 0.745956 0.624820 0.596756
C35   C     C_R   0.526003 0.713865 0.565241 -0.035778
C36   C     C_R   0.564798 0.765568 0.529865 -0.013678
C37   C     C_R   0.583449 0.848227 0.554354 -0.029789
C38   C     C_R   0.507167 0.631408 0.540278 -0.131694
C39   C     C_R   0.525695 0.600857 0.481069 -0.141712
C40   C     C_R   0.564274 0.651931 0.445297 -0.025865
C41   C     C_R   0.584517 0.734560 0.469844 -0.015925
C42   C     C_R   0.623817 0.786284 0.434480 -0.047789
C43   C     C_R   0.643546 0.868664 0.459464 -0.120338
C44   C     C_R   0.623233 0.899261 0.518613 -0.136829
C45   C     C_R   0.581597 0.622611 0.385427 0.603525
N4    N     N_R   0.618081 0.673767 0.351433 -0.547488
C46   C     C_R   0.641042 0.754218 0.374874 0.689457
O15   O     O_2   0.573839 0.957200 0.637509 -0.506147
O16   O     O_2   0.475304 0.696418 0.659057 -0.498429
H13   H     H_    0.477309 0.590158 0.566376 0.180613
H14   H     H_    0.509322 0.537082 0.463446 0.160564
O17   O     O_2   0.560357 0.543733 0.361373 -0.513543
O18   O     O_2   0.679688 0.803103 0.340616 -0.472221
H15   H     H_    0.673880 0.909874 0.433371 0.183019
H16   H     H_    0.638781 0.963077 0.536199 0.163019
C47   C     C_R   0.470506 0.650984 0.254541 0.426265
C48   C     C_R   0.481034 0.620153 0.195015 -0.229022
H17   H     H_    0.357994 0.627215 0.168701 0.162702
C49   C     C_R   0.649134 0.581720 0.169479 -0.125418
C50   C     C_R   0.806326 0.574186 0.205120 -0.168677
H18   H     H_    0.937577 0.544744 0.186982 0.152690
C51   C     C_R   0.794647 0.603643 0.264774 -0.084112
H19   H     H_    0.916000 0.596316 0.291557 0.180437
C52   C     C_R   0.627712 0.642744 0.289941 0.297576
C53   C     C_R   0.332707 0.846147 0.737267 -0.114592
H20   H     H_    0.214785 0.813245 0.712292 0.166835
C54   C     C_R   0.313515 0.874709 0.796896 0.343811
C55   C     C_R   0.466404 0.918096 0.830221 -0.145684
C56   C     C_R   0.636368 0.930627 0.801900 -0.192205
H21   H     H_    0.756216 0.963613 0.825755 0.182736
C57   C     C_R   0.654968 0.900971 0.742585 -0.041460
H22   H     H_    0.788583 0.910643 0.722283 0.154810
C58   C     C_R   0.503413 0.858494 0.709610 0.292075
C59   C     C_2   0.642834 0.269718 0.001878 -0.335990
H23   H     H_    0.777332 0.238855 0.005254 0.146285
C60   C     C_2   0.472681 0.230225 0.997946 -0.332061
H24   H     H_    0.338182 0.261087 0.994569 0.148831
O19   O     O_R   0.618210 0.960470 0.922400 -0.541170
O20   O     O_R   0.291310 0.111960 0.995450 -0.553532
O21   O     O_R   0.124210 0.039530 0.077580 -0.505321
C61   C     C_R   0.461013 0.145072 0.998406 0.758157
O22   O     O_R   0.288310 0.965490 0.917650 -0.513235
O23   O     O_R   0.121180 0.892010 0.999220 -0.530339
C62   C     C_R   0.456291 0.948948 0.893903 0.754233
O24   O     O_R   0.621230 0.107990 0.000760 -0.544445
O25   O     O_3   0.455770 0.976060 0.026840 -0.354558
V3    V     V_3+5 0.179680 0.004440 0.995020 1.540926
O26   O     O_R   0.791670 0.888040 0.004570 -0.548399
C63   C     C_R   0.961109 0.854897 0.001540 0.810763
O27   O     O_R   0.794680 0.034510 0.082370 -0.540651
C64   C     C_R   0.964477 0.049649 0.106180 0.747650
V4    V     V_3+5 0.680070 0.995560 0.005010 1.510473
O28   O     O_3   0.953840 0.023940 0.973160 -0.376718
Cl1   Cl    Cl    0.481318 0.298280 0.702864 -0.600825
Cl2   Cl    Cl    0.258283 0.699609 0.283976 -0.621286
Cl3   Cl    Cl    0.099649 0.849909 0.827632 -0.662812
F1    F     F_    0.317341 0.051757 0.171514 -0.685917

loop_
_geom_bond_atom_site_label_1
_geom_bond_atom_site_label_2
_ccdc_geom_bond_type
C47   C48   A    
C51   H19   S    
O24   V4    S    
N2    C26   S    
C42   C43   A    
C20   O14   S    
N2    C20   A    
C9    C12   A    
C1    O6    A    
O20   V3    S    
V4    O28   S    
C33   O15   S    
N4    C46   A    
C37   C44   A    
C59   C60   D    
O21   V3    S    
C13   C14   A    
C19   N2    A    
C16   C20   A    
C55   C62   S    
C15   C16   A    
C35   C38   A    
C50   C51   A    
C13   H4    S    
V2    O10   S    
C54   C55   A    
C28   H11   S    
C36   C41   A    
C60   C61   S    
C44   H16   S    
C27   H10   S    
O8    V2    S    
C22   C23   A    
C12   H3    S    
C24   C25   A    
C47   C52   A    
C60   H24   S    
C2    C59   S    
C39   C40   A    
O1    V2    S    
O7    V1    S    
C31   C32   A    
C3    C29   S    
C35   C36   A    
C21   C26   A    
C30   H12   S    
C51   C52   A    
C34   O16   S    
O9    C4    A    
O21   C64   A    
C4    C5    S    
C38   C39   A    
C19   O13   S    
C45   O17   S    
C7    C11   A    
C1    C49   S    
C21   C22   A    
C23   C64   S    
C27   C28   A    
C30   C31   A    
C43   C44   A    
C33   N3    A    
C36   C37   A    
O8    C3    A    
C22   F1    S    
C45   N4    A    
C50   H18   S    
O4    C2    A    
O19   V4    S    
C27   C32   A    
C10   C11   A    
C21   H7    S    
C42   C46   A    
C14   C19   A    
N4    C52   S    
C25   H9    S    
C53   C54   A    
C25   C26   A    
O2    C1    A    
C14   C15   A    
N1    C32   S    
C11   C18   A    
C55   C56   A    
C8    C9    A    
C53   H20   S    
C56   C57   A    
C5    H1    S    
V3    O28   S    
C9    C10   A    
C57   C58   A    
O27   C64   A    
O23   V3    S    
O3    C4    A    
C23   C24   A    
C48   C49   A    
C6    C63   S    
C34   C35   A    
O6    V2    S    
C53   C58   A    
O2    V1    S    
C61   O24   A    
C10   C15   A    
N3    C58   S    
C33   C37   A    
C54   Cl3   S    
O1    C2    A    
C18   H6    S    
C16   C17   A    
C41   C42   A    
O5    V1    S    
O26   C63   A    
O26   V4    S    
C8    O12   S    
C59   H23   S    
C17   C18   A    
C6    H2    S    
O9    V2    S    
C29   C30   A    
O4    V1    S    
O3    V1    S    
V1    O10   S    
O25   V3    S    
N3    C34   A    
O5    C3    A    
C49   C50   A    
C40   C45   A    
C56   H21   S    
C5    C6    D    
C17   H5    S    
C28   C29   A    
C43   H15   S    
O25   V4    S    
C57   H22   S    
C39   H14   S    
O20   C61   A    
O27   V4    S    
C38   H13   S    
O19   C62   A    
O22   V3    S    
C46   O18   S    
C40   C41   A    
C7    O11   S    
C48   H17   S    
C24   H8    S    
C12   C13   A    
N1    C8    A    
C31   Cl1   S    
C7    N1    A    
C47   Cl2   S    
O23   C63   A    
O7    V2    S    
O22   C62   A    
