data_mof_unit_30446.cif
_audit_creation_date              2012-10-26T20:22:28-0400
_audit_creation_method            fapswitch 2.2
_symmetry_space_group_name_H-M    P1
_symmetry_Int_Tables_number       1
_space_group_crystal_system       triclinic
_cell_length_a                    9.527442
_cell_length_b                    10.832749
_cell_length_c                    17.375616
_cell_angle_alpha                 90.437621
_cell_angle_beta                  86.193259
_cell_angle_gamma                 90.173775
_cell_volume                      1789.29474487

loop_
_atom_site_label
_atom_site_type_symbol
_atom_type_description
_atom_site_fract_x
_atom_site_fract_y
_atom_site_fract_z
_atom_type_partial_charge
C1    C     C_R   0.500154 0.737898 0.500078 0.550647
C2    C     C_R   0.079726 0.423910 0.451061 0.206514
C3    C     C_R   0.069346 0.575634 0.548730 -0.014307
C4    C     C_R   0.930654 0.424365 0.451270 -0.014307
C5    C     C_R   0.481910 0.498632 0.649845 0.546900
C6    C     C_R   0.518090 0.501369 0.350155 0.546900
C7    C     C_R   0.472891 0.492634 0.733980 0.016679
C8    C     C_R   0.527109 0.507376 0.266020 0.016682
C9    C     C_R   0.595819 0.476602 0.772860 -0.129519
C10   C     C_R   0.404185 0.523446 0.227141 -0.129520
C11   C     C_R   0.588638 0.469754 0.852647 -0.109371
C12   C     C_R   0.499846 0.262102 0.499922 0.550648
C13   C     C_R   0.411369 0.530308 0.147354 -0.109375
C14   C     C_R   0.458422 0.480602 0.894850 0.044422
C15   C     C_R   0.541584 0.519436 0.105152 0.044420
C16   C     C_R   0.335125 0.493387 0.856128 -0.115939
C17   C     C_R   0.664877 0.506612 0.143872 -0.115937
C18   C     C_R   0.342178 0.499899 0.776015 -0.130425
C19   C     C_R   0.657821 0.500087 0.223985 -0.130423
C20   C     C_2   0.448269 0.478320 0.979285 -0.134404
C21   C     C_2   0.551736 0.521726 0.020717 -0.134407
C22   C     C_R   0.627827 0.936506 0.497898 -0.136620
C23   C     C_R   0.372173 0.063493 0.502101 -0.136620
C24   C     C_R   0.627672 0.064218 0.497811 -0.141295
C25   C     C_R   0.372328 0.935782 0.502189 -0.141295
C26   C     C_R   0.499836 0.128235 0.499919 0.021517
C27   C     C_R   0.500164 0.871765 0.500081 0.021516
C28   C     C_R   0.920274 0.576089 0.548939 0.206515
Cu1   Cu    Cu3+1 0.359340 0.499980 0.500000 0.969255
Cu2   Cu    Cu3+1 0.640660 0.500020 0.500000 0.969256
H1    H     H_    0.697709 0.468307 0.741715 0.127934
H2    H     H_    0.684931 0.454501 0.880836 0.099836
H3    H     H_    0.727737 0.888784 0.496119 0.130567
H4    H     H_    0.272263 0.111216 0.503880 0.130565
H5    H     H_    0.727546 0.112524 0.496010 0.125446
H6    H     H_    0.272454 0.887475 0.503989 0.125446
H7    H     H_    0.121738 0.636164 0.587600 0.105719
H8    H     H_    0.878262 0.363835 0.412401 0.105717
H9    H     H_    0.864896 0.635998 0.656718 0.195548
H10   H     H_    0.874166 0.747253 0.588974 0.193822
H11   H     H_    0.125835 0.252742 0.411034 0.193821
H12   H     H_    0.302297 0.531761 0.258287 0.127934
H13   H     H_    0.135097 0.363991 0.343283 0.195549
H14   H     H_    0.754251 0.488730 0.252833 0.120704
H15   H     H_    0.245746 0.511224 0.747167 0.120708
H16   H     H_    0.648326 0.557345 0.992396 0.114432
H17   H     H_    0.351680 0.442701 0.007608 0.114434
H18   H     H_    0.233749 0.500465 0.887996 0.097929
H19   H     H_    0.766251 0.499513 0.112004 0.097930
H20   H     H_    0.315082 0.545588 0.119165 0.099841
N1    N     N_R   0.147930 0.499970 0.499980 -0.209129
N2    N     N_R   0.852070 0.500030 0.500020 -0.209127
N3    N     N_3   0.840801 0.656827 0.600446 -0.558586
N4    N     N_3   0.159198 0.343169 0.399556 -0.558578
O1    O     O_R   0.381260 0.680340 0.500000 -0.518939
O2    O     O_R   0.618740 0.319660 0.500000 -0.518938
O3    O     O_R   0.618830 0.680370 0.500010 -0.475699
O4    O     O_R   0.381170 0.319630 0.499990 -0.475700
O5    O     O_R   0.367440 0.500000 0.613600 -0.518244
O6    O     O_R   0.632560 0.500000 0.386400 -0.518244
O7    O     O_R   0.605010 0.500030 0.613600 -0.475402
O8    O     O_R   0.394990 0.499970 0.386400 -0.475402

loop_
_geom_bond_atom_site_label_1
_geom_bond_atom_site_label_2
_ccdc_geom_bond_type
C2    C4    A    
C28   N3    S    
Cu2   O3    S    
Cu1   Cu2   S    
C1    O3    A    
C25   C27   A    
C9    C11   A    
H13   N4    S    
C7    C18   A    
C12   O4    A    
C7    C9    A    
C6    O8    A    
C23   C25   A    
C24   H5    S    
C1    O1    A    
C5    O7    A    
H9    N3    S    
C19   H14   S    
C28   N2    A    
C16   H18   S    
C12   O2    A    
C4    N2    A    
C6    C8    S    
C16   C18   A    
C3    C28   A    
C17   C19   A    
C12   C26   S    
C4    H8    S    
C11   H2    S    
H10   N3    S    
C9    H1    S    
C22   C24   A    
C22   C27   A    
C13   C15   A    
Cu1   N1    S    
C11   C14   A    
C14   C16   A    
H11   N4    S    
Cu2   O7    S    
C8    C19   A    
C10   H12   S    
C2    N1    A    
C5    O5    A    
C25   H6    S    
C13   H20   S    
C20   H17   S    
C18   H15   S    
C6    O6    A    
C15   C21   S    
Cu1   O4    S    
C3    H7    S    
C14   C20   S    
C1    C27   S    
C21   H16   S    
C2    N4    S    
C23   C26   A    
C17   H19   S    
C15   C17   A    
C22   H3    S    
Cu2   N2    S    
C5    C7    S    
C23   H4    S    
C3    N1    A    
Cu1   O1    S    
C20   C21   D    
Cu1   O8    S    
Cu2   O2    S    
C8    C10   A    
Cu1   O5    S    
C24   C26   A    
C10   C13   A    
Cu2   O6    S    
