data_mof_unit_58066.cif
_audit_creation_date              2012-12-11T17:43:18-0500
_audit_creation_method            fapswitch 2.2
_symmetry_space_group_name_H-M    P1
_symmetry_Int_Tables_number       1
_space_group_crystal_system       triclinic
_cell_length_a                    14.938362
_cell_length_b                    15.067353
_cell_length_c                    16.941726
_cell_angle_alpha                 109.135229
_cell_angle_beta                  106.071235
_cell_angle_gamma                 108.901336
_cell_volume                      3079.5151984

loop_
_atom_site_label
_atom_site_type_symbol
_atom_type_description
_atom_site_fract_x
_atom_site_fract_y
_atom_site_fract_z
_atom_type_partial_charge
C1    C     C_R   0.090524 0.275629 0.026881 -0.121235
C2    C     C_R   0.095625 0.066260 0.946737 -0.234315
C3    C     C_R   0.006885 0.883604 0.914344 0.048688
C4    C     C_R   0.000414 0.071703 0.929177 0.066120
C5    C     C_R   0.100192 0.972498 0.938939 0.036316
C6    C     C_R   0.906003 0.975860 0.886640 0.042888
C7    C     C_R   0.730209 0.925326 0.770274 -0.180635
C8    C     C_R   0.289621 0.045761 0.043345 -0.199050
C9    C     C_R   0.587932 0.918261 0.814612 0.115331
C10   C     C_R   0.385195 0.946145 0.010423 0.150739
C11   C     C_R   0.455636 0.590175 0.345261 0.200051
C12   C     C_R   0.915552 0.708802 0.916920 -0.141901
C13   C     C_R   0.508826 0.508837 0.756642 0.200650
C14   C     C_R   0.494422 0.620948 0.287097 -0.208519
C15   C     C_R   0.517479 0.515822 0.843119 -0.200498
C16   C     C_R   0.936254 0.451630 0.734593 -0.122471
C17   C     C_R   0.065135 0.481155 0.253279 -0.146904
C18   C     C_R   0.509449 0.550551 0.219948 0.085010
C19   C     C_R   0.578052 0.613555 0.923087 0.067550
C20   C     C_R   0.489601 0.450449 0.214392 -0.188737
C21   C     C_R   0.626908 0.704978 0.915623 -0.181360
C22   C     C_R   0.449466 0.418972 0.271313 -0.210594
C23   C     C_R   0.029411 0.466548 0.725650 0.063664
C24   C     C_R   0.621092 0.697323 0.829911 -0.216675
C25   C     C_R   0.430424 0.487611 0.335607 0.053421
C26   C     C_R   0.563045 0.599981 0.750420 0.033270
C27   C     C_R   0.618880 0.563713 0.133578 -0.236479
C28   C     C_R   0.517750 0.650129 0.042009 -0.210685
C29   C     C_R   0.637623 0.575522 0.059996 0.060884
C30   C     C_R   0.477937 0.609979 0.095038 0.042361
C31   C     C_R   0.585744 0.620061 0.013831 0.039820
C32   C     C_R   0.536583 0.577514 0.150271 0.054800
C33   C     C_R   0.624906 0.901762 0.746235 -0.170701
C34   C     C_R   0.974086 0.421088 0.255398 0.068891
C35   C     C_R   0.380518 0.033470 0.068913 -0.178787
C36   C     C_R   0.967249 0.380324 0.322412 0.122106
C37   C     C_R   0.039483 0.422807 0.639182 0.118221
C38   C     C_R   0.145254 0.442809 0.554661 -0.176144
C39   C     C_R   0.863343 0.306115 0.392995 -0.211500
C40   C     C_R   0.718376 0.216691 0.823551 -0.144239
C41   C     C_R   0.223244 0.797345 0.187468 -0.129245
C42   C     C_R   0.138210 0.457457 0.637698 -0.152379
C43   C     C_R   0.869328 0.323138 0.318412 -0.170060
C44   C     C_R   0.948942 0.358547 0.555560 -0.265704
C45   C     C_R   0.662492 0.219656 0.744979 0.074917
C46   C     C_R   0.059135 0.408213 0.396799 -0.262602
C47   C     C_R   0.954965 0.349411 0.473122 0.185457
C48   C     C_R   0.053729 0.396534 0.473609 0.169046
C49   C     C_R   0.553253 0.147127 0.677842 0.119591
C50   C     C_R   0.279576 0.900010 0.359941 0.126373
C51   C     C_R   0.385438 0.089612 0.444147 -0.182350
C52   C     C_R   0.404867 0.974612 0.607390 -0.183996
C53   C     C_R   0.316575 0.999235 0.361227 -0.176694
C54   C     C_R   0.496688 0.056146 0.682883 -0.166222
C55   C     C_R   0.296999 0.894487 0.443487 -0.239706
C56   C     C_R   0.238833 0.803557 0.274066 0.060520
C57   C     C_R   0.508934 0.162422 0.602018 -0.223152
C58   C     C_R   0.370139 0.983686 0.526221 0.176824
C59   C     C_R   0.419049 0.080494 0.525369 0.191675
C60   C     C_R   0.657342 0.961792 0.907471 -0.182125
C61   C     C_R   0.300493 0.873762 0.924302 -0.171149
C62   C     C_R   0.762271 0.983911 0.931567 -0.200822
C63   C     C_R   0.210166 0.886802 0.897860 -0.162057
C64   C     C_R   0.303562 0.601250 0.010685 -0.130641
C65   C     C_R   0.735911 0.463321 0.047104 -0.125129
C66   C     C_R   0.799257 0.965718 0.862991 0.083170
C67   C     C_R   0.364716 0.573739 0.066394 0.070637
C68   C     C_R   0.202404 0.970507 0.958904 0.119518
C69   C     C_R   0.725825 0.311297 0.747100 -0.134267
C70   C     C_R   0.216208 0.702600 0.265102 -0.093413
C71   C     C_R   0.296898 0.502957 0.083549 -0.132262
C72   C     C_R   0.750239 0.563329 0.974017 -0.116329
C73   C     C_R   0.110885 0.536969 0.812854 -0.136206
C74   C     C_R   0.891811 0.397193 0.176469 -0.137406
C75   C     C_R   0.917015 0.195278 0.945180 -0.132669
C76   C     C_R   0.087361 0.795486 0.999071 -0.143906
C77   C     C_R   0.003385 0.176921 0.963151 0.055755
C78   C     C_R   0.706274 0.536589 0.029715 0.056816
C79   C     C_R   0.004221 0.799979 0.942565 0.069236
C80   C     C_1   0.381467 0.450160 0.388351 0.091897
C81   C     C_1   0.561810 0.595639 0.663937 0.106179
C82   C     C_1   0.478153 0.886914 0.789013 0.010958
C83   C     C_1   0.474619 0.928008 0.040759 -0.026817
C84   C     C_R   0.911415 0.883249 0.876498 -0.227542
H1    H     H_    0.171592 0.292320 0.057087 0.096060
H2    H     H_    0.662497 0.767090 0.825300 0.163185
H3    H     H_    0.662816 0.536334 0.173592 0.130252
H4    H     H_    0.479811 0.683465 0.004779 0.133570
H5    H     H_    0.135456 0.448963 0.400140 0.133215
H6    H     H_    0.872487 0.326078 0.554759 0.119763
H7    H     H_    0.796924 0.297397 0.260845 0.115511
H8    H     H_    0.209965 0.502841 0.700650 0.128511
H9    H     H_    0.221750 0.476958 0.555540 0.155668
H10   H     H_    0.787030 0.268126 0.391214 0.128390
H11   H     H_    0.857276 0.402309 0.681335 0.096036
H12   H     H_    0.838210 0.677535 0.863415 0.099325
H13   H     H_    0.144329 0.501135 0.295948 0.112688
H14   H     H_    0.571862 0.868399 0.674242 0.168717
H15   H     H_    0.445652 0.089962 0.135690 0.119040
H16   H     H_    0.548985 0.233204 0.597500 0.131478
H17   H     H_    0.264196 0.819493 0.444162 0.135820
H18   H     H_    0.526529 0.044958 0.742466 0.126727
H19   H     H_    0.300105 0.007142 0.298340 0.119145
H20   H     H_    0.420161 0.164339 0.443189 0.142932
H21   H     H_    0.366652 0.901485 0.609660 0.148276
H22   H     H_    0.629805 0.975788 0.960825 0.140317
H23   H     H_    0.757270 0.909147 0.716568 0.147241
H24   H     H_    0.302851 0.805355 0.878964 0.126411
H25   H     H_    0.814327 0.013459 0.003145 0.138188
H26   H     H_    0.143880 0.828056 0.832470 0.129781
H27   H     H_    0.687477 0.165148 0.851408 0.101013
H28   H     H_    0.233651 0.860511 0.168877 0.096727
H29   H     H_    0.330038 0.665416 0.993942 0.093036
H30   H     H_    0.716185 0.425543 0.088399 0.094683
H31   H     H_    0.703065 0.348166 0.705588 0.098523
H32   H     H_    0.219097 0.677563 0.318043 0.124148
H33   H     H_    0.315384 0.469929 0.129499 0.118666
H34   H     H_    0.285358 0.110661 0.091559 0.120913
H35   H     H_    0.752647 0.623282 0.952711 0.123204
H36   H     H_    0.193914 0.566084 0.832562 0.098334
H37   H     H_    0.811186 0.339449 0.148479 0.087061
H38   H     H_    0.838131 0.143229 0.895009 0.133648
H39   H     H_    0.169342 0.847145 0.027169 0.121427
H40   H     H_    0.838768 0.813256 0.848989 0.124599
H41   H     H_    0.167474 0.136062 0.970510 0.127715
H42   H     H_    0.510093 0.698576 0.292425 0.156219
H43   H     H_    0.476737 0.445394 0.848148 0.154786
H44   H     H_    0.499919 0.394690 0.162695 0.127325
H45   H     H_    0.672289 0.781190 0.976446 0.142449
H46   H     H_    0.430752 0.339950 0.263501 0.128339
I1    I     I_    0.434815 0.700591 0.444913 -0.536255
I2    I     I_    0.411312 0.360283 0.638221 -0.482278
N1    N     N_R   0.055660 0.348550 0.045620 -0.040594
N2    N     N_R   0.185200 0.638170 0.176300 -0.042274
N3    N     N_R   0.201680 0.494570 0.045620 -0.041657
N4    N     N_R   0.798320 0.505430 0.954380 -0.042631
N5    N     N_R   0.068420 0.560530 0.871650 -0.040315
N6    N     N_R   0.931580 0.439470 0.128350 -0.038783
N7    N     N_R   0.948070 0.295860 0.997670 -0.044041
N8    N     N_R   0.051930 0.704140 0.002330 -0.041440
N9    N     N_1   0.341604 0.419713 0.430248 -0.059106
N10   N     N_1   0.561941 0.593055 0.594982 -0.055650
N11   N     N_1   0.389797 0.861562 0.767930 -0.087777
N12   N     N_R   0.944340 0.651450 0.954380 -0.041953
N13   N     N_1   0.546170 0.913061 0.065565 -0.097670
N14   N     N_R   0.960830 0.507850 0.823700 -0.041522
N15   N     N_R   0.039170 0.492150 0.176300 -0.041676
N16   N     N_R   0.811290 0.303410 0.871650 -0.041944
N17   N     N_R   0.188710 0.696590 0.128350 -0.042323
N18   N     N_R   0.205200 0.552990 0.997670 -0.040850
N19   N     N_R   0.794800 0.447010 0.002330 -0.040801
N20   N     N_R   0.814800 0.361830 0.823700 -0.039480
Ni1   Ni    Ni4+2 0.119340 0.493420 0.109960 0.221655
Ni2   Ni    Ni4+2 0.880660 0.506580 0.890040 0.217456
Ni3   Ni    Ni4+2 0.872590 0.372590 0.000000 0.214377
Ni4   Ni    Ni4+2 0.127410 0.627410 0.000000 0.215395

loop_
_geom_bond_atom_site_label_1
_geom_bond_atom_site_label_2
_ccdc_geom_bond_type
N6    Ni3   S    
C27   C29   A    
C75   H38   S    
C1    C77   A    
C65   H30   S    
C14   C18   A    
C76   C79   A    
C19   C31   S    
C8    H34   S    
C41   C56   A    
C46   H5    S    
C15   C19   A    
C74   N6    A    
N1    Ni1   S    
C16   N14   A    
C19   C21   A    
N17   Ni4   S    
C24   C26   A    
C38   C42   A    
C71   N3    A    
C11   C14   A    
C1    N1    A    
C57   C59   A    
N2    Ni1   S    
C41   N17   A    
C11   C25   A    
C49   C54   A    
C25   C80   S    
C12   C79   A    
C10   C83   S    
C49   C57   A    
C38   H9    S    
C60   C62   A    
C33   H14   S    
C37   C42   A    
C61   C63   A    
C61   H24   S    
C72   C78   A    
C83   N13   T    
C29   C78   S    
C16   H11   S    
C22   C25   A    
C28   H4    S    
C36   C46   A    
C10   C35   A    
C65   C78   A    
N16   Ni3   S    
N19   Ni3   S    
C18   C20   A    
C30   C67   S    
C44   C47   A    
C9    C82   S    
C16   C23   A    
C3    C79   S    
C73   H36   S    
C15   H43   S    
C22   H46   S    
C9    C33   A    
C7    C33   A    
C23   C73   A    
C5    C68   S    
C35   H15   S    
C52   C54   A    
C40   H27   S    
C76   N8    A    
C1    H1    S    
C40   C45   A    
C46   C48   A    
C50   C53   A    
C6    C84   A    
C62   C66   A    
C45   C69   A    
C64   C67   A    
N8    N12   A    
N5    N14   A    
C4    C6    A    
C71   H33   S    
C39   C43   A    
C70   H32   S    
C58   C59   A    
C23   C37   S    
N2    N17   A    
C41   H28   S    
C43   H7    S    
C12   N12   A    
N5    Ni4   S    
C64   N18   A    
C51   C53   A    
C8    C35   A    
C65   N19   A    
C2    C4    A    
C2    H41   S    
C39   H10   S    
N4    Ni2   S    
C47   C48   A    
N14   Ni2   S    
C45   C49   S    
N6    N15   A    
C27   H3    S    
C75   C77   A    
C21   H45   S    
C52   C58   A    
C34   C74   A    
C81   N10   T    
N20   Ni2   S    
C52   H21   S    
C8    C68   A    
C26   C81   S    
C56   C70   A    
C13   C15   A    
C7    H23   S    
C13   C26   A    
C21   C24   A    
C10   C61   A    
C18   C32   S    
C17   C34   A    
N4    N19   A    
C44   H6    S    
C39   C47   A    
C63   C68   A    
C69   H31   S    
C40   N16   A    
C64   H29   S    
C42   H8    S    
C17   N15   A    
C27   C32   A    
C69   N20   A    
C38   C48   A    
C54   H18   S    
C28   C31   A    
N16   N20   A    
C20   C22   A    
C82   N11   T    
C3    C5    A    
C14   H42   S    
N1    N7    A    
C60   H22   S    
C24   H2    S    
C84   H40   S    
N3    N18   A    
N7    Ni3   S    
C55   H17   S    
C50   C55   A    
N3    Ni1   S    
C20   H44   S    
C9    C60   A    
C63   H26   S    
C28   C30   A    
C51   H20   S    
C11   I1    S    
C4    C77   S    
C29   C31   A    
C75   N7    A    
C7    C66   A    
C30   C32   A    
C57   H16   S    
C62   H25   S    
C73   N5    A    
C53   H19   S    
C72   H35   S    
C13   I2    S    
C67   C71   A    
N8    Ni4   S    
N12   Ni2   S    
N15   Ni1   S    
C50   C56   S    
C72   N4    A    
C2    C5    A    
C37   C44   A    
C6    C66   S    
C74   H37   S    
C51   C59   A    
C34   C36   S    
C80   N9    T    
C55   C58   A    
C3    C84   A    
C70   N2    A    
C12   H12   S    
C36   C43   A    
N18   Ni4   S    
C17   H13   S    
C76   H39   S    
