data_mof_unit_39899.cif
_audit_creation_date              2013-03-05T16:33:14-0500
_audit_creation_method            fapswitch 2.2
_symmetry_space_group_name_H-M    P1
_symmetry_Int_Tables_number       1
_space_group_crystal_system       triclinic
_cell_length_a                    27.779328
_cell_length_b                    10.824081
_cell_length_c                    9.533462
_cell_angle_alpha                 90.29733
_cell_angle_beta                  89.835131
_cell_angle_gamma                 90.5349
_cell_volume                      2866.40067267

loop_
_atom_site_label
_atom_site_type_symbol
_atom_site_description
_atom_site_fract_x
_atom_site_fract_y
_atom_site_fract_z
_atom_type_partial_charge
O1    O     O_R   0.500000 0.319640 0.618810 -0.583809
O2    O     O_R   0.500010 0.319680 0.381230 -0.591123
C1    C     C_R   0.499166 0.262312 0.499503 0.811968
O3    O     O_R   0.430260 0.500000 0.618780 -0.576480
O4    O     O_R   0.430270 0.500040 0.381190 -0.579281
C2    C     C_R   0.407406 0.499675 0.500307 0.811150
Cu1   Cu    Cu3+1 0.500000 0.499980 0.640670 0.966218
Cu2   Cu    Cu3+1 0.500000 0.500020 0.359330 0.960557
O5    O     O_R   0.499990 0.680320 0.618770 -0.567633
O6    O     O_R   0.500000 0.680360 0.381190 -0.579521
O7    O     O_R   0.569730 0.499960 0.618810 -0.587269
O8    O     O_R   0.569740 0.500000 0.381220 -0.586103
C3    C     C_R   0.498888 0.737752 0.500113 0.817613
C4    C     C_R   0.592660 0.498510 0.499816 0.824301
C5    C     C_R   0.178295 0.377624 0.488098 0.600655
O9    O     O_2   0.204191 0.278408 0.448970 -0.455152
N1    N     N_R   0.201732 0.486992 0.514196 -0.477810
C6    C     C_R   0.177357 0.590231 0.554423 0.571391
C7    C     C_R   0.277694 0.486349 0.380446 -0.079107
C8    C     C_R   0.327968 0.489853 0.376846 -0.195294
C9    C     C_R   0.329578 0.503056 0.630973 -0.187385
C10   C     C_R   0.279476 0.499798 0.634212 -0.085781
C11   C     C_R   0.253343 0.491333 0.509215 0.330729
C12   C     C_R   0.101809 0.476674 0.536443 -0.085633
C13   C     C_R   0.127624 0.368670 0.502767 -0.175854
C14   C     C_R   0.102483 0.254705 0.494305 0.274477
C15   C     C_R   0.127129 0.586901 0.566941 -0.040818
C16   C     C_R   0.354359 0.497959 0.502290 -0.046917
H1    H     H_    0.348843 0.509303 0.729397 0.170572
H2    H     H_    0.260838 0.503263 0.734071 0.149956
C17   C     C_R   0.645827 0.493700 0.499543 -0.105999
C18   C     C_R   0.974456 0.366295 0.497071 0.081396
C19   C     C_R   0.975016 0.588054 0.556920 0.044788
C20   C     C_R   0.949526 0.478083 0.522345 0.082227
C21   C     C_R   0.947829 0.264804 0.442806 -0.113440
C22   C     C_R   0.897880 0.266646 0.435336 -0.128523
C23   C     C_R   0.872770 0.373458 0.470942 -0.026918
C24   C     C_R   0.898634 0.481096 0.507945 -0.044032
C25   C     C_R   0.873639 0.592425 0.527598 -0.025505
C26   C     C_R   0.823163 0.591712 0.521927 0.610105
N2    N     N_R   0.798605 0.483922 0.495853 -0.451951
C27   C     C_R   0.822289 0.376572 0.466463 0.612005
C28   C     C_R   0.721607 0.483021 0.373071 -0.127141
C29   C     C_R   0.671530 0.487540 0.372841 -0.191445
C30   C     C_R   0.671299 0.492771 0.626564 -0.270930
C31   C     C_R   0.721727 0.487344 0.628674 0.383888
C32   C     C_R   0.746978 0.483531 0.499718 0.231128
O10   O     O_2   0.797037 0.273011 0.435091 -0.508498
C33   C     C_R   0.025401 0.362771 0.514358 -0.089985
C34   C     C_R   0.050770 0.474853 0.541116 0.019672
C35   C     C_R   0.025582 0.584743 0.576528 0.011786
C36   C     C_R   0.052083 0.250864 0.510372 0.217795
H3    H     H_    0.653097 0.485690 0.273292 0.168422
H4    H     H_    0.740914 0.479833 0.274272 0.187207
H5    H     H_    0.879111 0.184759 0.397924 0.198516
H6    H     H_    0.964894 0.183771 0.400489 0.193385
O11   O     O_2   0.201768 0.695998 0.581972 -0.489781
C37   C     C_R   0.102294 0.688767 0.619454 -0.106742
H7    H     H_    0.346104 0.485591 0.276252 0.165702
H8    H     H_    0.257648 0.479830 0.283407 0.152250
H9    H     H_    0.121848 0.768786 0.658647 0.226565
C38   C     C_R   0.949556 0.700217 0.555937 -0.150657
C39   C     C_R   0.899638 0.702137 0.547380 -0.117023
O12   O     O_2   0.798765 0.697435 0.543183 -0.507984
C40   C     C_R   0.052489 0.685593 0.633544 0.139814
H10   H     H_    0.967904 0.788317 0.555238 0.203057
H11   H     H_    0.651957 0.493883 0.724780 0.182792
H12   H     H_    0.881638 0.790408 0.552594 0.201859
C41   C     C_R   0.483302 0.064358 0.619030 0.095525
C42   C     C_R   0.494320 0.129271 0.497041 -0.099536
C43   C     C_R   0.497820 0.063629 0.369870 -0.191527
H13   H     H_    0.503445 0.110922 0.271227 0.171864
C44   C     C_R   0.497708 0.934920 0.370491 -0.175270
H14   H     H_    0.503418 0.886552 0.272155 0.182520
C45   C     C_R   0.493803 0.870769 0.498217 -0.135350
C46   C     C_R   0.482390 0.937294 0.619713 0.140793
C47   C     C_3   0.502047 0.932465 0.765355 -0.026546
C48   C     C_3   0.503923 0.072968 0.763003 -0.483891
H15   H     H_    0.538163 0.889679 0.769989 0.136454
H16   H     H_    0.478863 0.117917 0.838100 0.215415
H17   H     H_    0.541232 0.111148 0.763417 0.192122
C49   C     C_R   0.521015 0.595068 0.074163 0.281477
N3    N     N_R   0.500300 0.500930 0.147930 -0.191494
C50   C     C_R   0.474804 0.413519 0.074172 -0.069240
H18   H     H_    0.455196 0.342131 0.129802 0.145894
C51   C     C_R   0.474686 0.413753 0.925171 -0.067938
H19   H     H_    0.454827 0.342888 0.869011 0.143243
N4    N     N_R   0.500310 0.500890 0.852020 -0.188827
C52   C     C_R   0.521394 0.594395 0.926787 0.299742
C53   C     C_3   0.573062 0.632255 0.922024 -0.483045
C54   C     C_3   0.572384 0.634910 0.080971 -0.486803
H20   H     H_    0.596341 0.558393 0.879609 0.218189
H21   H     H_    0.578679 0.724739 0.874815 0.199702
H22   H     H_    0.595850 0.563871 0.127387 0.216873
H23   H     H_    0.576599 0.729372 0.125852 0.203951
N5    N     N_R   0.746420 0.485135 0.761469 0.138248
O13   O     O_R   0.725436 0.526681 0.874266 -0.354288
O14   O     O_R   0.788223 0.433048 0.773323 -0.330343
I1    I     I_    0.026058 0.816194 0.783607 -0.160544
I2    I     I_    0.449346 0.863022 0.910251 -0.381557
N6    N     N_R   0.128088 0.140655 0.485856 0.200927
O15   O     O_R   0.132413 0.083764 0.366020 -0.256406
O16   O     O_R   0.145374 0.091205 0.598897 -0.270486
N7    N     N_R   0.029806 0.134940 0.547486 0.124997
O17   O     O_R   0.037102 0.035961 0.472608 -0.309291
O18   O     O_R   0.002871 0.127696 0.659123 -0.311979

loop_
_geom_bond_atom_site_label_1
_geom_bond_atom_site_label_2
_geom_bond_distance
_ccdc_geom_bond_type
N6    O15   1.300816 A    
Cu2   N3    2.015443 S    
N2    C27   1.367977 A    
C7    C8    1.397061 A    
C12   C15   1.408792 A    
C4    C17   1.478321 S    
C45   C46   1.397895 A    
N7    O18   1.301490 A    
Cu1   Cu2   2.682146 S    
C30   C31   1.402856 A    
Cu1   O7    1.947636 S    
N1    C11   1.434733 S    
C49   C52   1.404989 A    
C41   C46   1.375406 A    
C22   C23   1.395737 A    
C23   C24   1.407010 A    
C50   C51   1.420523 A    
C14   N6    1.432279 S    
C35   C40   1.423619 A    
C24   C25   1.407785 A    
O7    C4    1.299529 A    
C51   N4    1.368952 A    
C5    C13   1.416623 A    
C5    O9    1.348584 S    
C47   I2    2.143599 S    
C5    N1    1.367714 A    
C44   H14   1.083384 S    
C23   C27   1.403828 A    
Cu1   N4    2.014914 S    
O5    C3    1.294172 A    
C28   H4    1.083101 S    
C31   C32   1.414293 A    
C29   H3    1.079667 S    
C2    C16   1.473616 S    
C3    C45   1.448229 S    
C19   C38   1.410834 A    
N5    O14   1.301069 A    
C30   H11   1.078271 S    
C42   C43   1.405631 A    
C37   H9    1.083461 S    
N6    O16   1.300854 A    
O1    Cu1   1.962032 S    
C9    C10   1.392186 A    
C44   C45   1.408287 A    
C41   C48   1.490956 S    
O3    Cu1   1.949140 S    
C37   C40   1.389793 A    
N7    O17   1.301442 A    
C34   C35   1.424204 A    
C46   C47   1.494790 S    
C47   H15   1.110006 S    
C12   C34   1.418368 A    
C17   C29   1.403008 A    
C38   H10   1.077116 S    
C18   C21   1.415152 A    
C1    C42   1.445149 S    
C12   C13   1.412239 A    
C40   I1    2.139277 S    
O3    C2    1.297217 A    
C25   C26   1.403351 A    
C43   C44   1.393172 A    
C51   H19   1.081157 S    
C8    C16   1.406472 A    
C13   C14   1.413914 A    
C47   C48   1.521501 S    
C9    H1    1.083053 S    
O6    C3    1.290381 A    
C49   C54   1.488373 S    
O1    C1    1.292996 A    
C21   C22   1.389928 A    
C18   C20   1.418940 A    
C7    C11   1.400982 A    
C28   C29   1.392422 A    
C38   C39   1.389659 A    
C14   C36   1.408245 A    
C6    O11   1.350150 S    
C53   H20   1.107105 S    
N3    C50   1.369198 A    
Cu2   O8    1.949134 S    
C33   C36   1.426237 A    
N5    O13   1.301793 A    
N1    C6    1.364727 A    
N2    C32   1.434487 S    
C27   O10   1.349473 S    
C50   H18   1.081570 S    
C8    H7    1.082986 S    
C26   N2    1.368052 A    
C9    C16   1.406096 A    
O8    C4    1.299426 A    
C49   N3    1.363140 A    
C53   H21   1.109221 S    
Cu1   O5    1.964227 S    
C39   H12   1.083369 S    
C36   N7    1.439251 S    
C10   H2    1.083003 S    
C21   H6    1.076940 S    
C20   C24   1.421477 A    
O2    Cu2   1.964229 S    
C6    C15   1.400180 A    
C15   C37   1.396007 A    
O4    Cu2   1.947639 S    
C7    H8    1.082808 S    
C19   C35   1.418427 A    
C25   C39   1.396363 A    
C26   O12   1.349528 S    
O2    C1    1.290101 A    
C43   H13   1.083275 S    
C22   H5    1.083430 S    
C54   H22   1.107485 S    
C48   H17   1.112180 S    
C53   C54   1.515505 S    
O4    C2    1.299559 A    
C19   C20   1.417204 A    
C48   H16   1.110746 S    
C41   C42   1.393657 A    
C18   C33   1.426164 A    
C54   H23   1.111641 S    
C31   N5    1.442032 S    
N4    C52   1.363564 A    
Cu2   O6    1.962031 S    
C33   C34   1.419642 A    
C17   C30   1.404411 A    
C10   C11   1.399293 A    
C52   C53   1.489601 S    
C28   C32   1.399750 A    
