data_mof_unit_39268.cif
_audit_creation_date              2012-12-10T18:42:29-0500
_audit_creation_method            fapswitch 2.2
_symmetry_space_group_name_H-M    P1
_symmetry_Int_Tables_number       1
_space_group_crystal_system       triclinic
_cell_length_a                    8.653075
_cell_length_b                    10.663664
_cell_length_c                    9.849333
_cell_angle_alpha                 89.801726
_cell_angle_beta                  98.207773
_cell_angle_gamma                 90.177333
_cell_volume                      899.514497306

loop_
_atom_site_label
_atom_site_type_symbol
_atom_type_description
_atom_site_fract_x
_atom_site_fract_y
_atom_site_fract_z
_atom_type_partial_charge
C1    C     C_R   0.502784 0.260261 0.500579 0.870613
C2    C     C_R   0.497215 0.739739 0.499420 0.870609
C3    C     C_R   0.201889 0.498666 0.465013 0.914083
C4    C     C_R   0.798111 0.501334 0.534987 0.914086
C5    C     C_2   0.039770 0.479128 0.450202 -0.244762
C6    C     C_2   0.960230 0.520872 0.549798 -0.244759
C7    C     C_R   0.402444 0.067069 0.399765 -0.231724
C8    C     C_R   0.597553 0.932933 0.600235 -0.231708
C9    C     C_R   0.396877 0.938260 0.397859 -0.003593
C10   C     C_R   0.603131 0.061742 0.602137 -0.003590
C11   C     C_R   0.495752 0.872174 0.498685 -0.070307
C12   C     C_R   0.504246 0.127826 0.501314 -0.070295
C13   C     C_R   0.603181 0.572828 0.084547 -0.044065
C14   C     C_R   0.396819 0.427172 0.915453 -0.044068
C15   C     C_R   0.603132 0.572807 0.940702 -0.049937
C16   C     C_R   0.396868 0.427193 0.059298 -0.049936
H1    H     H_    0.325577 0.120353 0.324008 0.154406
H2    H     H_    0.674424 0.879649 0.675990 0.154402
H3    H     H_    0.685711 0.631066 0.149097 0.136245
H4    H     H_    0.314288 0.368935 0.850903 0.136250
H5    H     H_    0.685587 0.631066 0.896331 0.133602
H6    H     H_    0.314413 0.368934 0.103669 0.133603
N1    N     N_R   0.499960 0.499970 0.857200 -0.085440
N2    N     N_R   0.500040 0.500030 0.142800 -0.085439
O1    O     O_R   0.499990 0.316750 0.614620 -0.617464
O2    O     O_R   0.500010 0.683250 0.385380 -0.617464
O3    O     O_R   0.499990 0.316780 0.385290 -0.619581
O4    O     O_R   0.500010 0.683220 0.614710 -0.619578
O5    O     O_R   0.271750 0.499990 0.587840 -0.614077
O6    O     O_R   0.728250 0.500010 0.412160 -0.614080
O7    O     O_R   0.271750 0.500010 0.358510 -0.618451
O8    O     O_R   0.728250 0.499990 0.641490 -0.618451
Zn1   Zn    Zn3+2 0.500000 0.499980 0.653120 0.972569
Zn2   Zn    Zn3+2 0.500000 0.500020 0.346880 0.972568
C17   C     C_1   0.975627 0.396240 0.338551 0.214169
N3    N     N_1   0.925116 0.330415 0.249877 -0.190057
C18   C     C_1   0.024373 0.603760 0.661449 0.214168
N4    N     N_1   0.074884 0.669585 0.750123 -0.190055
C19   C     C_1   0.285676 0.876724 0.295649 0.181007
N5    N     N_1   0.196718 0.827423 0.213976 -0.187238
C20   C     C_1   0.714384 0.123281 0.704331 0.180970
N6    N     N_1   0.803392 0.172587 0.785991 -0.187233

loop_
_geom_bond_atom_site_label_1
_geom_bond_atom_site_label_2
_ccdc_geom_bond_type
C14   N1    A    
C3    O7    A    
C18   N4    T    
C14   H4    S    
C2    O4    A    
C20   N6    T    
C17   N3    T    
C15   H5    S    
O8    Zn1   S    
C15   N1    A    
O7    Zn2   S    
C4    O6    A    
C2    O2    A    
C10   C20   S    
C1    O1    A    
C9    C11   A    
C3    O5    A    
C4    O8    A    
C1    C12   S    
C10   C12   A    
C8    C11   A    
C2    C11   S    
C5    C17   S    
C4    C6    S    
O4    Zn1   S    
C7    C9    A    
C13   C15   A    
O3    Zn2   S    
C5    C6    D    
C14   C16   A    
C7    C12   A    
C6    C18   S    
C13   H3    S    
O5    Zn1   S    
C9    C19   S    
N1    Zn1   S    
C16   N2    A    
C19   N5    T    
C1    O3    A    
O6    Zn2   S    
C16   H6    S    
C7    H1    S    
O2    Zn2   S    
C8    C10   A    
C8    H2    S    
C13   N2    A    
O1    Zn1   S    
C3    C5    S    
N2    Zn2   S    
