data_mof_unit_28661.cif
_audit_creation_date              2012-12-10T17:22:26-0500
_audit_creation_method            fapswitch 2.2
_symmetry_space_group_name_H-M    P1
_symmetry_Int_Tables_number       1
_space_group_crystal_system       triclinic
_cell_length_a                    19.352914
_cell_length_b                    19.762759
_cell_length_c                    19.458782
_cell_angle_alpha                 110.147665
_cell_angle_beta                  107.225733
_cell_angle_gamma                 110.184526
_cell_volume                      5785.03698225

loop_
_atom_site_label
_atom_site_type_symbol
_atom_type_description
_atom_site_fract_x
_atom_site_fract_y
_atom_site_fract_z
_atom_type_partial_charge
C1    C     C_R   0.379529 0.381081 0.500534 0.894096
C2    C     C_3   0.805045 0.504477 0.817014 -0.153819
C3    C     C_3   0.849596 0.566676 0.786766 -0.111703
C4    C     C_3   0.751491 0.541976 0.857235 -0.287744
C5    C     C_R   0.360466 0.408362 0.662633 -0.048326
C6    C     C_R   0.368162 0.407350 0.737431 -0.183508
C7    C     C_R   0.332631 0.331638 0.733462 -0.175903
C8    C     C_R   0.264504 0.264961 0.656910 -0.168406
C9    C     C_R   0.251140 0.259559 0.576778 -0.010230
C10   C     C_R   0.308376 0.330230 0.578739 0.045040
C11   C     C_R   0.182653 0.186946 0.497078 -0.069128
C12   C     C_R   0.616799 0.497209 0.621641 0.840237
C13   C     C_R   0.173628 0.180391 0.416667 0.112652
C14   C     C_R   0.241458 0.242459 0.417609 0.054819
C15   C     C_R   0.308437 0.317505 0.498975 -0.122886
C16   C     C_R   0.101192 0.113536 0.333323 -0.194366
C17   C     C_R   0.099474 0.106229 0.258135 -0.139978
C18   C     C_R   0.170883 0.152753 0.259347 -0.116773
C19   C     C_R   0.237256 0.224100 0.334805 -0.195521
C20   C     C_R   0.221409 0.493625 0.388903 -0.091782
C21   C     C_R   0.154234 0.498681 0.401470 -0.129532
C22   C     C_R   0.098761 0.504956 0.343863 -0.102866
C23   C     C_R   0.615076 0.618991 0.492569 0.789139
C24   C     C_R   0.104781 0.500016 0.271955 -0.200509
C25   C     C_R   0.174032 0.497227 0.256529 0.060136
C26   C     C_R   0.236794 0.495955 0.318986 0.038626
C27   C     C_R   0.183531 0.498379 0.184107 -0.088842
C28   C     C_R   0.252960 0.492236 0.171280 0.042733
C29   C     C_R   0.314297 0.487779 0.231946 0.053880
C30   C     C_R   0.309584 0.495085 0.309193 -0.109171
C31   C     C_R   0.264284 0.489912 0.098412 -0.082756
C32   C     C_R   0.330434 0.484564 0.085589 -0.138873
C33   C     C_R   0.382074 0.470919 0.136825 -0.128207
C34   C     C_R   0.378959 0.499302 0.378585 0.750168
C35   C     C_R   0.378285 0.475666 0.209939 -0.073937
C36   C     C_R   0.596430 0.753803 0.467114 -0.015969
C37   C     C_R   0.588864 0.821199 0.465519 -0.099949
C38   C     C_R   0.659287 0.896042 0.501013 -0.100070
C39   C     C_R   0.735380 0.897572 0.513352 -0.020707
C40   C     C_R   0.743407 0.822936 0.499182 0.022732
C41   C     C_R   0.673838 0.752470 0.484689 0.021889
C42   C     C_R   0.816723 0.816820 0.500649 -0.059580
C43   C     C_R   0.822196 0.741736 0.486886 0.072001
C44   C     C_R   0.751096 0.672190 0.471202 0.073191
C45   C     C_3   0.675948 0.405099 0.658675 -0.290344
C46   C     C_R   0.681425 0.681972 0.483302 -0.104193
C47   C     C_R   0.896317 0.731875 0.490688 -0.060480
C48   C     C_R   0.898687 0.658516 0.481743 -0.131211
C49   C     C_R   0.823278 0.586860 0.445848 -0.177336
C50   C     C_R   0.755502 0.596216 0.450429 -0.100666
C51   C     C_R   0.997476 0.380132 0.876440 0.802567
C52   C     C_R   0.876136 0.502490 0.880128 0.646775
C53   C     C_R   0.999266 0.619191 0.121189 0.811747
C54   C     C_R   0.117857 0.500960 0.119019 0.755148
C55   C     C_R   0.000100 0.880720 0.381715 0.760349
C56   C     C_3   0.739388 0.405987 0.736916 -0.263113
C57   C     C_R   0.118789 0.118334 0.498376 0.818468
C58   C     C_R   0.998291 0.118584 0.617434 0.836021
C59   C     C_R   0.881863 0.883785 0.502497 0.762356
C60   C     C_R   0.006769 0.392709 0.725544 -0.039633
C61   C     C_R   0.003725 0.399688 0.655699 -0.093224
C62   C     C_R   0.991689 0.335843 0.588345 -0.168744
C63   C     C_R   0.988240 0.264689 0.593739 -0.097286
C64   C     C_R   0.992686 0.253963 0.668273 0.080818
C65   C     C_R   0.999210 0.320604 0.735526 0.023325
C66   C     C_R   0.993769 0.183956 0.679761 -0.016927
C67   C     C_3   0.778385 0.570910 0.722273 -0.182565
C68   C     C_R   0.992720 0.175592 0.751764 0.066930
C69   C     C_R   0.997419 0.241809 0.818021 0.066026
C70   C     C_R   0.998844 0.313505 0.809332 -0.091083
C71   C     C_R   0.986415 0.102213 0.760521 -0.032397
C72   C     C_R   0.994422 0.098888 0.833403 -0.082263
C73   C     C_R   0.003783 0.163477 0.898481 -0.173536
C74   C     C_R   0.002140 0.231806 0.891324 -0.144653
C75   C     C_R   0.160824 0.766783 0.270046 -0.087118
C76   C     C_R   0.236382 0.838470 0.334983 -0.080749
C77   C     C_R   0.235306 0.902547 0.391325 -0.062750
C78   C     C_3   0.673999 0.533974 0.783273 -0.261020
C79   C     C_R   0.159497 0.899271 0.381708 -0.061989
C80   C     C_R   0.078615 0.823633 0.320172 0.054865
C81   C     C_R   0.079235 0.756433 0.260249 -0.009764
C82   C     C_R   0.999198 0.812910 0.317008 -0.093211
C83   C     C_R   0.921307 0.734052 0.259764 -0.061254
C84   C     C_R   0.923682 0.665398 0.206143 0.105598
C85   C     C_R   0.999992 0.681638 0.195629 -0.056232
C86   C     C_R   0.838377 0.719124 0.249759 -0.058960
C87   C     C_R   0.764997 0.640163 0.199797 -0.109900
C88   C     C_R   0.771483 0.570636 0.165644 -0.195298
C89   C     C_3   0.683685 0.499680 0.693901 -0.162013
C90   C     C_R   0.845473 0.584550 0.160009 -0.026462
O1    O     O_R   0.408690 0.356690 0.448570 -0.597341
O2    O     O_R   0.049540 0.460090 0.906170 -0.606420
O3    O     O_R   0.853530 0.448360 0.905250 -0.529704
O4    O     O_R   0.956970 0.551730 0.905180 -0.691642
O5    O     O_R   0.945170 0.540000 0.088470 -0.584679
O6    O     O_R   0.048600 0.643370 0.088400 -0.595868
O7    O     O_R   0.037740 0.448360 0.089460 -0.544790
O8    O     O_R   0.141170 0.551730 0.089390 -0.591998
O9    O     O_R   0.948510 0.908450 0.356890 -0.534221
O10   O     O_R   0.052500 0.908420 0.460860 -0.648030
O11   O     O_R   0.039610 0.091640 0.448030 -0.613546
O12   O     O_R   0.408090 0.460090 0.551440 -0.625964
O13   O     O_R   0.143600 0.091610 0.551990 -0.622718
O14   O     O_R   0.947500 0.091600 0.539170 -0.641871
O15   O     O_R   0.051490 0.091570 0.643140 -0.537103
O16   O     O_R   0.856400 0.908420 0.448030 -0.652216
O17   O     O_R   0.960390 0.908390 0.552000 -0.575002
O18   O     O_R   0.592400 0.448300 0.540670 -0.524560
O19   O     O_R   0.591800 0.551700 0.643540 -0.564244
O20   O     O_R   0.591910 0.539910 0.448560 -0.629338
O21   O     O_R   0.591310 0.643310 0.551430 -0.582849
O22   O     O_R   0.408200 0.448300 0.356460 -0.566421
O23   O     O_R   0.407600 0.551700 0.459330 -0.575165
O24   O     O_R   0.946100 0.356720 0.906240 -0.589615
Zn1   Zn    Zn3+2 0.500400 0.430960 0.431310 1.209610
Zn2   Zn    Zn3+2 0.499600 0.569040 0.568690 1.100949
Zn3   Zn    Zn3+2 0.928290 0.431030 0.997370 1.238683
Zn4   Zn    Zn3+2 0.066410 0.569060 0.997270 1.108513
Zn5   Zn    Zn3+2 0.930570 0.000030 0.430590 1.089927
Zn6   Zn    Zn3+2 0.069430 0.999990 0.569430 1.160115
C91   C     C_2   0.688071 0.372968 0.577814 1.073483
O25   O     O_2   0.629694 0.339103 0.508082 -0.529486
O26   O     O_R   0.762036 0.376046 0.579667 -0.690257
H1    H     H_    0.758501 0.351199 0.522798 0.399240
C92   C     C_2   0.803471 0.635632 0.933892 0.876089
O27   O     O_2   0.788010 0.652688 0.992444 -0.512768
O28   O     O_R   0.847779 0.705227 0.930194 -0.753841
H2    H     H_    0.874872 0.759823 0.983435 0.384321
C93   C     C_2   0.778104 0.654435 0.745784 0.402187
H3    H     H_    0.731294 0.657372 0.702091 0.140682
O29   O     O_2   0.830526 0.721113 0.807594 -0.445170
C94   C     C_2   0.919851 0.653985 0.856687 0.531648
H4    H     H_    0.945355 0.668463 0.920530 0.121409
O30   O     O_2   0.957763 0.706420 0.841779 -0.503684
C95   C     C_2   0.172814 0.125980 0.177256 0.978449
O31   O     O_2   0.161261 0.056083 0.138172 -0.543847
O32   O     O_R   0.184889 0.179437 0.144504 -0.685338
H5    H     H_    0.188274 0.155661 0.091166 0.391473
C96   C     C_2   0.420549 0.493461 0.685842 0.985416
O33   O     O_2   0.489412 0.507473 0.694699 -0.607234
O34   O     O_R   0.403927 0.559016 0.704326 -0.738908
H6    H     H_    0.453139 0.611571 0.717914 0.337515
C97   C     C_2   0.412276 0.485810 0.821615 1.012136
O35   O     O_2   0.461353 0.492136 0.883248 -0.543346
O36   O     O_R   0.395184 0.550841 0.830754 -0.718510
H7    H     H_    0.431618 0.600657 0.888964 0.364841
C98   C     C_2   0.346398 0.329182 0.812757 1.033925
O37   O     O_2   0.407126 0.325907 0.850480 -0.513123
O38   O     O_R   0.287838 0.328767 0.841707 -0.711590
H8    H     H_    0.290775 0.307480 0.882518 0.386862
C99   C     C_2   0.197183 0.226946 0.673243 1.010488
O39   O     O_2   0.200632 0.183040 0.704660 -0.512311
O40   O     O_R   0.138733 0.252208 0.667176 -0.811773
H9    H     H_    0.141542 0.286077 0.638311 0.331181
C100  C     C_2   0.024851 0.039919 0.310189 1.027817
O41   O     O_2   0.960092 0.042683 0.297380 -0.528741
O42   O     O_R   0.021025 0.963340 0.284933 -0.725555
H10   H     H_    0.074119 0.965552 0.285090 0.344804
C101  C     C_2   0.022875 0.044509 0.174274 0.975745
O43   O     O_2   0.984399 0.069076 0.136430 -0.561267
O44   O     O_R   0.997727 0.959763 0.138671 -0.734703
H11   H     H_    0.945267 0.924466 0.083118 0.368855
C102  C     C_2   0.585389 0.331667 0.616805 1.035087
O45   O     O_2   0.573665 0.262135 0.603018 -0.580678
O46   O     O_R   0.516471 0.337355 0.576145 -0.735076
H12   H     H_    0.461634 0.284436 0.549703 0.360628
C103  C     C_2   0.289642 0.276616 0.311979 1.039938
O47   O     O_2   0.340765 0.260679 0.295220 -0.500236
O48   O     O_R   0.267478 0.327754 0.289105 -0.725935
H13   H     H_    0.231193 0.342529 0.312576 0.310566
C104  C     C_2   0.442181 0.450313 0.112014 0.927586
O49   O     O_2   0.416061 0.389659 0.045326 -0.564735
O50   O     O_R   0.527806 0.501458 0.164343 -0.749736
H14   H     H_    0.561678 0.478368 0.144460 0.356134
C105  C     C_2   0.272668 0.489328 0.456393 0.979298
O51   O     O_2   0.255503 0.422329 0.452691 -0.683377
O52   O     O_R   0.328075 0.564442 0.531609 -0.675050
H15   H     H_    0.356440 0.556527 0.578243 0.385633
C106  C     C_2   0.138758 0.495820 0.474739 0.976009
O53   O     O_2   0.068880 0.472684 0.468243 -0.608090
O54   O     O_R   0.202043 0.519205 0.550605 -0.724657
H16   H     H_    0.180788 0.509379 0.590096 0.365621
C107  C     C_2   0.032236 0.519163 0.359880 0.986511
O55   O     O_2   0.047232 0.591287 0.399481 -0.589612
O56   O     O_R   0.952589 0.449960 0.325358 -0.702007
H17   H     H_    0.912475 0.467781 0.338888 0.336494
C108  C     C_2   0.032855 0.501949 0.220371 0.954700
O57   O     O_2   0.965793 0.437080 0.173246 -0.456232
O58   O     O_R   0.034360 0.577030 0.243031 -0.834902
H18   H     H_    0.088531 0.625689 0.292788 0.301495
C109  C     C_2   0.210241 0.488467 0.026992 1.045912
O59   O     O_2   0.157587 0.421385 0.965348 -0.642103
O60   O     O_R   0.234410 0.562283 0.023596 -0.716790
H19   H     H_    0.200872 0.554210 0.967383 0.386688
C110  C     C_2   0.350731 0.496580 0.018922 0.530366
H20   H     H_    0.415219 0.530691 0.033457 0.087448
O61   O     O_2   0.297298 0.466608 0.947944 -0.480872
C111  C     C_2   0.447878 0.468969 0.256433 0.982607
O62   O     O_2   0.441165 0.400112 0.237407 -0.532176
O63   O     O_R   0.525776 0.540795 0.307809 -0.802026
H21   H     H_    0.573003 0.527853 0.317496 0.370675
C112  C     C_2   0.820856 0.504745 0.425378 0.408465
H22   H     H_    0.789876 0.455839 0.360419 0.114688
O64   O     O_2   0.848691 0.490683 0.481537 -0.471316
C113  C     C_2   0.690443 0.342805 0.760539 1.135942
O65   O     O_2   0.714542 0.297284 0.776266 -0.508759
O66   O     O_R   0.615901 0.333104 0.761591 -0.767604
H23   H     H_    0.593545 0.292730 0.781018 0.385689
C114  C     C_2   0.519177 0.688032 0.450857 0.541382
H24   H     H_    0.489345 0.627605 0.397818 0.045732
O67   O     O_2   0.487627 0.704111 0.495791 -0.498846
C115  C     C_2   0.505715 0.812918 0.424776 0.501559
H25   H     H_    0.492567 0.861382 0.453350 0.095738
O68   O     O_2   0.452313 0.751972 0.357433 -0.501826
C116  C     C_2   0.650760 0.971975 0.518598 0.458529
H26   H     H_    0.611330 0.975602 0.468667 0.046129
O69   O     O_2   0.686749 0.030017 0.589485 -0.427348
C117  C     C_2   0.797088 0.978507 0.531485 0.374144
H27   H     H_    0.796516 0.988239 0.479668 0.139634
O70   O     O_2   0.832159 0.038828 0.600333 -0.580663
C118  C     C_2   0.967253 0.783872 0.485011 0.640004
H28   H     H_    0.960395 0.770018 0.423899 -0.000170
O71   O     O_2   0.036311 0.832994 0.547043 -0.439556
C119  C     C_2   0.979004 0.652925 0.508400 0.517597
H29   H     H_    0.979462 0.601243 0.517643 0.137065
O72   O     O_2   0.046400 0.704796 0.520933 -0.458834
C120  C     C_2   0.725297 0.551935 0.487034 1.065534
O73   O     O_2   0.682723 0.475633 0.450128 -0.514760
O74   O     O_R   0.735723 0.603861 0.562831 -0.878778
H30   H     H_    0.691545 0.575782 0.575023 0.311096
C121  C     C_2   0.008110 0.153926 0.973180 0.530405
H31   H     H_    0.957615 0.101139 0.966064 0.098673
O75   O     O_2   0.069549 0.202137 0.041088 -0.471299
C122  C     C_2   0.016341 0.466758 0.784230 0.466782
H32   H     H_    0.967631 0.460884 0.800263 0.034794
O76   O     O_2   0.080592 0.533507 0.819297 -0.553466
C123  C     C_2   0.008240 0.475232 0.650249 0.416722
H33   H     H_    0.064223 0.521586 0.657926 -0.033337
O77   O     O_2   0.071250 0.527399 0.658897 0.008152
C124  C     C_2   0.787625 0.364887 0.707994 0.456613
H34   H     H_    0.848186 0.399546 0.719038 0.088746
O78   O     O_2   0.753811 0.289882 0.660975 -0.479267
C125  C     C_2   0.975619 0.343951 0.509894 0.976025
O79   O     O_2   0.933516 0.375379 0.492185 -0.542455
O80   O     O_R   0.009103 0.318760 0.458002 -0.757208
H35   H     H_    0.986152 0.320357 0.404638 0.388917
C126  C     C_2   0.975336 0.207217 0.513752 1.021037
O81   O     O_2   0.904251 0.157099 0.457221 -0.573784
O82   O     O_R   0.042553 0.224392 0.496701 -0.792029
H36   H     H_    0.023595 0.197665 0.434828 0.392295
C127  C     C_2   0.967920 0.021921 0.697314 0.514185
H37   H     H_    0.906168 0.978126 0.647457 0.063759
O83   O     O_2   0.020502 0.000296 0.708497 -0.483171
C128  C     C_2   0.991142 0.025116 0.842240 0.947188
O84   O     O_2   0.051710 0.033732 0.895978 -0.545986
O85   O     O_R   0.919524 0.946619 0.788999 -0.779668
H38   H     H_    0.925968 0.901754 0.799419 0.386888
C129  C     C_2   0.006939 0.287215 0.967602 1.038342
O86   O     O_2   0.942960 0.271950 0.974128 -0.508887
O87   O     O_R   0.083642 0.339235 0.038748 -0.757642
H39   H     H_    0.130837 0.334246 0.029710 0.339834
C130  C     C_2   0.691728 0.486504 0.110077 0.898315
O88   O     O_2   0.637500 0.474474 0.047505 -0.592560
O89   O     O_R   0.683074 0.419907 0.124048 -0.730480
H40   H     H_    0.628956 0.366424 0.079059 0.381295
C131  C     C_2   0.176956 0.703841 0.221736 0.581685
H41   H     H_    0.173014 0.654142 0.234469 0.012152
O90   O     O_2   0.206980 0.715147 0.176626 -0.482037
C132  C     C_2   0.319459 0.847342 0.347694 0.483804
H42   H     H_    0.367256 0.901956 0.354596 0.089098
O91   O     O_2   0.335788 0.794727 0.354627 -0.527591
C133  C     C_2   0.316572 0.972969 0.464548 0.872043
O92   O     O_2   0.344094 0.967403 0.527134 -0.562850
O93   O     O_R   0.361161 0.043682 0.460645 -0.738268
H43   H     H_    0.415259 0.086567 0.513742 0.380122
C134  C     C_2   0.175364 0.981175 0.439181 0.420613
H44   H     H_    0.190079 0.995988 0.502753 0.148934
O94   O     O_2   0.194219 0.037454 0.423691 -0.602955
C135  C     C_2   0.806968 0.570291 0.659349 0.513903
H45   H     H_    0.859689 0.626429 0.673599 0.152686
O95   O     O_2   0.778678 0.509078 0.594199 -0.478675
C136  C     C_2   0.818044 0.776415 0.295197 0.997756
O96   O     O_2   0.802553 0.765952 0.347935 -0.648053
O97   O     O_R   0.792819 0.822831 0.264161 -0.708922
H46   H     H_    0.766286 0.849360 0.294392 0.354316
C137  C     C_2   0.679009 0.630094 0.179001 0.482472
H47   H     H_    0.633734 0.602267 0.114686 0.136429
O98   O     O_2   0.658379 0.651780 0.232996 -0.477541
C138  C     C_2   0.819153 0.534707 0.076249 1.022236
O99   O     O_2   0.793469 0.459660 0.044291 -0.489752
O100  O     O_R   0.842959 0.581482 0.040888 -0.832563
H48   H     H_    0.860783 0.559818 0.999658 0.332553
C139  C     C_2   0.910361 0.544895 0.757524 0.304804
H49   H     H_    0.973799 0.572320 0.801898 0.155246
O101  O     O_2   0.896938 0.507600 0.687408 -0.532907
C140  C     C_2   0.669898 0.620058 0.818061 1.017429
O102  O     O_2   0.675724 0.651619 0.887562 -0.530467
O103  O     O_R   0.648656 0.657731 0.772800 -0.751366
H50   H     H_    0.633044 0.699933 0.800578 0.355034
C141  C     C_2   0.591077 0.476841 0.778149 0.962533
O104  O     O_2   0.573363 0.503749 0.833466 -0.589833
O105  O     O_R   0.533780 0.396763 0.715221 -0.747146
H51   H     H_    0.490986 0.366807 0.729655 0.369485
C142  C     C_2   0.713622 0.493394 0.897380 0.483061
H52   H     H_    0.681016 0.512640 0.929250 0.203891
O106  O     O_2   0.724644 0.439067 0.904477 -0.519189

loop_
_geom_bond_atom_site_label_1
_geom_bond_atom_site_label_2
_ccdc_geom_bond_type
C66   C68   A    
C104  O49   D    
C125  O79   D    
O46   H12   S    
C110  O61   D    
O16   Zn5   S    
C100  O42   S    
C34   O22   A    
C73   C74   A    
C6    C7    A    
C39   C117  S    
C2    C4    S    
C98   O37   D    
C87   C137  S    
C73   C121  S    
C38   C116  S    
C107  O55   D    
C119  H29   S    
O44   H11   S    
C50   C120  S    
C27   C54   S    
C88   C130  S    
C7    C8    A    
C105  O52   S    
C113  O65   D    
O5    Zn3   S    
C34   O23   A    
C122  O76   D    
C104  O50   S    
C28   C29   A    
O82   H36   S    
C128  O84   D    
C19   C103  S    
C4    C92   S    
O26   H1    S    
C24   C108  S    
C27   C28   A    
O38   H8    S    
O18   Zn1   S    
O6    Zn4   S    
C36   C37   A    
C98   O38   S    
C37   C38   A    
C18   C19   A    
C10   C15   A    
C116  O69   D    
O36   H7    S    
C5    C6    A    
C127  O83   D    
C20   C105  S    
C53   O5    A    
C90   C138  S    
C97   O35   D    
C31   C109  S    
C67   C89   S    
C95   O32   S    
O93   H43   S    
C4    C142  S    
C49   C50   A    
C120  O73   D    
O2    Zn4   S    
C128  O85   S    
O19   Zn2   S    
C33   C35   A    
C21   C22   A    
C49   C112  S    
C78   C140  S    
C58   C66   S    
O42   H10   S    
O56   H17   S    
C56   C113  S    
C83   C84   A    
C45   C56   S    
C141  O105  S    
C68   C69   A    
C125  O80   S    
C55   O10   A    
O63   H21   S    
C133  O93   S    
C41   C46   A    
C101  O44   S    
O15   Zn6   S    
O8    Zn4   S    
C111  O62   D    
C1    C15   S    
C51   C70   S    
C29   C30   A    
C95   O31   D    
C9    C10   A    
O60   H19   S    
C79   C80   A    
C36   C114  S    
C72   C73   A    
O23   Zn2   S    
O100  H48   S    
C126  O82   S    
C47   C118  S    
C57   O11   A    
C1    O1    A    
C23   C46   S    
C132  H42   S    
O4    Zn4   S    
C53   O6    A    
O7    Zn3   S    
C103  O48   S    
C22   C107  S    
C36   C41   A    
C67   C93   S    
C84   C90   A    
C32   C110  S    
C17   C101  S    
C71   C127  S    
C12   O19   A    
O74   H30   S    
C44   C46   A    
C5    C96   S    
C78   C141  S    
C7    C98   S    
C76   C77   A    
C77   C79   A    
C78   C89   S    
C86   C136  S    
O24   Zn3   S    
C57   O13   A    
C114  H24   S    
C51   O24   A    
C28   C31   A    
C112  H22   S    
C30   C34   S    
C63   C64   A    
C54   O8    A    
C3    C94   S    
O11   Zn5   S    
C47   C48   A    
C12   C89   S    
C62   C125  S    
C8    C99   S    
C60   C122  S    
C84   C85   A    
C3    C139  S    
C127  H37   S    
C72   C128  S    
C103  O47   D    
C12   O18   A    
O80   H35   S    
O87   H39   S    
C137  H47   S    
C8    C9    A    
C130  O89   S    
C48   C119  S    
C45   C91   S    
C25   C26   A    
O50   H14   S    
C112  O64   D    
C11   C13   A    
C6    C97   S    
C59   O17   A    
O66   H23   S    
C60   C61   A    
C55   O9    A    
O54   H16   S    
C87   C88   A    
C129  O87   S    
C75   C76   A    
C109  O60   S    
C37   C115  S    
C4    C78   S    
C139  H49   S    
C2    C52   S    
C51   O2    A    
C118  H28   S    
C122  H32   S    
C117  O70   D    
C101  O43   D    
C121  H31   S    
C99   O39   D    
C117  H27   S    
C76   C132  S    
C20   C21   A    
C16   C100  S    
C124  O78   D    
C17   C18   A    
C136  O96   D    
C77   C133  S    
C69   C74   A    
C121  O75   D    
O48   H13   S    
C24   C25   A    
C55   C82   S    
C52   O4    A    
C9    C11   A    
C91   O25   D    
O21   Zn2   S    
C131  O90   D    
C2    C56   S    
C79   C134  S    
C18   C95   S    
O85   H38   S    
C80   C82   A    
C40   C41   A    
C120  O74   S    
C88   C90   A    
C60   C65   A    
O52   H15   S    
C132  O91   D    
C43   C44   A    
C92   O27   D    
C22   C24   A    
C140  O103  S    
C58   O14   A    
O103  H50   S    
C133  O92   D    
C67   C135  S    
O28   H2    S    
C33   C104  S    
C16   C17   A    
O17   Zn6   S    
C39   C40   A    
C91   O26   S    
C23   O21   A    
C141  O104  D    
C54   O7    A    
C138  O99   D    
C93   H3    S    
C44   C50   A    
O58   H18   S    
C97   O36   S    
C23   O20   A    
O105  H51   S    
O97   H46   S    
C45   C89   S    
C102  O46   S    
C86   C87   A    
C14   C19   A    
C56   C124  S    
C31   C32   A    
C3    C67   S    
C134  O94   D    
C80   C81   A    
C20   C26   A    
C119  O72   D    
C42   C59   S    
C53   C85   S    
C96   O33   D    
C142  H52   S    
C130  O88   D    
C75   C81   A    
C106  O53   D    
C25   C27   A    
C63   C126  S    
O32   H5    S    
C29   C35   A    
C136  O97   S    
C35   C111  S    
O3    Zn3   S    
C52   O3    A    
C118  O71   D    
C58   O15   A    
C61   C123  S    
C32   C33   A    
O14   Zn5   S    
C123  O77   D    
C2    C3    S    
O89   H40   S    
C135  H45   S    
C5    C10   A    
C139  O101  D    
C105  O51   D    
C11   C57   S    
O34   H6    S    
C64   C65   A    
C135  O95   D    
C137  O98   D    
C134  H44   S    
C96   O34   S    
C59   O16   A    
C38   C39   A    
C74   C129  S    
O10   Zn6   S    
C68   C71   A    
C48   C49   A    
O20   Zn1   S    
C40   C42   A    
C124  H34   S    
C114  O67   D    
O13   Zn6   S    
O1    Zn1   S    
C94   H4    S    
C99   O40   S    
C116  H26   S    
C45   C102  S    
C61   C62   A    
C109  O59   D    
C123  H33   S    
O40   H9    S    
C108  O58   S    
C102  O45   D    
O12   Zn2   S    
C131  H41   S    
C115  O68   D    
O9    Zn5   S    
C110  H20   S    
C140  O102  D    
C21   C106  S    
C83   C86   A    
C71   C72   A    
C115  H25   S    
C108  O57   D    
C107  O56   S    
C94   O30   D    
C82   C83   A    
C42   C43   A    
C13   C16   A    
C129  O86   D    
C100  O41   D    
C92   O28   S    
C14   C15   A    
C138  O100  S    
C106  O54   S    
C111  O63   S    
C69   C70   A    
C142  O106  D    
C62   C63   A    
C13   C14   A    
C113  O66   S    
C43   C47   A    
C1    O12   A    
C75   C131  S    
O22   Zn1   S    
C81   C85   A    
C65   C70   A    
C126  O81   D    
C64   C66   A    
C93   O29   D    
C26   C30   A    
