data_mof_unit_36244.cif
_audit_creation_date              2013-03-05T15:54:37-0500
_audit_creation_method            fapswitch 2.2
_symmetry_space_group_name_H-M    P1
_symmetry_Int_Tables_number       1
_space_group_crystal_system       triclinic
_cell_length_a                    13.996475
_cell_length_b                    14.093797
_cell_length_c                    30.083371
_cell_angle_alpha                 97.319774
_cell_angle_beta                  97.269665
_cell_angle_gamma                 61.313464
_cell_volume                      5148.93819896

loop_
_atom_site_label
_atom_site_type_symbol
_atom_site_description
_atom_site_fract_x
_atom_site_fract_y
_atom_site_fract_z
_atom_type_partial_charge
O1    O     O_R   0.688580 0.499770 0.460490 -0.563796
O2    O     O_R   0.480400 0.672610 0.462660 -0.543065
C1    C     C_R   0.405892 0.662298 0.435144 0.848079
O3    O     O_R   0.315310 0.685650 0.451800 -0.494972
O4    O     O_R   0.346220 0.474990 0.446280 -0.516675
C2    C     C_R   0.398586 0.381155 0.426464 0.784041
O5    O     O_R   0.492270 0.312460 0.441630 -0.530954
O6    O     O_R   0.669740 0.350480 0.455640 -0.500283
C3    C     C_R   0.711564 0.404626 0.442807 0.802782
O7    O     O_R   0.691150 0.501150 0.557860 -0.537410
O8    O     O_R   0.482790 0.673890 0.552920 -0.528420
C4    C     C_R   0.389749 0.712099 0.568116 0.827282
O9    O     O_R   0.317880 0.687030 0.549170 -0.549055
O10   O     O_R   0.348600 0.476260 0.536540 -0.542481
C5    C     C_R   0.401895 0.383577 0.552584 0.773200
O11   O     O_R   0.494840 0.313840 0.539010 -0.542019
O12   O     O_R   0.672120 0.351750 0.545910 -0.529147
C6    C     C_R   0.712853 0.408140 0.568595 0.817427
Cr1   Cr    Cr6+3 0.581000 0.584320 0.508140 0.948366
Cr2   Cr    Cr6+3 0.339110 0.576430 0.496080 0.989469
Cr3   Cr    Cr6+3 0.579910 0.339270 0.495810 1.014728
O13   O     O_3   0.500010 0.500010 0.500010 -0.371680
C7    C     C_1   0.364770 0.363914 0.380764 -0.053935
C8    C     C_R   0.225162 0.411150 0.269771 0.399415
C9    C     C_R   0.219017 0.406660 0.222557 -0.226482
C10   C     C_R   0.411440 0.276877 0.222177 -0.126175
C11   C     C_R   0.419160 0.280794 0.268872 -0.217800
C12   C     C_R   0.327012 0.346764 0.292880 -0.012567
C13   C     C_R   0.311613 0.339736 0.198988 0.061927
C14   C     C_1   0.301557 0.325033 0.150934 -0.014603
C15   C     C_1   0.343690 0.354644 0.340996 0.087153
C16   C     C_1   0.291528 0.304740 0.111145 -0.135399
H1    H     H_    0.141458 0.453004 0.204024 0.178057
H2    H     H_    0.483042 0.223645 0.204116 0.144264
H3    H     H_    0.497699 0.232617 0.286405 0.159673
H4    H     H_    0.855130 0.460526 0.100582 0.192426
H5    H     H_    0.825017 0.477726 0.320646 0.175504
H6    H     H_    0.777929 0.515103 0.398360 0.161976
C17   C     C_R   0.771099 0.365120 0.401485 -0.157934
C18   C     C_R   0.791433 0.263986 0.377819 0.386251
C19   C     C_R   0.813473 0.246653 0.332453 -0.209483
C20   C     C_R   0.821503 0.325304 0.311698 0.040423
C21   C     C_R   0.815506 0.418186 0.336475 -0.080389
C22   C     C_R   0.789985 0.438405 0.381008 -0.226348
C23   C     C_R   0.833149 0.402440 0.159095 0.414159
C24   C     C_R   0.857360 0.392105 0.114397 -0.208566
C25   C     C_R   0.896115 0.203915 0.107193 -0.144737
C26   C     C_R   0.870907 0.213442 0.151327 -0.197916
C27   C     C_R   0.843902 0.310466 0.177853 -0.011823
C28   C     C_1   0.834743 0.311505 0.224712 0.053221
C29   C     C_1   0.829579 0.314883 0.264373 0.031360
C30   C     C_R   0.894652 0.291694 0.089094 -0.108597
H7    H     H_    0.877947 0.143218 0.165520 0.137565
H8    H     H_    0.923943 0.125606 0.088405 0.147856
H9    H     H_    0.823183 0.172497 0.313224 0.164646
H10   H     H_    0.144781 0.905567 0.095258 0.156190
H11   H     H_    0.249467 0.737920 0.288475 0.161354
C31   C     C_R   0.401071 0.689596 0.388645 -0.205553
C32   C     C_R   0.491893 0.694235 0.375432 -0.257582
C33   C     C_R   0.496727 0.716444 0.331963 0.126330
C34   C     C_R   0.408409 0.729441 0.300221 0.062603
C35   C     C_R   0.317358 0.726321 0.313017 -0.224565
C36   C     C_R   0.312114 0.706987 0.356707 0.377470
C37   C     C_R   0.255884 0.831220 0.151617 0.118601
C38   C     C_R   0.227833 0.874822 0.109745 -0.219898
C39   C     C_R   0.413663 0.843753 0.105422 0.375744
C40   C     C_R   0.441399 0.802229 0.147700 -0.199124
C41   C     C_R   0.363135 0.798241 0.170826 0.019208
C42   C     C_1   0.390463 0.767775 0.215945 -0.039486
C43   C     C_1   0.403582 0.748190 0.254422 -0.030840
C44   C     C_R   0.303941 0.885834 0.087296 -0.198533
H12   H     H_    0.561036 0.680854 0.399407 0.167017
H13   H     H_    0.524133 0.773531 0.162832 0.196443
H14   H     H_    0.138264 0.445150 0.900874 0.163730
C45   C     C_R   0.368962 0.368209 0.594907 -0.099697
C46   C     C_R   0.454008 0.309868 0.626578 -0.186281
C47   C     C_R   0.434223 0.314748 0.670958 -0.172685
C48   C     C_R   0.328863 0.376412 0.684786 -0.034683
C49   C     C_R   0.240018 0.428552 0.653389 0.402559
C50   C     C_R   0.259314 0.425108 0.607785 -0.048280
C51   C     C_R   0.215497 0.431444 0.841221 0.063271
C52   C     C_R   0.211834 0.401298 0.883362 -0.225588
C53   C     C_R   0.397970 0.254824 0.881074 0.293176
C54   C     C_R   0.402284 0.281762 0.838170 0.289338
C55   C     C_R   0.309046 0.365736 0.817404 -0.114677
C56   C     C_1   0.309182 0.379084 0.770841 0.065734
C57   C     C_1   0.314631 0.381392 0.731530 0.111411
C58   C     C_R   0.298958 0.310200 0.902285 -0.241659
H15   H     H_    0.538090 0.265993 0.617861 0.155094
H16   H     H_    0.502373 0.272474 0.694964 0.194133
C59   C     C_1   0.760874 0.377849 0.612828 -0.146224
C60   C     C_R   0.812616 0.420008 0.728825 -0.167481
C61   C     C_R   0.826222 0.410101 0.775110 0.026800
C62   C     C_R   0.833333 0.231658 0.760948 0.356513
C63   C     C_R   0.824089 0.240784 0.713849 -0.038213
C64   C     C_R   0.812674 0.336681 0.698381 0.047727
C65   C     C_R   0.838397 0.314859 0.791325 -0.031396
C66   C     C_1   0.866288 0.298940 0.838763 0.084164
C67   C     C_1   0.789239 0.356887 0.651404 -0.005591
C68   C     C_1   0.899347 0.285235 0.877635 -0.101182
H17   H     H_    0.800871 0.494020 0.716291 0.151929
C69   C     C_1   0.376256 0.761806 0.612954 -0.159902
C70   C     C_R   0.249678 0.854348 0.713764 -0.178092
C71   C     C_R   0.233919 0.867199 0.759709 0.069127
C72   C     C_R   0.426019 0.819447 0.776565 -0.154358
C73   C     C_R   0.441039 0.802754 0.730557 -0.137625
C74   C     C_R   0.352383 0.820872 0.699185 0.116398
C75   C     C_R   0.323146 0.851155 0.791569 0.109855
C76   C     C_1   0.309140 0.875073 0.839176 -0.052154
C77   C     C_1   0.366888 0.792932 0.652069 -0.041488
C78   C     C_1   0.291935 0.903516 0.878214 -0.132448
H18   H     H_    0.181796 0.867366 0.689059 0.126189
H19   H     H_    0.494776 0.807568 0.800502 0.146099
H20   H     H_    0.521618 0.775060 0.719522 0.133752
O14   O     O_R   0.167510 0.972920 0.030390 -0.560101
O15   O     O_R   0.990840 0.178580 0.027590 -0.538836
C79   C     C_R   0.950550 0.273106 0.048115 0.806271
O16   O     O_R   0.972840 0.345510 0.038590 -0.542422
O17   O     O_R   0.181550 0.320660 0.045200 -0.538288
C80   C     C_R   0.275572 0.270208 0.065419 0.805341
O18   O     O_R   0.346150 0.177650 0.050510 -0.521381
O19   O     O_R   0.314200 0.996600 0.036060 -0.501432
C81   C     C_R   0.262009 0.951826 0.048139 0.834296
O20   O     O_R   0.168690 0.969990 0.933130 -0.540891
O21   O     O_R   0.991920 0.175870 0.937430 -0.514796
C82   C     C_R   0.951408 0.269381 0.922245 0.804858
O22   O     O_R   0.974010 0.342590 0.941330 -0.553498
O23   O     O_R   0.182630 0.317940 0.955040 -0.552276
C83   C     C_R   0.277532 0.267206 0.940181 0.843346
O24   O     O_R   0.347320 0.174720 0.953250 -0.498571
O25   O     O_R   0.315290 0.993890 0.945900 -0.516193
C84   C     C_R   0.261411 0.950881 0.922693 0.819925
Cr4   Cr    Cr6+3 0.082090 0.079210 0.982490 0.981143
Cr5   Cr    Cr6+3 0.082460 0.324610 0.994920 0.948509
Cr6   Cr    Cr6+3 0.323630 0.087860 0.996130 1.082166
O26   O     O_3   0.162730 0.163890 0.991180 -0.357202
N1    N     N_R   0.128358 0.480419 0.293157 0.129307
O27   O     O_R   0.116717 0.458110 0.332152 -0.348830
O28   O     O_R   0.046971 0.561507 0.273809 -0.343467
C85   C     C_3   0.173358 0.822894 0.177523 -0.341626
C86   C     C_3   0.059136 0.857648 0.153541 -0.363807
C87   C     C_3   0.985809 0.842300 0.182251 -0.653435
H21   H     H_    0.021170 0.755597 0.188884 0.248598
H22   H     H_    0.976203 0.892128 0.214741 0.233351
H23   H     H_    0.903894 0.868255 0.164220 0.232576
H24   H     H_    0.020265 0.944760 0.147009 0.193627
H25   H     H_    0.065772 0.808091 0.121097 0.213952
H26   H     H_    0.207946 0.737057 0.185491 0.186584
H27   H     H_    0.164109 0.873510 0.209838 0.185430
N2    N     N_R   0.216221 0.704934 0.367373 0.123472
O29   O     O_R   0.120325 0.783489 0.356277 -0.330568
O30   O     O_R   0.223403 0.615379 0.378339 -0.348893
N3    N     N_R   0.497479 0.841166 0.081423 0.110612
O31   O     O_R   0.503702 0.808879 0.038889 -0.364418
O32   O     O_R   0.577886 0.853109 0.103284 -0.353242
C88   C     C_3   0.597628 0.726401 0.324638 -0.374248
C89   C     C_3   0.611422 0.748252 0.277803 -0.342710
C90   C     C_3   0.716108 0.756805 0.277619 -0.542077
H28   H     H_    0.712217 0.826814 0.300468 0.215988
H29   H     H_    0.788321 0.681453 0.288631 0.275851
H30   H     H_    0.726010 0.769076 0.243091 0.249914
H31   H     H_    0.616309 0.680627 0.253106 0.246267
H32   H     H_    0.541873 0.826407 0.267728 0.205106
H33   H     H_    0.598511 0.792776 0.348767 0.194046
H34   H     H_    0.670664 0.650298 0.334231 0.175679
C91   C     C_3   0.120178 0.530440 0.820768 -0.297343
C92   C     C_3   0.033001 0.605964 0.853446 -0.365054
C93   C     C_3   0.950016 0.711082 0.833232 -0.699404
H35   H     H_    0.989986 0.761164 0.830422 0.239413
H36   H     H_    0.915323 0.694314 0.799732 0.232756
H37   H     H_    0.882636 0.757447 0.855746 0.242037
H38   H     H_    0.988447 0.564631 0.862287 0.194032
H39   H     H_    0.072698 0.627096 0.884705 0.214404
H40   H     H_    0.153926 0.578422 0.808388 0.188310
H41   H     H_    0.080711 0.502613 0.791389 0.205687
N4    N     N_R   0.131203 0.485521 0.667997 0.050112
O33   O     O_R   0.061541 0.449839 0.654129 -0.387700
O34   O     O_R   0.106551 0.563495 0.699785 -0.424460
C94   C     C_3   0.163734 0.483180 0.573960 -0.309225
C95   C     C_3   0.118998 0.606751 0.580732 -0.301444
C96   C     C_3   0.034067 0.663970 0.542949 -0.681861
H42   H     H_    0.071424 0.637445 0.510172 0.242933
H43   H     H_    0.964849 0.645625 0.541462 0.232303
H44   H     H_    0.002241 0.753030 0.549192 0.221519
H45   H     H_    0.080475 0.638200 0.613162 0.230684
H46   H     H_    0.186534 0.627336 0.581801 0.222424
H47   H     H_    0.187492 0.454011 0.539024 0.172450
H48   H     H_    0.097819 0.462488 0.576955 0.219366
N5    N     N_R   0.502105 0.224294 0.816011 0.144657
O35   O     O_R   0.504421 0.172493 0.776804 -0.352126
O36   O     O_R   0.592404 0.218355 0.836288 -0.293376
N6    N     N_R   0.492656 0.168690 0.901863 0.153222
O37   O     O_R   0.541519 0.073318 0.880578 -0.322667
O38   O     O_R   0.533310 0.187048 0.941339 -0.344340
C97   C     C_3   0.825204 0.503445 0.806499 -0.344501
C98   C     C_3   0.715040 0.569362 0.827287 -0.320228
C99   C     C_3   0.710576 0.667611 0.856803 -0.702991
H49   H     H_    0.777857 0.641568 0.883876 0.237295
H50   H     H_    0.717502 0.723776 0.836194 0.236552
H51   H     H_    0.631380 0.711640 0.872477 0.234050
H52   H     H_    0.647988 0.597942 0.800126 0.201059
H53   H     H_    0.701457 0.517767 0.848089 0.214543
H54   H     H_    0.892537 0.471802 0.833273 0.172536
H55   H     H_    0.840282 0.557896 0.787996 0.186161
N7    N     N_R   0.833619 0.140649 0.777992 0.078552
O39   O     O_R   0.905244 0.089097 0.809943 -0.396831
O40   O     O_R   0.750648 0.122182 0.767522 -0.328101
C100  C     C_3   0.831366 0.147880 0.679991 -0.323295
C101  C     C_3   0.942446 0.090160 0.659483 -0.326079
C102  C     C_3   0.952268 0.994653 0.626528 -0.740520
H56   H     H_    0.944907 0.933690 0.643837 0.226006
H57   H     H_    0.887575 0.023211 0.598550 0.246160
H58   H     H_    0.033236 0.955073 0.612310 0.226563
H59   H     H_    0.953801 0.147520 0.641375 0.221138
H60   H     H_    0.009000 0.059836 0.686663 0.194752
H61   H     H_    0.820696 0.086743 0.695324 0.223582
H62   H     H_    0.764141 0.179505 0.653079 0.177658
C103  C     C_3   0.120757 0.898619 0.772400 -0.337134
C104  C     C_3   0.089522 0.807990 0.756770 -0.331589
C105  C     C_3   0.965985 0.852602 0.749663 -0.612247
H63   H     H_    0.926266 0.896659 0.780880 0.282615
H64   H     H_    0.932435 0.908688 0.722416 0.224521
H65   H     H_    0.946611 0.784787 0.739715 0.230026
H66   H     H_    0.124411 0.764683 0.724540 0.221737
H67   H     H_    0.123456 0.747267 0.782269 0.197368
H68   H     H_    0.113288 0.917140 0.809154 0.211563
H69   H     H_    0.062789 0.974215 0.756201 0.205999
N8    N     N_R   0.803241 0.504603 0.185060 0.071777
O41   O     O_R   0.836785 0.507828 0.227294 -0.384470
O42   O     O_R   0.752825 0.594797 0.165262 -0.375291
N9    N     N_R   0.789432 0.179162 0.398945 0.110739
O43   O     O_R   0.753986 0.116053 0.376017 -0.366475
O44   O     O_R   0.839339 0.153539 0.438537 -0.354729

loop_
_geom_bond_atom_site_label_1
_geom_bond_atom_site_label_2
_geom_bond_distance
_ccdc_geom_bond_type
C34   C43   1.422947 S    
C48   C57   1.433314 S    
C5    C45   1.481589 S    
C8    C9    1.407190 A    
H5    C21   1.083403 S    
C82   O22   1.269143 A    
C19   C20   1.394619 A    
C72   C73   1.399415 A    
C63   C64   1.415235 A    
O22   Cr5   2.020614 S    
C60   C64   1.393975 A    
C21   C22   1.389121 A    
C54   N5    1.436705 S    
O23   C83   1.277675 A    
C85   H26   1.112491 S    
C105  H64   1.108413 S    
C65   C66   1.447709 S    
Cr6   O26   1.970054 S    
O4    Cr2   1.911465 S    
C55   C56   1.437243 S    
O15   C79   1.277252 A    
H6    C22   1.082991 S    
N1    O28   1.301682 A    
O8    Cr1   1.915016 S    
C91   H41   1.111837 S    
C100  C101  1.536314 S    
C85   C86   1.537085 S    
O20   Cr4   2.031130 S    
C73   H20   1.083363 S    
C53   C54   1.407233 A    
C68   C82   1.433381 S    
C6    C59   1.430972 S    
C37   C41   1.407989 A    
C44   C81   1.475559 S    
C88   C89   1.534189 S    
C16   C80   1.426549 S    
O25   Cr6   1.909148 S    
C42   C43   1.195283 T    
C76   C78   1.206982 T    
O4    C2    1.273067 A    
C94   H47   1.109641 S    
C73   C74   1.398752 A    
O21   Cr4   1.916560 S    
C5    O11   1.276626 A    
C64   C67   1.442751 S    
C24   C30   1.404108 A    
C3    C17   1.479886 S    
C75   C76   1.444926 S    
O20   C84   1.265443 A    
N5    O36   1.301072 A    
C99   H50   1.110996 S    
C19   H9    1.083934 S    
C90   H30   1.110537 S    
C104  H66   1.110851 S    
C10   H2    1.083756 S    
C93   H37   1.110120 S    
N3    O31   1.301437 A    
O24   Cr6   2.042777 S    
C41   C42   1.425637 S    
Cr4   O26   1.976265 S    
C51   C91   1.526145 S    
H4    C24   1.083288 S    
C40   H13   1.084258 S    
N3    O32   1.301435 A    
C45   C50   1.427667 A    
C89   H32   1.110741 S    
O16   Cr5   2.035773 S    
C32   H12   1.084041 S    
C92   H39   1.112196 S    
C30   C79   1.471554 S    
N4    O34   1.301126 A    
C53   C58   1.412546 A    
C80   O18   1.266727 A    
C32   C33   1.399864 A    
C100  H61   1.104443 S    
Cr3   O13   1.982271 S    
C90   H29   1.110655 S    
C87   H23   1.110430 S    
C91   C92   1.542168 S    
C61   C97   1.513763 S    
C62   N7    1.438844 S    
C58   C83   1.481155 S    
H14   C52   1.078504 S    
N8    O42   1.301514 A    
C105  H63   1.108466 S    
C92   C93   1.520697 S    
C51   C52   1.401772 A    
C2    O5    1.267775 A    
C46   C47   1.384112 A    
N7    O40   1.300875 A    
C9    C13   1.400223 A    
C26   H7    1.083956 S    
C72   C75   1.404265 A    
C47   H16   1.084478 S    
C91   H40   1.111084 S    
O17   Cr5   1.905513 S    
O14   C81   1.267714 A    
C97   H55   1.112361 S    
C40   C41   1.396091 A    
C14   C16   1.201271 T    
C50   C94   1.520363 S    
O10   Cr2   1.925923 S    
C53   N6    1.435383 S    
H11   C35   1.085746 S    
Cr1   O13   1.976273 S    
O1    C3    1.277497 A    
C54   C55   1.411848 A    
C101  C102  1.526569 S    
C96   H43   1.110854 S    
C17   C18   1.422239 A    
C56   C57   1.200209 T    
O6    C3    1.278757 A    
C97   C98   1.533773 S    
Cr5   O26   1.982346 S    
O15   Cr4   1.915865 S    
O14   Cr4   2.035824 S    
C62   C65   1.416149 A    
C28   C29   1.197957 T    
C31   C32   1.411549 A    
C47   C48   1.391305 A    
O1    Cr1   2.032363 S    
O12   Cr3   1.904285 S    
C1    O3    1.298043 A    
C49   C50   1.421866 A    
C89   C90   1.527507 S    
C70   H18   1.085099 S    
C23   N8    1.440857 S    
C7    C15   1.201326 T    
C96   H42   1.111013 S    
C99   H51   1.110607 S    
C45   C46   1.404905 A    
C33   C88   1.529587 S    
C36   N2    1.433118 S    
C4    C69   1.429172 S    
C13   C14   1.432739 S    
O23   Cr5   1.919447 S    
C99   H49   1.111337 S    
C23   C27   1.413848 A    
O7    Cr1   2.028880 S    
C26   C27   1.397009 A    
C35   C36   1.393566 A    
O12   C6    1.273069 A    
C10   C11   1.391259 A    
N5    O35   1.301064 A    
N9    O44   1.301479 A    
C101  H60   1.110435 S    
O18   Cr6   2.025339 S    
C18   N9    1.436726 S    
C71   C103  1.512308 S    
C17   C22   1.407693 A    
C95   H46   1.109928 S    
C86   H24   1.111356 S    
C25   H8    1.083201 S    
C60   H17   1.084972 S    
C18   C19   1.402360 A    
N9    O43   1.301434 A    
Cr2   O13   1.970309 S    
C27   C28   1.429146 S    
C62   C63   1.423004 A    
C66   C68   1.205694 T    
C90   H28   1.110888 S    
C63   C100  1.523369 S    
C74   C77   1.434978 S    
N2    O30   1.299196 A    
C69   C77   1.202756 T    
C20   C21   1.392116 A    
C98   H53   1.111436 S    
O25   C84   1.273292 A    
C61   C65   1.412452 A    
C103  H69   1.110527 S    
C71   C75   1.417963 A    
C95   C96   1.525339 S    
C83   O24   1.272328 A    
C37   C85   1.528579 S    
C96   H44   1.110632 S    
C72   H19   1.083227 S    
C31   C36   1.413410 A    
C104  C105  1.525692 S    
N7    O39   1.300619 A    
C93   H35   1.106618 S    
O9    Cr2   2.027300 S    
O2    Cr1   1.914973 S    
C87   H21   1.111087 S    
C49   N4    1.436274 S    
C12   C15   1.435448 S    
C8    C12   1.416678 A    
C98   C99   1.525588 S    
C25   C26   1.390314 A    
O6    Cr3   1.920939 S    
C39   N3    1.437140 S    
O17   C80   1.271483 A    
O11   Cr3   2.038414 S    
C92   H38   1.108693 S    
C94   H48   1.109205 S    
C8    N1    1.442295 S    
C104  H67   1.109628 S    
C102  H58   1.110582 S    
N1    O27   1.301200 A    
C20   C29   1.425775 S    
C102  H57   1.110801 S    
C101  H59   1.110397 S    
N2    O29   1.301104 A    
C11   H3    1.084240 S    
N6    O37   1.301322 A    
N4    O33   1.300740 A    
O2    C1    1.300091 A    
C98   H52   1.112437 S    
C100  H62   1.111744 S    
C38   C44   1.407973 A    
C79   O16   1.274181 A    
C37   C38   1.399635 A    
O5    Cr3   2.021416 S    
C48   C49   1.407394 A    
C103  C104  1.541035 S    
O21   C82   1.279669 A    
C88   H34   1.109188 S    
O7    C6    1.271098 A    
C52   C58   1.402499 A    
C2    C7    1.426107 S    
C89   H31   1.111257 S    
C93   H36   1.110369 S    
C60   C61   1.396947 A    
C39   C40   1.399082 A    
C87   H22   1.111007 S    
C39   C44   1.415484 A    
C34   C35   1.398746 A    
O19   Cr6   1.926518 S    
C95   H45   1.110157 S    
C86   H25   1.111776 S    
N8    O41   1.300615 A    
C94   C95   1.536766 S    
O3    Cr2   2.042762 S    
C1    C31   1.482463 S    
C23   C24   1.400815 A    
C78   C84   1.435936 S    
C97   H54   1.109834 S    
C4    O9    1.267417 A    
C88   H33   1.112632 S    
C10   C13   1.395067 A    
C102  H56   1.110204 S    
C25   C30   1.404244 A    
C70   C71   1.402458 A    
O10   C5    1.276629 A    
C33   C34   1.414883 A    
C46   H15   1.083631 S    
C70   C74   1.391792 A    
C59   C67   1.204062 T    
O19   C81   1.277515 A    
C86   C87   1.526804 S    
C85   H27   1.112314 S    
C103  H68   1.109544 S    
C105  H65   1.109950 S    
C51   C55   1.410543 A    
H10   C38   1.079491 S    
O8    C4    1.268671 A    
C9    H1    1.083879 S    
C11   C12   1.401039 A    
N6    O38   1.301200 A    
