data_mof_unit_38559.cif
_audit_creation_date              2012-12-10T17:58:22-0500
_audit_creation_method            fapswitch 2.2
_symmetry_space_group_name_H-M    P1
_symmetry_Int_Tables_number       1
_space_group_crystal_system       triclinic
_cell_length_a                    9.526291
_cell_length_b                    10.797903
_cell_length_c                    15.496765
_cell_angle_alpha                 89.919329
_cell_angle_beta                  74.491824
_cell_angle_gamma                 90.134944
_cell_volume                      1536.01501897

loop_
_atom_site_label
_atom_site_type_symbol
_atom_type_description
_atom_site_fract_x
_atom_site_fract_y
_atom_site_fract_z
_atom_type_partial_charge
C1    C     C_R   0.998616 0.262338 0.502702 0.804551
C2    C     C_R   0.001379 0.737658 0.497310 0.804252
C3    C     C_R   0.576247 0.575206 0.089148 -0.213538
C4    C     C_R   0.414531 0.479230 0.905367 -0.211941
C5    C     C_R   0.721587 0.591650 0.043630 -0.233563
C6    C     C_R   0.268762 0.465002 0.950559 -0.235440
C7    C     C_R   0.923153 0.066987 0.450517 -0.203216
C8    C     C_R   0.076819 0.932993 0.549516 -0.203051
C9    C     C_R   0.927572 0.939052 0.443552 0.422248
C10   C     C_R   0.072427 0.060929 0.556466 0.422216
C11   C     C_R   0.003176 0.871549 0.495146 -0.220699
C12   C     C_R   0.996815 0.128439 0.504877 -0.221218
C13   C     C_R   0.548026 0.429321 0.559889 -0.009855
C14   C     C_R   0.451970 0.570697 0.440120 -0.009543
C15   C     C_R   0.399257 0.429433 0.559911 -0.007753
C16   C     C_R   0.600741 0.570580 0.440095 -0.006927
C17   C     C_R   0.918299 0.501466 0.672079 0.788441
C18   C     C_R   0.081707 0.499807 0.327859 0.789726
C19   C     C_R   0.872919 0.513776 0.769805 -0.046391
C20   C     C_R   0.126570 0.497658 0.229621 -0.048791
C21   C     C_R   0.918287 0.581753 0.908308 -0.213146
C22   C     C_R   0.074984 0.460421 0.087510 -0.208370
C23   C     C_R   0.969193 0.556929 0.817165 -0.195274
C24   C     C_R   0.027009 0.470742 0.180245 -0.191916
C25   C     C_R   0.726790 0.492636 0.814666 -0.237533
C26   C     C_R   0.273163 0.518317 0.185250 -0.242248
C27   C     C_R   0.671174 0.521697 0.905793 0.094015
C28   C     C_R   0.323987 0.511531 0.091476 0.093128
C29   C     C_R   0.770545 0.564660 0.952859 0.163887
C30   C     C_R   0.222392 0.479308 0.042950 0.165326
C31   C     C_R   0.520282 0.509722 0.951129 0.068316
C32   C     C_R   0.473158 0.531832 0.045073 0.067254
Cu1   Cu    Cu3+1 0.140660 0.500020 0.500000 0.953832
Cu2   Cu    Cu3+1 0.859340 0.499980 0.500000 0.954571
H1    H     H_    0.796404 0.625840 0.079999 0.150987
H2    H     H_    0.191920 0.441001 0.912757 0.150306
H3    H     H_    0.346320 0.535865 0.225981 0.146640
H4    H     H_    0.658912 0.453232 0.776352 0.141837
H5    H     H_    0.913139 0.454173 0.213374 0.157719
H6    H     H_    0.082596 0.574535 0.783432 0.157024
H7    H     H_    0.993938 0.616851 0.943679 0.145388
H8    H     H_    0.997097 0.435576 0.050709 0.146284
H9    H     H_    0.548042 0.601096 0.158692 0.139384
H10   H     H_    0.439519 0.468261 0.833864 0.140339
H11   H     H_    0.866811 0.119068 0.410127 0.184983
H12   H     H_    0.133144 0.880907 0.589912 0.184674
H13   H     H_    0.582882 0.372428 0.607786 0.122704
H14   H     H_    0.417112 0.627602 0.392228 0.121854
H15   H     H_    0.322164 0.372783 0.607845 0.133923
H16   H     H_    0.677836 0.627232 0.392162 0.132912
N1    N     N_R   0.352080 0.500030 0.499980 -0.163272
N2    N     N_R   0.647920 0.499970 0.500020 -0.163163
O1    O     O_R   0.118740 0.319660 0.500000 -0.561862
O2    O     O_R   0.881260 0.680340 0.500000 -0.562019
O3    O     O_R   0.881170 0.319630 0.500010 -0.580144
O4    O     O_R   0.118830 0.680370 0.499990 -0.580630
O5    O     O_R   0.055570 0.500030 0.629830 -0.594444
O6    O     O_R   0.944430 0.499970 0.370170 -0.594028
O7    O     O_R   0.818000 0.500000 0.629840 -0.584274
O8    O     O_R   0.182000 0.500000 0.370160 -0.585389
O9    O     O_3   0.860725 0.885016 0.384126 -0.726481
H17   H     H_    0.906329 0.803759 0.365185 0.316676
O10   O     O_3   0.139307 0.114955 0.615868 -0.726054
H18   H     H_    0.093853 0.196264 0.634751 0.316777

loop_
_geom_bond_atom_site_label_1
_geom_bond_atom_site_label_2
_ccdc_geom_bond_type
C19   C23   A    
C26   H3    S    
C21   C29   A    
C15   N1    A    
C25   H4    S    
Cu1   N1    S    
C13   N2    A    
C4    H10   S    
C21   H7    S    
Cu2   N2    S    
C10   O10   S    
C13   C15   A    
O9    H17   S    
Cu1   O4    S    
C28   C30   A    
Cu1   Cu2   S    
C1    O3    A    
Cu2   O3    S    
C7    H11   S    
C2    O4    A    
C20   C24   A    
C9    C11   A    
C3    H9    S    
C22   H8    S    
C1    C12   S    
C20   C26   A    
C17   O7    A    
C8    C11   A    
C9    O9    S    
C2    C11   S    
C10   C12   A    
C22   C24   A    
C8    C10   A    
C13   H13   S    
C17   C19   S    
C6    H2    S    
Cu2   O2    S    
Cu1   O8    S    
C18   C20   S    
C15   H15   S    
C21   C23   A    
Cu1   O1    S    
C3    C32   A    
C19   C25   A    
C31   C32   A    
C14   C16   A    
C7    C12   A    
C4    C31   A    
C27   C29   A    
C27   C31   A    
C23   H6    S    
C5    C29   A    
C5    H1    S    
C28   C32   A    
C24   H5    S    
Cu2   O6    S    
C4    C6    A    
C2    O2    A    
C18   O8    A    
C16   N2    A    
C7    C9    A    
C1    O1    A    
C14   H14   S    
C22   C30   A    
C8    H12   S    
C6    C30   A    
C17   O5    A    
Cu2   O7    S    
C26   C28   A    
C18   O6    A    
Cu1   O5    S    
C14   N1    A    
C16   H16   S    
O10   H18   S    
C3    C5    A    
C25   C27   A    
