data_mof_unit_5215.cif
_audit_creation_date              2012-12-10T16:42:33-0500
_audit_creation_method            fapswitch 2.2
_symmetry_space_group_name_H-M    P1
_symmetry_Int_Tables_number       1
_space_group_crystal_system       triclinic
_cell_length_a                    7.483603
_cell_length_b                    8.683974
_cell_length_c                    11.032886
_cell_angle_alpha                 89.02067
_cell_angle_beta                  71.983422
_cell_angle_gamma                 102.714292
_cell_volume                      662.314316305

loop_
_atom_site_label
_atom_site_type_symbol
_atom_type_description
_atom_site_fract_x
_atom_site_fract_y
_atom_site_fract_z
_atom_type_partial_charge
C1    C     C_R   0.452212 0.199740 0.503839 0.885115
C2    C     C_R   0.547788 0.800260 0.496161 0.885114
C3    C     C_R   0.421270 0.487908 0.742859 0.807461
C4    C     C_R   0.578730 0.512093 0.257141 0.807462
C5    C     C_2   0.373692 0.466098 0.881006 -0.170418
C6    C     C_2   0.626308 0.533906 0.118993 -0.170425
C7    C     C_2   0.515041 0.513919 0.931778 -0.193130
C8    C     C_2   0.484955 0.486104 0.068222 -0.193137
C9    C     C_2   0.425383 0.031869 0.505706 -0.357027
C10   C     C_2   0.574617 0.968131 0.494293 -0.357027
Cu1   Cu    Cu3+1 0.688910 0.517800 0.485820 0.969318
Cu2   Cu    Cu3+1 0.311090 0.482200 0.514180 0.969318
H1    H     H_    0.341885 0.424685 0.130106 0.188975
H2    H     H_    0.658108 0.575349 0.869894 0.188971
H3    H     H_    0.281491 0.960344 0.516490 0.181300
H4    H     H_    0.718509 0.039656 0.483510 0.181300
H5    H     H_    0.915856 0.374406 0.600688 0.228048
H6    H     H_    0.084144 0.625594 0.399312 0.228047
N1    N     N_2   0.027170 0.455360 0.535550 -0.215212
N2    N     N_2   0.972830 0.544640 0.464450 -0.215213
O1    O     O_R   0.622710 0.286400 0.490790 -0.581836
O2    O     O_R   0.377290 0.713600 0.509210 -0.581836
O3    O     O_R   0.303660 0.256330 0.514730 -0.585699
O4    O     O_R   0.696340 0.743670 0.485270 -0.585699
O5    O     O_R   0.600900 0.509520 0.671740 -0.593288
O6    O     O_R   0.399100 0.490480 0.328260 -0.593289
O7    O     O_R   0.281840 0.479450 0.695690 -0.569121
O8    O     O_R   0.718160 0.520550 0.304310 -0.569123
C11   C     C_1   0.820837 0.617016 0.042816 0.284935
N3    N     N_1   0.975687 0.684063 0.982177 -0.279406
C12   C     C_1   0.179167 0.382973 0.957182 0.284929
N4    N     N_1   0.024320 0.315913 0.017821 -0.279404

loop_
_geom_bond_atom_site_label_1
_geom_bond_atom_site_label_2
_ccdc_geom_bond_type
C2    O2    A    
C4    O6    A    
Cu1   Cu2   S    
C1    O1    A    
C11   N3    T    
C9    C10   D    
C12   N4    T    
C3    O7    A    
C9    H3    S    
C7    C8    S    
C10   H4    S    
Cu2   O3    S    
C8    H1    S    
Cu1   O8    S    
Cu2   N1    S    
C4    O8    A    
C1    O3    A    
H6    N2    S    
C2    O4    A    
Cu1   N2    S    
C5    C12   S    
Cu1   O5    S    
Cu2   O7    S    
C2    C10   S    
Cu2   O2    S    
Cu1   O4    S    
C3    O5    A    
C6    C11   S    
C1    C9    S    
C4    C6    S    
C5    C7    D    
C6    C8    D    
H5    N1    S    
Cu1   O1    S    
C7    H2    S    
N1    N2    D    
Cu2   O6    S    
C3    C5    S    
