data_mof_unit_10061.cif
_audit_creation_date              2012-12-10T18:57:06-0500
_audit_creation_method            fapswitch 2.2
_symmetry_space_group_name_H-M    P1
_symmetry_Int_Tables_number       1
_space_group_crystal_system       triclinic
_cell_length_a                    10.711183
_cell_length_b                    9.841797
_cell_length_c                    10.678595
_cell_angle_alpha                 88.315657
_cell_angle_beta                  89.512546
_cell_angle_gamma                 90.021018
_cell_volume                      1125.18121067

loop_
_atom_site_label
_atom_site_type_symbol
_atom_type_description
_atom_site_fract_x
_atom_site_fract_y
_atom_site_fract_z
_atom_type_partial_charge
C1    C     C_R   0.259879 0.499896 0.500791 0.848784
C2    C     C_R   0.454598 0.600223 0.933377 0.114839
C3    C     C_R   0.523621 0.509729 0.129008 -0.288762
C4    C     C_R   0.513447 0.494147 0.873286 -0.297490
C5    C     C_R   0.610872 0.426227 0.069125 0.351871
C6    C     C_R   0.594471 0.403676 0.940746 0.248317
C7    C     C_3   0.320273 0.642387 0.928447 -0.431032
C8    C     C_3   0.322937 0.647110 0.070278 -0.450466
C9    C     C_R   0.063832 0.378127 0.484536 -0.199832
C10   C     C_R   0.936057 0.377856 0.486486 -0.084160
C11   C     C_R   0.872443 0.499174 0.507289 0.007214
C12   C     C_R   0.739971 0.499778 0.503934 0.959402
C13   C     C_R   0.127382 0.499577 0.503881 -0.015921
C14   C     C_R   0.935904 0.620178 0.528648 -0.183954
C15   C     C_R   0.063834 0.620417 0.526862 -0.181990
C16   C     C_R   0.598816 0.070360 0.546773 0.049054
C17   C     C_R   0.401699 0.073409 0.452025 -0.055210
C18   C     C_R   0.598512 0.926589 0.547474 -0.046992
C19   C     C_R   0.401781 0.929583 0.451843 -0.068511
C20   C     C_R   0.505267 0.502277 0.260338 0.985232
C21   C     C_R   0.503352 0.497481 0.740366 0.939979
C22   C     C_R   0.456220 0.604975 0.060238 0.100986
H1    H     H_    0.308306 0.744111 0.882062 0.220100
H2    H     H_    0.323154 0.128897 0.413371 0.126387
H3    H     H_    0.677185 0.871137 0.585895 0.132803
H4    H     H_    0.323315 0.876484 0.413019 0.131241
H5    H     H_    0.942402 0.336797 0.099455 0.378617
H6    H     H_    0.812547 0.368575 0.791362 0.358963
H7    H     H_    0.263259 0.568420 0.117848 0.196436
H8    H     H_    0.258309 0.561515 0.893120 0.199478
H9    H     H_    0.312909 0.751544 0.105973 0.218785
H10   H     H_    0.112388 0.284019 0.466587 0.154962
H11   H     H_    0.887531 0.283596 0.469604 0.178078
H12   H     H_    0.887107 0.714262 0.546089 0.156820
H13   H     H_    0.112547 0.714656 0.543359 0.159259
H14   H     H_    0.678079 0.123267 0.583951 0.182570
N1    N     N_R   0.500000 0.857200 0.500000 -0.088168
N2    N     N_R   0.500000 0.142810 0.500000 -0.083489
O1    O     O_R   0.316770 0.614620 0.499990 -0.641493
O2    O     O_2   0.730488 0.249066 0.222479 -0.272392
O3    O     O_3   0.869849 0.362004 0.046769 -0.527314
O4    O     O_2   0.724777 0.163747 0.964867 -0.188301
O5    O     O_2   0.552780 0.172713 0.820132 -0.281766
O6    O     O_3   0.756709 0.299919 0.755407 -0.573082
O7    O     O_R   0.683230 0.614620 0.500010 -0.640277
O8    O     O_R   0.316800 0.385290 0.500000 -0.642253
O9    O     O_R   0.683200 0.385290 0.500000 -0.590098
O10   O     O_R   0.500000 0.614690 0.316780 -0.603717
O11   O     O_R   0.500000 0.614690 0.683220 -0.624992
O12   O     O_R   0.500020 0.385360 0.316780 -0.594094
O13   O     O_R   0.499980 0.385360 0.683220 -0.541542
O14   O     O_2   0.784237 0.490468 0.235409 -0.352922
S1    S     S_3+6 0.750438 0.379590 0.148356 0.053107
S2    S     S_3+6 0.657710 0.254561 0.872203 0.077471
Zn1   Zn    Zn3+2 0.500000 0.653120 0.500000 0.975516
Zn2   Zn    Zn3+2 0.500000 0.346880 0.500000 1.043948

loop_
_geom_bond_atom_site_label_1
_geom_bond_atom_site_label_2
_ccdc_geom_bond_type
C14   H12   S    
O10   Zn1   S    
C8    C22   S    
C11   C12   S    
C2    C22   A    
C9    C10   A    
H5    O3    S    
O5    S2    D    
C2    C4    A    
C2    C7    S    
C21   O13   A    
O1    Zn1   S    
C21   O11   A    
C3    C20   S    
C7    H8    S    
C16   H14   S    
C4    C21   S    
O3    S1    S    
C20   O10   A    
C18   H3    S    
C6    S2    S    
C12   O9    A    
C7    H1    S    
C8    H7    S    
C5    S1    S    
C17   C19   A    
C18   N1    A    
O2    S1    D    
C10   H11   S    
C17   N2    A    
C13   C15   A    
C5    C6    A    
C11   C14   A    
O12   Zn2   S    
C1    O8    A    
C17   H2    S    
C1    C13   S    
C10   C11   A    
C1    O1    A    
C4    C6    A    
N1    Zn1   S    
O6    S2    S    
C7    C8    S    
N2    Zn2   S    
O14   S1    D    
O7    Zn1   S    
C16   C18   A    
O13   Zn2   S    
O8    Zn2   S    
C15   H13   S    
C19   H4    S    
C9    C13   A    
C14   C15   A    
O9    Zn2   S    
C3    C22   A    
C20   O12   A    
C19   N1    A    
C9    H10   S    
O11   Zn1   S    
C8    H9    S    
H6    O6    S    
O4    S2    D    
C16   N2    A    
C12   O7    A    
C3    C5    A    
