data_mof_unit_32131.cif
_audit_creation_date              2012-10-26T19:53:00-0400
_audit_creation_method            fapswitch 2.2
_symmetry_space_group_name_H-M    P1
_symmetry_Int_Tables_number       1
_space_group_crystal_system       triclinic
_cell_length_a                    10.995378
_cell_length_b                    9.098299
_cell_length_c                    7.787267
_cell_angle_alpha                 90.185665
_cell_angle_beta                  90.374659
_cell_angle_gamma                 89.597707
_cell_volume                      778.992413527

loop_
_atom_site_label
_atom_site_type_symbol
_atom_type_description
_atom_site_fract_x
_atom_site_fract_y
_atom_site_fract_z
_atom_type_partial_charge
C1    C     C_R   0.499954 0.220020 0.499816 0.534248
C2    C     C_1   0.499836 0.934642 0.500258 -0.057881
C3    C     C_3   0.889532 0.738834 0.675344 -0.012826
C4    C     C_3   0.941173 0.791858 0.846057 -0.358098
C5    C     C_3   0.140088 0.235207 0.591142 -0.008788
C6    C     C_3   0.059997 0.118545 0.670188 -0.367774
C7    C     C_R   0.499893 0.779984 0.500156 0.541796
C8    C     C_R   0.265283 0.497170 0.499036 0.552384
C9    C     C_R   0.735100 0.506220 0.500148 0.538134
C10   C     C_2   0.936646 0.518368 0.363691 0.083258
C11   C     C_2   0.066664 0.547764 0.377791 0.143807
C12   C     C_2   0.864931 0.537924 0.503130 0.277326
C13   C     C_2   0.134749 0.474131 0.493932 0.321014
C14   C     C_1   0.499839 0.065366 0.499789 -0.060746
Cu1   Cu    Cu3+1 0.500000 0.500000 0.669080 1.027583
Cu2   Cu    Cu3+1 0.500000 0.500000 0.330920 1.011519
H1    H     H_    0.850029 0.366094 0.215152 0.249743
H2    H     H_    0.227755 0.236613 0.663102 0.157029
H3    H     H_    0.156980 0.203462 0.454772 0.112540
H4    H     H_    0.971584 0.113485 0.600642 0.152594
H5    H     H_    0.105892 0.009704 0.661234 0.095712
H6    H     H_    0.043289 0.144853 0.807440 0.174812
H7    H     H_    0.832193 0.544663 0.148384 0.251390
H8    H     H_    0.073970 0.751930 0.277213 0.206831
H9    H     H_    0.104715 0.615155 0.136627 0.265249
H10   H     H_    0.789735 0.760827 0.675222 0.136863
H11   H     H_    0.932442 0.802714 0.570309 0.103863
H12   H     H_    0.041614 0.777948 0.847933 0.163667
H13   H     H_    0.918081 0.909640 0.865388 0.092273
H14   H     H_    0.901677 0.728043 0.952893 0.167337
N1    N     N_1   0.500000 0.500000 0.076820 -0.076577
N2    N     N_1   0.500000 0.500000 0.923180 -0.078582
N3    N     N_3   0.892828 0.467423 0.199831 -0.634213
N4    N     N_3   0.119891 0.651740 0.262286 -0.633290
O1    O     O_R   0.500000 0.288390 0.642760 -0.504472
O2    O     O_3   0.080908 0.373250 0.603537 -0.535833
O3    O     O_R   0.500000 0.711610 0.642760 -0.505282
O4    O     O_R   0.500000 0.288370 0.357190 -0.498187
O5    O     O_R   0.500000 0.711630 0.357190 -0.492099
O6    O     O_R   0.321940 0.500000 0.642750 -0.501427
O7    O     O_R   0.678060 0.500000 0.642750 -0.475899
O8    O     O_R   0.321930 0.500000 0.357180 -0.493928
O9    O     O_R   0.678070 0.500000 0.357180 -0.547144
O10   O     O_3   0.915152 0.587369 0.656742 -0.517927

loop_
_geom_bond_atom_site_label_1
_geom_bond_atom_site_label_2
_ccdc_geom_bond_type
C8    C13   S    
C5    H3    S    
C1    C14   S    
C6    H4    S    
C9    O7    A    
C4    H13   S    
H9    N4    S    
Cu1   O6    S    
C3    H11   S    
C7    O3    A    
Cu1   N2    S    
C12   O10   S    
Cu2   N1    S    
H1    N3    S    
C11   C13   D    
Cu2   O9    S    
Cu1   O7    S    
C10   C12   D    
C1    O4    A    
Cu1   O1    S    
C4    H12   S    
C8    O8    A    
C10   N3    S    
C3    H10   S    
C5    C6    S    
C2    C14   T    
C9    C12   S    
H8    N4    S    
C3    O10   S    
C9    O9    A    
C10   C11   S    
Cu2   O5    S    
Cu1   Cu2   S    
C6    H6    S    
C5    O2    S    
Cu2   O8    S    
C1    O1    A    
C13   O2    S    
C7    O5    A    
Cu1   O3    S    
C5    H2    S    
C8    O6    A    
C2    C7    S    
C6    H5    S    
C11   N4    S    
C4    H14   S    
C3    C4    S    
N1    N2    T    
Cu2   O4    S    
H7    N3    S    
