data_mof_unit_67819.cif
_audit_creation_date              2012-12-10T16:54:00-0500
_audit_creation_method            fapswitch 2.2
_symmetry_space_group_name_H-M    P1
_symmetry_Int_Tables_number       1
_space_group_crystal_system       triclinic
_cell_length_a                    7.790823
_cell_length_b                    8.547626
_cell_length_c                    10.593402
_cell_angle_alpha                 91.79266
_cell_angle_beta                  84.889933
_cell_angle_gamma                 93.645111
_cell_volume                      700.988593275

loop_
_atom_site_label
_atom_site_type_symbol
_atom_type_description
_atom_site_fract_x
_atom_site_fract_y
_atom_site_fract_z
_atom_type_partial_charge
C1    C     C_R   0.545743 0.794657 0.496358 0.942839
C2    C     C_3   0.364336 0.621336 0.939696 -0.444402
C3    C     C_3   0.361413 0.622417 0.084858 0.380222
C4    C     C_3   0.462400 0.343882 0.926604 -0.414275
C5    C     C_3   0.682129 0.576039 0.918090 -0.393776
C6    C     C_3   0.503142 0.512370 0.878814 0.121329
C7    C     C_3   0.990640 0.764972 0.640540 0.228071
C8    C     C_3   0.095158 0.826309 0.749059 -0.406164
C9    C     C_3   0.080393 0.002355 0.772454 -0.982922
C10   C     C_3   0.256412 0.837737 0.206755 0.088262
C11   C     C_3   0.120750 0.894866 0.125605 -0.395174
C12   C     C_3   0.501190 0.513498 0.121915 0.119435
C13   C     C_3   0.972833 0.965362 0.208087 -0.964484
C14   C     C_3   0.460940 0.344419 0.071206 -0.511376
C15   C     C_3   0.681879 0.575244 0.062128 -0.389786
C16   C     C_2   0.570253 0.958175 0.495151 -0.380995
C17   C     C_2   0.430832 0.041788 0.501425 -0.402579
C18   C     C_R   0.502001 0.507820 0.742136 0.833198
C19   C     C_R   0.454430 0.205336 0.502448 0.968443
C20   C     C_R   0.500814 0.507690 0.258205 0.861196
H1    H     H_    0.233931 0.579566 0.912916 0.151611
H2    H     H_    0.711926 0.697566 0.884180 0.172575
H3    H     H_    0.715439 0.695620 0.099054 0.207243
H4    H     H_    0.860340 0.811026 0.657301 0.138295
H5    H     H_    0.049490 0.812722 0.548623 0.099981
H6    H     H_    0.046770 0.764985 0.837226 0.214759
H7    H     H_    0.232713 0.802494 0.726186 0.245050
H8    H     H_    0.112164 0.067052 0.683451 0.276737
H9    H     H_    0.171543 0.045950 0.842037 0.260927
H10   H     H_    0.947143 0.026536 0.811044 0.266670
H11   H     H_    0.307480 0.939638 0.262506 0.168542
H12   H     H_    0.784241 0.498993 0.086512 0.176336
H13   H     H_    0.196793 0.751754 0.276976 0.151618
H14   H     H_    0.182655 0.985225 0.060418 0.236122
H15   H     H_    0.067027 0.795537 0.068287 0.210678
H16   H     H_    0.907568 0.876122 0.273028 0.269786
H17   H     H_    0.876817 0.005640 0.146772 0.273135
H18   H     H_    0.022027 0.067367 0.264879 0.256393
H19   H     H_    0.231624 0.571028 0.121886 0.055472
H20   H     H_    0.332300 0.297678 0.112996 0.170169
H21   H     H_    0.786076 0.502163 0.875520 0.215225
H22   H     H_    0.560832 0.264483 0.883631 0.182909
H23   H     H_    0.558690 0.265044 0.098495 0.198534
H24   H     H_    0.702160 0.009174 0.490430 0.174135
H25   H     H_    0.299482 0.990592 0.504553 0.164261
H26   H     H_    0.014627 0.399630 0.391357 0.134730
H27   H     H_    0.391721 0.742291 0.903977 0.183916
H28   H     H_    0.334284 0.297392 0.898331 0.177837
N1    N     N_2   0.950330 0.457950 0.465890 -0.105237
N2    N     N_2   0.049670 0.542050 0.534110 0.103339
O1    O     O_R   0.389250 0.738570 0.508370 -0.637787
O2    O     O_3   0.397683 0.778570 0.130406 -0.656923
O3    O     O_R   0.678390 0.711620 0.486510 -0.636397
O4    O     O_R   0.355430 0.513500 0.696140 -0.614263
O5    O     O_R   0.644580 0.486550 0.674270 -0.572355
O6    O     O_R   0.321610 0.288380 0.513490 -0.635841
O7    O     O_R   0.610750 0.261430 0.491630 -0.607983
O8    O     O_R   0.355420 0.513450 0.325730 -0.670910
O9    O     O_R   0.644570 0.486500 0.303860 -0.636792
O10   O     O_3   0.969172 0.599592 0.641609 -0.530953
Zn1   Zn    Zn3+2 0.306940 0.517990 0.514600 0.947724
Zn2   Zn    Zn3+2 0.693060 0.482010 0.485400 0.963670

loop_
_geom_bond_atom_site_label_1
_geom_bond_atom_site_label_2
_ccdc_geom_bond_type
C19   O6    A    
C3    O2    S    
N1    Zn2   S    
O4    Zn1   S    
N2    O10   S    
C8    H6    S    
O3    Zn2   S    
C16   H24   S    
C13   H17   S    
C7    H5    S    
C12   C15   S    
C9    H9    S    
C10   O2    S    
C12   C20   S    
C2    H1    S    
C11   H15   S    
C2    C3    S    
C3    H19   S    
C15   H12   S    
C1    C16   S    
C19   O7    A    
C20   O9    A    
C1    O1    A    
H26   N1    S    
C13   H18   S    
C2    C6    S    
C4    H22   S    
C9    H10   S    
O8    Zn1   S    
C18   O5    A    
C2    H27   S    
C15   H3    S    
C17   C19   S    
C12   C14   S    
C10   H13   S    
C4    C14   S    
C5    C6    S    
C6    C18   S    
C16   C17   D    
C5    C15   S    
C7    C8    S    
C10   C11   S    
C18   O4    A    
C14   H20   S    
C7    H4    S    
O5    Zn2   S    
C7    O10   S    
C11   C13   S    
C13   H16   S    
C4    C6    S    
N1    N2    D    
C4    H28   S    
N2    Zn1   S    
C8    H7    S    
C5    H21   S    
O6    Zn1   S    
C8    C9    S    
O9    Zn2   S    
C1    O3    A    
C3    C12   S    
O7    Zn2   S    
C20   O8    A    
C10   H11   S    
C11   H14   S    
C5    H2    S    
C9    H8    S    
C17   H25   S    
C14   H23   S    
O1    Zn1   S    
