data_mof_unit_57357.cif
_audit_creation_date              2012-12-10T19:11:31-0500
_audit_creation_method            fapswitch 2.2
_symmetry_space_group_name_H-M    P1
_symmetry_Int_Tables_number       1
_space_group_crystal_system       triclinic
_cell_length_a                    10.613461
_cell_length_b                    9.70343
_cell_length_c                    10.494616
_cell_angle_alpha                 89.725229
_cell_angle_beta                  90.125949
_cell_angle_gamma                 89.968614
_cell_volume                      1080.79355662

loop_
_atom_site_label
_atom_site_type_symbol
_atom_type_description
_atom_site_fract_x
_atom_site_fract_y
_atom_site_fract_z
_atom_type_partial_charge
C1    C     C_R   0.258145 0.500220 0.507462 0.859235
C2    C     C_3   0.929026 0.481659 0.374445 -0.425493
C3    C     C_3   0.385844 0.081660 0.433615 -0.235095
C4    C     C_3   0.386598 0.919154 0.432282 -0.236966
C5    C     C_3   0.610877 0.081538 0.429257 -0.234083
C6    C     C_3   0.611481 0.919025 0.430299 -0.233160
C7    C     C_3   0.502595 0.080474 0.628544 -0.235645
C8    C     C_3   0.501242 0.918219 0.628569 -0.231446
C9    C     C_R   0.499977 0.500417 0.257099 0.872939
C10   C     C_R   0.742384 0.500042 0.506146 0.863611
C11   C     C_R   0.499409 0.499559 0.742789 0.866567
C12   C     C_3   0.499601 0.501302 0.122184 0.033086
C13   C     C_3   0.501226 0.631480 0.039571 -0.150645
C14   C     C_3   0.394705 0.436738 0.042659 -0.178414
C15   C     C_3   0.396345 0.566756 0.957310 -0.177642
C16   C     C_3   0.498923 0.498549 0.877680 0.042909
C17   C     C_3   0.603791 0.563074 0.957252 -0.189791
C18   C     C_3   0.497254 0.368319 0.960288 -0.140972
C19   C     C_3   0.602160 0.433041 0.042570 -0.187947
C20   C     C_3   0.105039 0.821529 0.729155 -0.870944
C21   C     C_3   0.139038 0.237922 0.780142 -0.848551
C22   C     C_3   0.071234 0.643438 0.565686 0.073938
C23   C     C_3   0.071795 0.376954 0.595197 0.083048
C24   C     C_3   0.926769 0.639152 0.566746 -0.402524
C25   C     C_3   0.926820 0.381817 0.598670 -0.453081
C26   C     C_3   0.073229 0.484112 0.375723 -0.516813
C27   C     C_3   0.121800 0.501547 0.514392 0.047897
C28   C     C_3   0.878742 0.500498 0.511339 0.114002
H1    H     H_    0.312535 0.621195 0.918662 0.126237
H2    H     H_    0.588129 0.117632 0.679326 0.140678
H3    H     H_    0.585300 0.878895 0.680846 0.144274
H4    H     H_    0.420502 0.119272 0.683349 0.148190
H5    H     H_    0.417405 0.880602 0.681853 0.151880
H6    H     H_    0.699099 0.119509 0.474297 0.141419
H7    H     H_    0.699204 0.882048 0.477351 0.140467
H8    H     H_    0.502854 0.738729 0.075989 0.127059
H9    H     H_    0.309725 0.385614 0.082341 0.119024
H10   H     H_    0.688708 0.614205 0.917430 0.120876
H11   H     H_    0.495419 0.261117 0.923758 0.126586
H12   H     H_    0.893138 0.565515 0.311233 0.168463
H13   H     H_    0.685791 0.378953 0.082323 0.120604
H14   H     H_    0.100543 0.725499 0.496986 0.141821
H15   H     H_    0.099057 0.280821 0.544076 0.149342
H16   H     H_    0.889549 0.651336 0.665235 0.176173
H17   H     H_    0.891438 0.397068 0.697418 0.162436
H18   H     H_    0.891395 0.727890 0.509271 0.151622
H19   H     H_    0.889934 0.280577 0.565886 0.162656
H20   H     H_    0.107280 0.570284 0.314313 0.174426
H21   H     H_    0.109599 0.386760 0.333553 0.175146
H22   H     H_    0.209255 0.643283 0.712026 0.236327
H23   H     H_    0.895684 0.381911 0.334594 0.171839
H24   H     H_    0.164250 0.889328 0.668357 0.228888
H25   H     H_    0.135213 0.833756 0.829844 0.240771
H26   H     H_    0.005099 0.854326 0.721348 0.248647
H27   H     H_    0.089178 0.444327 0.785795 0.246685
H28   H     H_    0.188847 0.246787 0.872903 0.240002
H29   H     H_    0.195511 0.169858 0.717549 0.240441
H30   H     H_    0.044842 0.191246 0.796398 0.239327
H31   H     H_    0.379608 0.121821 0.334342 0.143283
H32   H     H_    0.382679 0.881917 0.332252 0.140997
H33   H     H_    0.299661 0.117992 0.483319 0.139766
H34   H     H_    0.299884 0.880459 0.479377 0.144843
H35   H     H_    0.611846 0.119969 0.329223 0.143377
H36   H     H_    0.614377 0.880067 0.330826 0.141506
N1    N     N_3   0.499750 0.138610 0.497240 -0.027805
N2    N     N_3   0.499750 0.861390 0.497240 -0.028255
N3    N     N_2   0.119987 0.678889 0.691742 -0.304227
N4    N     N_2   0.125706 0.373283 0.723232 -0.302137
O1    O     O_R   0.314910 0.616040 0.499970 -0.641986
O2    O     O_R   0.314910 0.383960 0.499970 -0.621520
O3    O     O_R   0.500080 0.616020 0.313900 -0.630448
O4    O     O_R   0.500080 0.383980 0.313900 -0.628212
O5    O     O_R   0.685320 0.616040 0.499930 -0.636734
O6    O     O_R   0.685320 0.383960 0.499930 -0.634932
O7    O     O_R   0.500150 0.616060 0.686000 -0.638306
O8    O     O_R   0.500150 0.383940 0.686000 -0.627601
Zn1   Zn    Zn3+2 0.500150 0.654960 0.499940 0.894995
Zn2   Zn    Zn3+2 0.500150 0.345040 0.499940 0.903071

loop_
_geom_bond_atom_site_label_1
_geom_bond_atom_site_label_2
_ccdc_geom_bond_type
C8    N2    S    
O2    Zn2   S    
C14   C18   S    
C20   N3    S    
O1    Zn1   S    
C9    O4    A    
H27   N4    S    
C7    C8    S    
C25   C28   S    
C26   C27   S    
O8    Zn2   S    
C11   O8    A    
C5    C6    S    
C10   O5    A    
C15   C16   S    
C4    H34   S    
C23   H15   S    
C6    H7    S    
C5    H35   S    
C18   C19   S    
C6    H36   S    
O4    Zn2   S    
C16   C17   S    
C7    H4    S    
C23   C27   S    
H22   N3    S    
C25   H19   S    
C26   H20   S    
C8    H5    S    
C7    H2    S    
C3    N1    S    
C15   H1    S    
C3    H33   S    
C24   C28   S    
C13   H8    S    
C20   H26   S    
C26   H21   S    
C1    O1    A    
C23   N4    S    
C18   H11   S    
C21   H29   S    
C7    N1    S    
C11   C16   S    
C5    H6    S    
C4    H32   S    
C2    C26   S    
O7    Zn1   S    
C5    N1    S    
C12   C14   S    
C22   C27   S    
C13   C15   S    
C21   N4    S    
C24   H16   S    
C22   C24   S    
C3    C4    S    
C25   H17   S    
O3    Zn1   S    
C10   C28   S    
N2    Zn1   S    
N1    Zn2   S    
C8    H3    S    
C9    O3    A    
C20   H25   S    
C21   H28   S    
C1    O2    A    
C13   C17   S    
C24   H18   S    
C21   H30   S    
C20   H24   S    
C11   O7    A    
C14   H9    S    
C4    N2    S    
C10   O6    A    
C22   H14   S    
C12   C19   S    
C17   C19   S    
C17   H10   S    
C23   C25   S    
C9    C12   S    
C22   N3    S    
C2    H23   S    
C2    H12   S    
C6    N2    S    
C12   C13   S    
C16   C18   S    
O6    Zn2   S    
C1    C27   S    
O5    Zn1   S    
C14   C15   S    
C2    C28   S    
C19   H13   S    
C3    H31   S    
