data_mof_unit_46009.cif
_audit_creation_date              2012-12-10T16:32:36-0500
_audit_creation_method            fapswitch 2.2
_symmetry_space_group_name_H-M    P1
_symmetry_Int_Tables_number       1
_space_group_crystal_system       triclinic
_cell_length_a                    16.805141
_cell_length_b                    16.805565
_cell_length_c                    16.805804
_cell_angle_alpha                 64.280276
_cell_angle_beta                  64.269004
_cell_angle_gamma                 64.275113
_cell_volume                      3671.38394837

loop_
_atom_site_label
_atom_site_type_symbol
_atom_type_description
_atom_site_fract_x
_atom_site_fract_y
_atom_site_fract_z
_atom_type_partial_charge
C1    C     C_R   0.579016 0.035790 0.605085 -0.017046
C2    C     C_R   0.821488 0.557146 0.049032 0.900729
C3    C     C_R   0.428806 0.979383 0.177450 0.980480
C4    C     C_R   0.557147 0.049030 0.821485 0.902280
C5    C     C_R   0.571182 0.822548 0.020624 0.980786
C6    C     C_R   0.442850 0.178517 0.950987 0.904693
C7    C     C_R   0.020623 0.571175 0.822554 0.981868
C8    C     C_R   0.950996 0.442842 0.178517 0.900383
C9    C     C_R   0.822565 0.020582 0.571206 0.980199
C10   C     C_R   0.178508 0.950950 0.442863 0.902709
C11   C     C_R   0.527811 0.019925 0.559409 0.046288
C12   C     C_R   0.394951 0.964128 0.421015 -0.018826
C13   C     C_R   0.440628 0.979973 0.472237 0.045908
C14   C     C_R   0.020190 0.559341 0.527650 0.046756
C15   C     C_R   0.980200 0.472181 0.440523 0.046629
C16   C     C_R   0.559238 0.527589 0.020386 0.048399
C17   C     C_R   0.472075 0.440258 0.980613 0.013734
C18   C     C_R   0.568830 0.019155 0.465615 -0.071228
C19   C     C_R   0.391704 0.997756 0.559514 -0.084818
C20   C     C_R   0.019697 0.465487 0.568512 -0.072122
C21   C     C_R   0.997938 0.559469 0.391601 -0.084883
C22   C     C_R   0.465452 0.568545 0.019586 -0.038910
C23   C     C_R   0.035959 0.604982 0.578947 -0.016520
C24   C     C_R   0.559351 0.391371 0.998370 -0.059671
C25   C     C_R   0.534448 0.980672 0.431251 -0.071725
C26   C     C_R   0.440516 0.002179 0.608321 -0.085837
C27   C     C_R   0.431246 0.534132 0.981035 -0.183934
C28   C     C_R   0.608163 0.440249 0.002709 -0.091760
C29   C     C_R   0.981026 0.431172 0.534287 -0.071946
C30   C     C_R   0.002305 0.608292 0.440434 -0.085008
C31   C     C_R   0.533647 0.085523 0.670901 0.351976
C32   C     C_R   0.415663 0.000313 0.322910 0.311667
C33   C     C_R   0.085523 0.670920 0.533635 0.352482
C34   C     C_R   0.964275 0.420965 0.394912 -0.016761
C35   C     C_R   0.000391 0.322852 0.415670 0.310651
C36   C     C_R   0.670870 0.533630 0.085643 0.354680
C37   C     C_R   0.322847 0.415522 0.000516 0.334417
C38   C     C_R   0.329098 0.914436 0.466365 0.347665
C39   C     C_R   0.677123 0.999577 0.584419 0.310142
C40   C     C_R   0.466352 0.329059 0.914620 0.338644
C41   C     C_R   0.584180 0.677043 0.999845 0.308595
C42   C     C_R   0.914570 0.466327 0.329084 0.351408
C43   C     C_R   0.999855 0.584117 0.677080 0.310332
C44   C     C_R   0.585034 0.082588 0.720539 -0.108217
C45   C     C_R   0.604939 0.578921 0.036057 -0.018375
C46   C     C_R   0.389952 0.966894 0.275854 -0.153345
C47   C     C_R   0.082467 0.720565 0.585077 -0.109939
C48   C     C_R   0.966943 0.275827 0.389957 -0.153456
C49   C     C_R   0.720544 0.585067 0.082554 -0.108346
C50   C     C_R   0.275848 0.389940 0.966924 -0.154750
C51   C     C_R   0.279460 0.917386 0.414966 -0.109149
C52   C     C_R   0.724166 0.033041 0.610086 -0.153025
C53   C     C_R   0.414995 0.279464 0.917418 -0.095934
C54   C     C_R   0.610011 0.724144 0.033108 -0.150024
C55   C     C_R   0.917500 0.414932 0.279454 -0.107149
C56   C     C_R   0.420937 0.394771 0.964463 -0.061456
C57   C     C_R   0.033089 0.609998 0.724157 -0.156397
C58   C     C_R   0.676574 0.076079 0.677936 -0.289794
C59   C     C_R   0.322066 0.923888 0.323430 -0.289456
C60   C     C_R   0.075910 0.677999 0.676615 -0.280987
C61   C     C_R   0.923993 0.323404 0.322043 -0.290030
C62   C     C_R   0.677968 0.676609 0.075995 -0.290339
C63   C     C_R   0.323468 0.322104 0.923854 -0.295306
C64   C     C_2   0.402518 0.983925 0.710450 1.019716
C65   C     C_2   0.597285 0.933510 0.358727 1.009507
C66   C     C_2   0.983905 0.710433 0.402529 1.016456
C67   C     C_R   0.979381 0.177442 0.428816 0.980370
C68   C     C_2   0.933549 0.358927 0.597255 1.009403
C69   C     C_2   0.710316 0.402341 0.984296 1.011321
C70   C     C_2   0.358980 0.597518 0.933294 1.045109
C71   C     C_2   0.289563 0.016033 0.597511 1.015911
C72   C     C_2   0.641481 0.066156 0.402800 1.010312
C73   C     C_2   0.597430 0.289272 0.016456 1.023376
C74   C     C_2   0.402416 0.641409 0.066306 1.009900
C75   C     C_2   0.016258 0.597424 0.289464 1.017336
C76   C     C_2   0.067494 0.402583 0.640494 1.011165
C77   C     C_R   0.049007 0.821488 0.557153 0.901922
C78   C     C_R   0.177443 0.428801 0.979400 0.982742
Cl1   Cl    Cl    0.422204 0.166667 0.679935 -0.518596
Cl2   Cl    Cl    0.544133 0.738330 0.901972 -0.506068
Cl3   Cl    Cl    0.833469 0.577797 0.320004 -0.519838
Cl4   Cl    Cl    0.902134 0.543826 0.738433 -0.500314
Cl5   Cl    Cl    0.455180 0.098516 0.261678 -0.495171
Cl6   Cl    Cl    0.166604 0.680145 0.422139 -0.516659
Cl7   Cl    Cl    0.098527 0.261522 0.455312 -0.496099
Cl8   Cl    Cl    0.679968 0.422235 0.166866 -0.517044
Cl9   Cl    Cl    0.261705 0.454096 0.099295 -0.484898
Cl10  Cl    Cl    0.320012 0.833318 0.577805 -0.488230
Cl11  Cl    Cl    0.738385 0.901304 0.544999 -0.498028
Cl12  Cl    Cl    0.577828 0.320112 0.833546 -0.545583
H1    H     H_    0.713131 0.089794 0.707940 0.216829
H2    H     H_    0.819601 0.320104 0.641425 0.373675
H3    H     H_    0.833948 0.424782 0.912636 0.390048
H4    H     H_    0.439543 0.567160 0.813207 0.340363
H5    H     H_    0.165875 0.087490 0.575183 0.389379
H6    H     H_    0.681026 0.179620 0.358675 0.373677
H7    H     H_    0.575175 0.165539 0.087600 0.388645
H8    H     H_    0.359123 0.682365 0.178740 0.373778
H9    H     H_    0.087811 0.575020 0.165795 0.389511
H10   H     H_    0.181538 0.358898 0.678964 0.374366
H11   H     H_    0.292037 0.910208 0.286863 0.216627
H12   H     H_    0.089481 0.708088 0.713205 0.222352
H13   H     H_    0.910313 0.286842 0.292008 0.216684
H14   H     H_    0.708044 0.713205 0.089581 0.216442
H15   H     H_    0.286926 0.292127 0.910083 0.217077
H16   H     H_    0.424860 0.912509 0.834124 0.389802
H17   H     H_    0.641424 0.819864 0.319448 0.373868
H18   H     H_    0.912354 0.834046 0.425017 0.389642
O1    O     O_R   0.982940 0.138950 0.510160 -0.583538
O2    O     O_R   0.982940 0.510160 0.138950 -0.597692
O3    O     O_R   0.861050 0.017060 0.489840 -0.583661
O4    O     O_R   0.138950 0.982940 0.510160 -0.595789
O5    O     O_R   0.867700 0.025880 0.612340 -0.629928
O6    O     O_R   0.132300 0.974120 0.387660 -0.623393
O7    O     O_R   0.025880 0.612340 0.867700 -0.624310
O8    O     O_R   0.974120 0.387660 0.132300 -0.624018
O9    O     O_R   0.612340 0.867700 0.025880 -0.630175
O10   O     O_R   0.387660 0.132300 0.974120 -0.624488
O11   O     O_R   0.387660 0.974120 0.132300 -0.629965
O12   O     O_R   0.017060 0.861050 0.489840 -0.596460
O13   O     O_R   0.612340 0.025880 0.867700 -0.622855
O14   O     O_R   0.132300 0.387660 0.974120 -0.631850
O15   O     O_R   0.867700 0.612340 0.025880 -0.624253
O16   O     O_R   0.974120 0.132300 0.387660 -0.630082
O17   O     O_R   0.025880 0.867700 0.612340 -0.621727
O18   O     O_2   0.323909 0.027848 0.745859 -0.527416
O19   O     O_R   0.458257 0.917731 0.766124 -0.715632
O20   O     O_2   0.645624 0.972277 0.285562 -0.525941
O21   O     O_R   0.597760 0.844727 0.373702 -0.744030
O22   O     O_2   0.027744 0.745925 0.323919 -0.527705
O23   O     O_R   0.138950 0.510160 0.982940 -0.572028
O24   O     O_R   0.917680 0.766025 0.458359 -0.716049
O25   O     O_2   0.972094 0.285744 0.645755 -0.524802
O26   O     O_R   0.844696 0.374188 0.597668 -0.745544
O27   O     O_2   0.745807 0.323772 0.028192 -0.527285
O28   O     O_R   0.765921 0.458116 0.917966 -0.717622
O29   O     O_2   0.284088 0.641966 0.973936 -0.471027
O30   O     O_R   0.374844 0.604758 0.841901 -0.710657
O31   O     O_2   0.254144 0.972141 0.676123 -0.519296
O32   O     O_R   0.233887 0.082219 0.541773 -0.716002
O33   O     O_2   0.714730 0.027167 0.354700 -0.526127
O34   O     O_R   0.861050 0.489840 0.017060 -0.596576
O35   O     O_R   0.626571 0.155007 0.402094 -0.741804
O36   O     O_2   0.676083 0.253964 0.972529 -0.530494
O37   O     O_R   0.541709 0.233511 0.082462 -0.710539
O38   O     O_2   0.352479 0.713403 0.028059 -0.529374
O39   O     O_R   0.403221 0.628040 0.154123 -0.743482
O40   O     O_2   0.972382 0.676030 0.254023 -0.527595
O41   O     O_R   0.082475 0.541646 0.233816 -0.715881
O42   O     O_2   0.029391 0.353617 0.713553 -0.525358
O43   O     O_R   0.156154 0.402734 0.625111 -0.741905
O44   O     O_R   0.510160 0.982940 0.138950 -0.583796
O45   O     O_R   0.489840 0.017060 0.861050 -0.596302
O46   O     O_R   0.489840 0.861050 0.017060 -0.583448
O47   O     O_R   0.510160 0.138950 0.982940 -0.594139
O48   O     O_R   0.017060 0.489840 0.861050 -0.583828
Zn1   Zn    Zn3+2 0.004880 0.004880 0.583590 1.087021
Zn2   Zn    Zn3+2 0.995120 0.995120 0.416410 1.082572
Zn3   Zn    Zn3+2 0.004880 0.583590 0.004880 1.098549
Zn4   Zn    Zn3+2 0.995120 0.416410 0.995120 1.082862
Zn5   Zn    Zn3+2 0.583590 0.004880 0.004880 1.083684
Zn6   Zn    Zn3+2 0.416410 0.995120 0.995120 1.082363

loop_
_geom_bond_atom_site_label_1
_geom_bond_atom_site_label_2
_ccdc_geom_bond_type
C16   C28   A    
C72   O35   S    
C11   C18   A    
C9    O3    A    
C46   C59   A    
C40   C56   A    
C19   C71   S    
C28   C69   S    
C34   C42   A    
H17   O21   S    
C77   O12   A    
O1    Zn1   S    
C67   O16   A    
C41   Cl2   S    
C2    O15   A    
O47   Zn5   S    
C18   C25   A    
C3    O44   A    
C68   O25   D    
C61   H13   S    
O3    Zn2   S    
O8    Zn4   S    
O17   Zn1   S    
C24   C73   S    
H8    O39   S    
C10   C51   S    
C5    O46   A    
O14   Zn4   S    
C1    C31   A    
C23   C43   A    
C20   C76   S    
C34   C35   A    
C7    O7    A    
C19   C26   A    
C26   C64   S    
O6    Zn2   S    
C47   C60   A    
C37   C56   A    
C67   O1    A    
C7    O48   A    
C44   C58   A    
C23   C33   A    
O16   Zn2   S    
C10   O4    A    
C39   Cl11  S    
C63   H15   S    
C24   C28   A    
C58   H1    S    
C15   C34   S    
C62   H14   S    
C6    O47   A    
C10   O6    A    
H3    O28   S    
C39   C52   A    
C69   O27   D    
C12   C32   A    
O12   Zn2   S    
C50   C63   A    
C13   C25   A    
C9    C52   S    
H7    O37   S    
C14   C30   A    
C60   H12   S    
C35   C48   A    
C50   C78   S    
C8    C55   S    
O46   Zn6   S    
C15   C29   A    
C66   O24   S    
C20   C29   A    
H10   O43   S    
C18   C72   S    
C72   O33   D    
C52   C58   A    
H2    O26   S    
C17   C24   A    
C31   C44   A    
C13   C19   A    
C42   Cl3   S    
C59   H11   S    
C65   O20   D    
C14   C20   A    
C74   O39   S    
O48   Zn4   S    
C25   C65   S    
O4    Zn1   S    
C1    C39   A    
C57   C60   A    
C71   O31   D    
C38   C51   A    
C4    C44   S    
C11   C26   A    
C36   Cl8   S    
H16   O19   S    
O7    Zn3   S    
H4    O30   S    
C17   C27   A    
C14   C23   S    
C78   O23   A    
C73   O37   S    
C2    C49   S    
C8    O2    A    
C42   C55   A    
C29   C68   S    
H9    O41   S    
C5    C54   S    
C76   O42   D    
C64   O19   S    
O13   Zn5   S    
H5    O32   S    
C43   C57   A    
C36   C45   A    
O23   Zn3   S    
C17   C56   S    
C30   C66   S    
C27   C70   S    
C3    O11   A    
O11   Zn6   S    
C70   O30   S    
C69   O28   S    
C64   O18   D    
C22   C27   A    
C33   C47   A    
C51   C59   A    
C47   C77   S    
C6    C53   S    
C77   O17   A    
C32   Cl5   S    
O10   Zn6   S    
C16   C22   A    
C49   C62   A    
C32   C46   A    
C74   O38   D    
C37   Cl9   S    
O44   Zn5   S    
O34   Zn4   S    
C5    O9    A    
C16   C45   S    
C65   O21   S    
C31   Cl1   S    
C71   O32   S    
C75   O40   D    
C54   C62   A    
C21   C30   A    
C21   C75   S    
C3    C46   S    
C76   O43   S    
O45   Zn6   S    
O9    Zn5   S    
O5    Zn1   S    
C68   O26   S    
C9    O5    A    
C41   C45   A    
H6    O35   S    
C37   C50   A    
C53   C63   A    
C48   C61   A    
O15   Zn3   S    
C75   O41   S    
C2    O34   A    
C55   C61   A    
C7    C57   S    
C4    O13   A    
C4    O45   A    
C48   C67   S    
C12   C38   A    
C78   O14   A    
C33   Cl6   S    
C41   C54   A    
H18   O24   S    
C8    O8    A    
O2    Zn3   S    
C35   Cl7   S    
C15   C21   A    
C12   C13   S    
C70   O29   D    
C40   C53   A    
C38   Cl10  S    
C43   Cl4   S    
C22   C74   S    
C1    C11   S    
C40   Cl12  S    
C6    O10   A    
C36   C49   A    
C66   O22   D    
C73   O36   D    
