data_mof_unit_20220.cif
_audit_creation_date              2012-10-26T19:59:39-0400
_audit_creation_method            fapswitch 2.2
_symmetry_space_group_name_H-M    P1
_symmetry_Int_Tables_number       1
_space_group_crystal_system       triclinic
_cell_length_a                    10.739851
_cell_length_b                    8.724859
_cell_length_c                    7.451897
_cell_angle_alpha                 102.857816
_cell_angle_beta                  94.230085
_cell_angle_gamma                 92.47562
_cell_volume                      677.62969503

loop_
_atom_site_label
_atom_site_type_symbol
_atom_type_description
_atom_site_fract_x
_atom_site_fract_y
_atom_site_fract_z
_atom_type_partial_charge
C1    C     C_R   0.490131 0.200202 0.453551 0.532805
C2    C     C_R   0.501312 0.799814 0.545887 0.524838
C3    C     C_R   0.737371 0.505621 0.498599 0.534697
C4    C     C_R   0.150329 0.776834 0.718857 -0.086513
C5    C     C_R   0.094736 0.906415 0.819596 -0.108331
C6    C     C_R   0.965103 0.908073 0.815368 -0.123811
C7    C     C_R   0.890291 0.780339 0.709972 -0.104055
C8    C     C_R   0.944688 0.646896 0.608300 0.025351
C9    C     C_1   0.413043 0.947326 0.247726 0.232821
C10   C     C_R   0.076326 0.644954 0.613279 0.023182
C11   C     C_R   0.129573 0.513024 0.506843 0.007441
C12   C     C_R   0.054676 0.389902 0.391950 -0.147764
C13   C     C_R   0.926260 0.391951 0.386788 -0.147654
C14   C     C_R   0.871288 0.517068 0.496726 0.006080
C15   C     C_2   0.471316 0.033310 0.426651 -0.062699
C16   C     C_2   0.504034 0.967163 0.567745 -0.171459
C17   C     C_R   0.262861 0.503755 0.502687 0.530647
Cu1   Cu    Cu3+1 0.513920 0.517380 0.684380 0.964871
Cu2   Cu    Cu3+1 0.486080 0.482620 0.315620 0.976600
H1    H     H_    0.096101 0.290481 0.307805 0.122486
H2    H     H_    0.597454 0.622067 0.051421 0.243860
H3    H     H_    0.251183 0.782605 0.722491 0.156014
H4    H     H_    0.152465 0.006665 0.899717 0.128418
H5    H     H_    0.922292 0.009590 0.892249 0.115091
H6    H     H_    0.790031 0.788840 0.706335 0.130696
H7    H     H_    0.869436 0.293387 0.300565 0.125493
H8    H     H_    0.539917 0.038236 0.702226 0.128352
H9    H     H_    0.402463 0.378043 0.948592 0.239837
N1    N     N_2   0.465100 0.456430 0.038520 -0.247390
N2    N     N_2   0.534900 0.543570 0.961480 -0.241773
N3    N     N_1   0.366751 0.879478 0.105407 -0.292862
O1    O     O_R   0.509050 0.286130 0.619770 -0.513131
O2    O     O_R   0.485540 0.256780 0.308360 -0.498389
O3    O     O_R   0.331410 0.514680 0.655740 -0.506877
O4    O     O_R   0.307900 0.485330 0.344330 -0.495355
O5    O     O_R   0.514460 0.743220 0.691640 -0.502748
O6    O     O_R   0.490950 0.713870 0.380230 -0.489062
O7    O     O_R   0.692100 0.514670 0.655670 -0.502851
O8    O     O_R   0.668590 0.485320 0.344260 -0.506852

loop_
_geom_bond_atom_site_label_1
_geom_bond_atom_site_label_2
_ccdc_geom_bond_type
C11   C12   A    
C6    C7    A    
C1    C15   S    
C4    H3    S    
H2    N2    S    
C7    H6    S    
C6    H5    S    
C12   H1    S    
C16   H8    S    
C9    C15   S    
C3    O8    A    
C7    C8    A    
Cu2   O4    S    
C13   C14   A    
Cu1   O3    S    
C2    O6    A    
Cu1   O5    S    
N1    N2    D    
C3    C14   S    
Cu2   O8    S    
Cu1   N2    S    
C17   O4    A    
H9    N1    S    
Cu1   O7    S    
C5    C6    A    
C13   H7    S    
Cu1   O1    S    
C17   O3    A    
C9    N3    T    
C1    O2    A    
C15   C16   D    
Cu2   N1    S    
C2    C16   S    
C12   C13   A    
C8    C10   A    
Cu1   Cu2   S    
C10   C11   A    
C2    O5    A    
C11   C17   S    
C8    C14   A    
Cu2   O6    S    
C4    C10   A    
C1    O1    A    
C3    O7    A    
Cu2   O2    S    
C4    C5    A    
C5    H4    S    
