data_mof_unit_58938.cif
_audit_creation_date              2012-12-10T18:00:15-0500
_audit_creation_method            fapswitch 2.2
_symmetry_space_group_name_H-M    P1
_symmetry_Int_Tables_number       1
_space_group_crystal_system       triclinic
_cell_length_a                    10.83151
_cell_length_b                    9.526459
_cell_length_c                    10.639925
_cell_angle_alpha                 90.263238
_cell_angle_beta                  90.27816
_cell_angle_gamma                 89.982519
_cell_volume                      1097.86605011

loop_
_atom_site_label
_atom_site_type_symbol
_atom_type_description
_atom_site_fract_x
_atom_site_fract_y
_atom_site_fract_z
_atom_type_partial_charge
C1    C     C_R   0.871769 0.499986 0.499998 -0.013437
C2    C     C_R   0.128231 0.500014 0.500002 -0.013437
C3    C     C_R   0.262085 0.500011 0.499982 0.810079
C4    C     C_R   0.737915 0.499989 0.500018 0.810079
C5    C     C_R   0.499674 0.499612 0.259320 0.863871
C6    C     C_R   0.500325 0.500388 0.740680 0.863871
C7    C     C_3   0.400236 0.570620 0.041911 -0.252214
C8    C     C_3   0.599763 0.429380 0.958089 -0.252214
C9    C     C_3   0.504103 0.634144 0.959985 -0.218328
C10   C     C_3   0.495897 0.365856 0.040015 -0.218328
C11   C     C_3   0.397910 0.438677 0.957582 0.441697
C12   C     C_3   0.602090 0.561323 0.042418 0.441697
C13   C     C_3   0.500443 0.501266 0.877329 -0.120980
C14   C     C_3   0.499557 0.498734 0.122671 -0.120980
C15   C     C_R   0.423109 0.074024 0.421829 -0.010474
C16   C     C_R   0.576891 0.925975 0.578171 -0.010474
C17   C     C_R   0.576901 0.074759 0.578161 0.000411
C18   C     C_R   0.423099 0.925241 0.421839 0.000411
C19   C     C_R   0.063919 0.372531 0.503773 -0.132609
C20   C     C_R   0.936081 0.627469 0.496227 -0.132609
C21   C     C_R   0.936197 0.372518 0.503776 -0.163596
C22   C     C_R   0.063802 0.627482 0.496224 -0.163596
Cu1   Cu    Cu3+1 0.500000 0.640660 0.500000 0.979275
Cu2   Cu    Cu3+1 0.500000 0.359340 0.500000 0.979275
H1    H     H_    0.361503 0.129762 0.359180 0.125352
H2    H     H_    0.638497 0.870238 0.640820 0.125352
H3    H     H_    0.638539 0.131081 0.640789 0.121880
H4    H     H_    0.361461 0.868919 0.359210 0.121880
H5    H     H_    0.318240 0.627092 0.078703 0.176904
H6    H     H_    0.681759 0.372908 0.921297 0.176904
H7    H     H_    0.508619 0.743759 0.925312 0.180133
H8    H     H_    0.491381 0.256241 0.074688 0.180133
H9    H     H_    0.112004 0.272874 0.506843 0.158366
H10   H     H_    0.887996 0.727126 0.493157 0.158366
H11   H     H_    0.888205 0.272856 0.506881 0.153548
H12   H     H_    0.111795 0.727144 0.493119 0.153548
N1    N     N_R   0.500000 0.852070 0.500000 -0.162763
N2    N     N_R   0.500000 0.147930 0.500000 -0.162763
O1    O     O_R   0.319640 0.618740 0.499990 -0.596831
O2    O     O_R   0.680360 0.381260 0.500010 -0.596831
O3    O     O_R   0.680360 0.618740 0.500010 -0.581590
O4    O     O_R   0.319640 0.381260 0.499990 -0.581590
O5    O     O_R   0.499970 0.618770 0.316850 -0.563851
O6    O     O_R   0.500030 0.381230 0.683150 -0.563851
O7    O     O_R   0.500030 0.618770 0.683150 -0.590187
O8    O     O_R   0.499970 0.381230 0.316850 -0.590187
Cl1   Cl    Cl    0.261517 0.357374 0.897923 -0.604656
Cl2   Cl    Cl    0.738483 0.642626 0.102077 -0.604656

loop_
_geom_bond_atom_site_label_1
_geom_bond_atom_site_label_2
_ccdc_geom_bond_type
C2    C22   A    
C15   C18   A    
Cu2   N2    S    
Cu1   Cu2   S    
C15   N2    A    
C1    C21   A    
C8    C13   S    
C21   H11   S    
C6    O7    A    
C22   H12   S    
C5    O8    A    
C11   Cl1   S    
Cu1   O3    S    
C12   Cl2   S    
C16   N1    A    
C8    C12   S    
C1    C4    S    
C20   H10   S    
C8    H6    S    
C2    C3    S    
C5    O5    A    
C3    O1    A    
C3    O4    A    
C6    O6    A    
C4    O3    A    
C6    C13   S    
C7    C11   S    
C11   C13   S    
C5    C14   S    
Cu1   O7    S    
C7    H5    S    
C19   C21   A    
C18   N1    A    
C12   C14   S    
C18   H4    S    
C17   N2    A    
C20   C22   A    
C16   H2    S    
Cu2   O6    S    
C9    C12   S    
Cu1   O1    S    
C15   H1    S    
C10   C11   S    
C9    H7    S    
C17   H3    S    
C10   H8    S    
Cu2   O4    S    
C8    C10   S    
C19   H9    S    
C7    C9    S    
C9    C13   S    
C16   C17   A    
C1    C20   A    
Cu2   O2    S    
C2    C19   A    
Cu1   N1    S    
Cu1   O5    S    
C7    C14   S    
C4    O2    A    
C10   C14   S    
Cu2   O8    S    
