data_mof_unit_17731.cif
_audit_creation_date              2013-03-05T16:43:02-0500
_audit_creation_method            fapswitch 2.2
_symmetry_space_group_name_H-M    P1
_symmetry_Int_Tables_number       1
_space_group_crystal_system       triclinic
_cell_length_a                    10.636157
_cell_length_b                    10.737184
_cell_length_c                    9.859145
_cell_angle_alpha                 89.965308
_cell_angle_beta                  89.807067
_cell_angle_gamma                 90.044914
_cell_volume                      1125.93083459

loop_
_atom_site_label
_atom_site_type_symbol
_atom_site_description
_atom_site_fract_x
_atom_site_fract_y
_atom_site_fract_z
_atom_type_partial_charge
O1    O     O_R   0.500020 0.316790 0.614690 -0.610358
O2    O     O_R   0.500000 0.316760 0.385350 -0.620799
C1    C     C_R   0.500917 0.260478 0.499907 0.935427
O3    O     O_R   0.314800 0.500000 0.614670 -0.644385
O4    O     O_R   0.314790 0.499960 0.385330 -0.630259
C2    C     C_R   0.257657 0.499707 0.500380 0.846709
Zn1   Zn    Zn3+2 0.500010 0.500020 0.653130 0.937418
Zn2   Zn    Zn3+2 0.499990 0.499980 0.346870 0.949030
O5    O     O_R   0.500000 0.683240 0.614650 -0.629780
O6    O     O_R   0.499980 0.683210 0.385310 -0.629029
O7    O     O_R   0.685210 0.500040 0.614670 -0.621597
O8    O     O_R   0.685200 0.500000 0.385330 -0.625036
C3    C     C_R   0.497344 0.739480 0.499947 0.888670
C4    C     C_R   0.742302 0.500001 0.500074 0.883672
C5    C     C_3   0.070831 0.496139 0.648920 -0.397911
H1    H     H_    0.106792 0.577591 0.706909 0.174624
H2    H     H_    0.102495 0.409700 0.701006 0.194270
C6    C     C_3   0.928326 0.499872 0.649076 -0.352605
H3    H     H_    0.890888 0.420382 0.709111 0.226613
H4    H     H_    0.896652 0.586242 0.701712 0.167010
H5    H     H_    0.107796 0.702447 0.481906 0.172612
H6    H     H_    0.892977 0.702741 0.483100 0.190523
C7    C     C_3   0.072363 0.617794 0.429116 -0.398607
C8    C     C_3   0.073555 0.381295 0.426009 -0.464377
C9    C     C_3   0.121320 0.498890 0.501038 0.132031
H7    H     H_    0.110842 0.378995 0.320452 0.154421
H8    H     H_    0.109063 0.296109 0.477623 0.195272
C10   C     C_3   0.878685 0.498778 0.500695 0.047591
C11   C     C_3   0.927911 0.618214 0.429513 -0.476318
C12   C     C_3   0.928769 0.382941 0.421258 0.190928
H9    H     H_    0.901124 0.394001 0.312831 0.111130
H10   H     H_    0.106997 0.621390 0.322478 0.180300
H11   H     H_    0.893363 0.623221 0.323140 0.181212
C13   C     C_R   0.475303 0.062470 0.614909 0.094003
C14   C     C_R   0.501859 0.129200 0.498541 -0.070504
C15   C     C_R   0.526469 0.064284 0.377616 -0.149622
H12   H     H_    0.548525 0.112468 0.283908 0.179288
C16   C     C_R   0.524054 0.935089 0.377827 -0.219355
H13   H     H_    0.545893 0.886442 0.284423 0.168292
C17   C     C_R   0.495120 0.870713 0.498525 -0.121266
C18   C     C_R   0.467796 0.938238 0.614804 0.085790
C19   C     C_3   0.431563 0.932348 0.762374 -0.033398
C20   C     C_3   0.441370 0.075997 0.760349 -0.537647
H14   H     H_    0.505093 0.888174 0.826460 0.174041
H15   H     H_    0.351054 0.126668 0.772955 0.192926
H16   H     H_    0.520756 0.112939 0.821400 0.208018
C21   C     C_R   0.431101 0.413906 0.071700 0.231117
N1    N     N_R   0.499150 0.499140 0.142800 -0.107965
C22   C     C_R   0.576620 0.577458 0.071651 -0.135800
H17   H     H_    0.636481 0.641838 0.125805 0.142712
C23   C     C_R   0.576714 0.577390 0.927609 -0.141651
H18   H     H_    0.636557 0.641773 0.872923 0.145797
N2    N     N_R   0.499150 0.499180 0.857150 -0.114316
C24   C     C_R   0.430813 0.414114 0.929062 0.230892
C25   C     C_3   0.291474 0.399153 0.925108 -0.529593
C26   C     C_3   0.292177 0.397775 0.078820 -0.516397
H19   H     H_    0.243412 0.482241 0.883052 0.214340
H20   H     H_    0.262369 0.308905 0.880120 0.197393
H21   H     H_    0.243602 0.479494 0.124176 0.216239
H22   H     H_    0.265286 0.306105 0.122655 0.200488
C27   C     C_3   0.295716 0.886718 0.788953 -0.349004
C28   C     C_3   0.292512 0.758738 0.855956 -0.890890
H23   H     H_    0.329789 0.687200 0.786213 0.302597
H24   H     H_    0.348444 0.758949 0.950943 0.259842
H25   H     H_    0.193903 0.733903 0.881651 0.234263
H26   H     H_    0.247345 0.952163 0.859196 0.217417
H27   H     H_    0.240555 0.883898 0.693294 0.209032
N3    N     N_R   0.875353 0.265023 0.470754 0.200519
O9    O     O_R   0.804340 0.198987 0.391184 -0.420462
O10   O     O_R   0.904578 0.220836 0.589487 -0.425539

loop_
_geom_bond_atom_site_label_1
_geom_bond_atom_site_label_2
_geom_bond_distance
_ccdc_geom_bond_type
C5    C6    1.516262 S    
C16   C17   1.408815 A    
C25   C26   1.515574 S    
C26   H21   1.111944 S    
C5    H2    1.113372 S    
C28   H23   1.104219 S    
H6    C11   1.113861 S    
O4    Zn2   2.004727 S    
C18   C19   1.505109 S    
C27   H27   1.112810 S    
C28   H24   1.111164 S    
C14   C15   1.405314 A    
C8    H8    1.113309 S    
C1    C14   1.409675 S    
Zn2   O8    2.007337 S    
C4    C10   1.450694 S    
C7    H10   1.113493 S    
C10   C12   1.563168 S    
O2    C1    1.280689 A    
C6    C10   1.556995 S    
N3    O10   1.301549 A    
O1    Zn1   2.003770 S    
N2    C24   1.363786 A    
C26   H22   1.111567 S    
Zn1   O7    2.004725 S    
C20   H15   1.110999 S    
C19   C27   1.546803 S    
C27   C28   1.524628 S    
C13   C18   1.336226 A    
C19   H14   1.113268 S    
O3    Zn1   2.007339 S    
O4    C2    1.285010 A    
C7    C11   1.536420 S    
C15   C16   1.387416 A    
C10   C11   1.551312 S    
C20   H16   1.111654 S    
C8    H7    1.112744 S    
C13   C14   1.380545 A    
C6    H4    1.114769 S    
C25   H19   1.109430 S    
H5    C7    1.113746 S    
C12   H9    1.115945 S    
O7    C4    1.280861 A    
C8    C12   1.540953 S    
C5    C9    1.552305 S    
C2    C9    1.450113 S    
C19   C20   1.545940 S    
Zn1   N2    2.011467 S    
C23   N2    1.368149 A    
O3    C2    1.282074 A    
C5    H1    1.113356 S    
C21   N1    1.362322 A    
C11   H11   1.113704 S    
Zn2   N1    2.012031 S    
C7    C9    1.551226 S    
C16   H13   1.083575 S    
C8    C9    1.549902 S    
C15   H12   1.083524 S    
C22   H17   1.081816 S    
C25   H20   1.110184 S    
O2    Zn2   2.003287 S    
Zn1   O5    2.003287 S    
C6    H3    1.111143 S    
O5    C3    1.282082 A    
C21   C24   1.406309 A    
N1    C22   1.368373 A    
C3    C17   1.409358 S    
C17   C18   1.386892 A    
C28   H25   1.110400 S    
O1    C1    1.283394 A    
C24   C25   1.491226 S    
C27   H26   1.112132 S    
N3    O9    1.300961 A    
Zn2   O6    2.003770 S    
C12   N3    1.469766 S    
C13   C20   1.484701 S    
C23   H18   1.081783 S    
O8    C4    1.285808 A    
C21   C26   1.489014 S    
C22   C23   1.420122 A    
O6    C3    1.282130 A    
