data_mof_unit_50344.cif
_audit_creation_date              2012-12-11T15:52:22-0500
_audit_creation_method            fapswitch 2.2
_symmetry_space_group_name_H-M    P1
_symmetry_Int_Tables_number       1
_space_group_crystal_system       triclinic
_cell_length_a                    11.015597
_cell_length_b                    11.429879
_cell_length_c                    18.801358
_cell_angle_alpha                 89.826276
_cell_angle_beta                  90.12124
_cell_angle_gamma                 119.357632
_cell_volume                      2063.20476318

loop_
_atom_site_label
_atom_site_type_symbol
_atom_type_description
_atom_site_fract_x
_atom_site_fract_y
_atom_site_fract_z
_atom_type_partial_charge
Br1   Br    Br    0.775363 0.986669 0.080484 -0.313561
Br2   Br    Br    0.081651 0.246794 0.103516 -0.292950
Br3   Br    Br    0.234727 0.804361 0.122988 -0.435115
Br4   Br    Br    0.426102 0.672142 0.152365 -0.382852
Br5   Br    Br    0.909152 0.729416 0.064886 -0.317838
Br6   Br    Br    0.305866 0.218308 0.011341 -0.409652
Br7   Br    Br    0.855676 0.616505 0.898317 -0.262306
Br8   Br    Br    0.804707 0.042707 0.905114 -0.259355
Br9   Br    Br    0.513944 0.279395 0.863415 -0.346757
Br10  Br    Br    0.139390 0.938051 0.913198 -0.247296
Br11  Br    Br    0.825202 0.310600 0.920215 -0.444832
Br12  Br    Br    0.701900 0.766676 0.956498 -0.306048
C1    C     C_R   0.546953 0.419502 0.140308 0.546534
C2    C     C_3   0.963188 0.707170 0.458457 -0.265998
C3    C     C_3   0.748426 0.030224 0.458882 -0.268450
C4    C     C_3   0.296265 0.253743 0.462313 -0.270913
C5    C     C_R   0.517242 0.455481 0.352868 0.562433
C6    C     C_R   0.542108 0.060781 0.352955 0.563341
C7    C     C_R   0.937948 0.480633 0.352982 0.551877
C8    C     C_R   0.452880 0.523921 0.644168 0.552446
C9    C     C_R   0.071769 0.549138 0.644242 0.559469
C10   C     C_R   0.477385 0.930522 0.644091 0.558557
C11   C     C_R   0.511536 0.994096 0.923428 0.012180
C12   C     C_R   0.548091 0.068582 0.145789 0.617313
C13   C     C_R   0.078932 0.559334 0.933920 -0.026363
C14   C     C_R   0.485290 0.495653 0.925116 0.074280
C15   C     C_R   0.996606 0.519585 0.076949 0.016111
C16   C     C_R   0.530054 0.026997 0.071832 0.005021
C17   C     C_R   0.525573 0.440171 0.065310 0.009424
C18   C     C_R   0.406518 0.996947 0.963218 0.020064
C19   C     C_R   0.094585 0.467317 0.975315 -0.058834
C20   C     C_R   0.453439 0.555130 0.982668 -0.044017
C21   C     C_R   0.056004 0.450032 0.047177 0.023798
C22   C     C_R   0.420064 0.023745 0.035028 -0.017675
C23   C     C_R   0.933122 0.481092 0.147030 0.574547
C24   C     C_R   0.477495 0.528606 0.052030 0.072794
C25   C     C_R   0.637997 0.019300 0.033319 0.126424
C26   C     C_R   0.969711 0.605969 0.032464 0.171898
C27   C     C_R   0.496435 0.345065 0.010979 0.103343
C28   C     C_R   0.992223 0.608119 0.960074 0.225693
C29   C     C_R   0.636145 0.017288 0.958490 0.207864
C30   C     C_R   0.512336 0.389999 0.940043 0.235562
C31   C     C_3   0.257766 0.893150 0.971023 0.084075
C32   C     C_3   0.996863 0.321824 0.965000 0.061219
C33   C     C_3   0.525691 0.699636 0.001831 0.025471
C34   C     C_R   0.454436 0.521409 0.853376 0.587847
C35   C     C_3   0.976974 0.304186 0.044123 0.101247
C36   C     C_3   0.268689 0.932796 0.048827 0.065218
C37   C     C_3   0.541098 0.665605 0.077870 0.090838
C38   C     C_R   0.485517 0.960684 0.568731 0.018509
C39   C     C_R   0.040611 0.526855 0.569022 0.016034
C40   C     C_R   0.474031 0.515241 0.568595 0.017549
C41   C     C_R   0.010311 0.509474 0.420815 0.028192
C42   C     C_R   0.499044 0.989676 0.420370 0.029380
C43   C     C_R   0.485829 0.496516 0.420317 0.028438
C44   C     C_R   0.584932 0.947175 0.529435 0.032656
C45   C     C_R   0.118514 0.575966 0.859360 0.561738
C46   C     C_R   0.052744 0.634823 0.529288 0.032742
C47   C     C_R   0.364018 0.413848 0.530735 0.035387
C48   C     C_R   0.038545 0.627426 0.456952 0.040674
C49   C     C_R   0.591959 0.960583 0.457045 0.036432
C50   C     C_R   0.368734 0.404261 0.458487 0.034463
C51   C     C_R   0.382359 0.977745 0.457251 -0.163543
C52   C     C_R   0.024331 0.410033 0.458255 -0.161858
C53   C     C_R   0.584845 0.613460 0.455474 -0.161306
C54   C     C_R   0.038349 0.418153 0.532524 -0.161237
C55   C     C_R   0.376364 0.964660 0.531641 -0.163702
C56   C     C_R   0.480905 0.934816 0.853070 0.585826
C57   C     C_R   0.579604 0.622259 0.529818 -0.165100
C58   C     C_3   0.738995 0.014888 0.538805 -0.275436
C59   C     C_3   0.979563 0.714199 0.538261 -0.274686
C60   C     C_3   0.290829 0.265688 0.542059 -0.272763
Cr1   Cr    Cr6+3 0.769160 0.541570 0.250690 1.090996
Cr2   Cr    Cr6+3 0.458430 0.227590 0.250690 1.091866
Cr3   Cr    Cr6+3 0.772410 0.230840 0.250690 1.087870
Cr4   Cr    Cr6+3 0.541570 0.769160 0.749310 1.109466
Cr5   Cr    Cr6+3 0.227590 0.458430 0.749310 1.085505
Cr6   Cr    Cr6+3 0.230840 0.772410 0.749310 1.098144
H1    H     H_    0.302908 0.990116 0.429832 0.127202
H2    H     H_    0.852604 0.647568 0.442248 0.161119
H3    H     H_    0.797641 0.136888 0.442315 0.158871
H4    H     H_    0.364723 0.212680 0.446293 0.159366
H5    H     H_    0.780990 0.112118 0.567448 0.147869
H6    H     H_    0.879078 0.657818 0.567199 0.149046
H7    H     H_    0.355536 0.231334 0.571374 0.150936
H8    H     H_    0.023104 0.806466 0.431914 0.141197
H9    H     H_    0.790497 0.970316 0.432906 0.139731
H10   H     H_    0.191802 0.206246 0.436767 0.139705
H11   H     H_    0.249060 0.794300 0.962852 0.081102
H12   H     H_    0.013562 0.321965 0.431326 0.128237
H13   H     H_    0.048741 0.269847 0.940181 0.232845
H14   H     H_    0.461328 0.748643 0.993386 0.114522
H15   H     H_    0.866310 0.261319 0.059753 0.165581
H16   H     H_    0.207841 0.982422 0.062485 0.255325
H17   H     H_    0.649536 0.704615 0.096120 0.233336
H18   H     H_    0.671675 0.692136 0.426768 0.129991
H19   H     H_    0.042601 0.338020 0.561180 0.134120
H20   H     H_    0.290311 0.963041 0.560033 0.129601
H21   H     H_    0.659963 0.709290 0.556799 0.131790
H22   H     H_    0.775515 0.946163 0.559131 0.140853
H23   H     H_    0.049098 0.817359 0.558038 0.141930
H24   H     H_    0.183294 0.226388 0.562653 0.143117
O1    O     O_R   0.911480 0.572650 0.170990 -0.444802
O2    O     O_R   0.528970 0.640340 0.824320 -0.454806
O3    O     O_R   0.111370 0.471030 0.824320 -0.456503
O4    O     O_R   0.359660 0.888630 0.824320 -0.491147
O5    O     O_R   0.909980 0.572450 0.331530 -0.511645
O6    O     O_R   0.427550 0.337530 0.331530 -0.515205
O7    O     O_R   0.662470 0.090020 0.331530 -0.513824
O8    O     O_R   0.572450 0.909980 0.668470 -0.511225
O9    O     O_R   0.337530 0.427550 0.668470 -0.507724
O10   O     O_R   0.090020 0.662470 0.668470 -0.505985
O11   O     O_R   0.638950 0.528780 0.324500 -0.502286
O12   O     O_R   0.427350 0.338830 0.170990 -0.425049
O13   O     O_R   0.471220 0.110170 0.324500 -0.509380
O14   O     O_R   0.889830 0.361050 0.324500 -0.506864
O15   O     O_R   0.528780 0.638950 0.675500 -0.507362
O16   O     O_R   0.110170 0.471220 0.675500 -0.500395
O17   O     O_R   0.361050 0.889830 0.675500 -0.504118
O18   O     O_3   0.666667 0.333333 0.250560 -0.335284
O19   O     O_3   0.333333 0.666667 0.749440 -0.342816
O20   O     O_R   0.661170 0.088520 0.170990 -0.463645
O21   O     O_R   0.572650 0.911480 0.829010 -0.449148
O22   O     O_R   0.338830 0.427350 0.829010 -0.481049
O23   O     O_R   0.088520 0.661170 0.829010 -0.434323
O24   O     O_R   0.640340 0.528970 0.175680 -0.476394
O25   O     O_R   0.471030 0.111370 0.175680 -0.486778
O26   O     O_R   0.888630 0.359660 0.175680 -0.497944

loop_
_geom_bond_atom_site_label_1
_geom_bond_atom_site_label_2
_ccdc_geom_bond_type
C13   C19   A    
C45   O3    A    
Cr4   O2    S    
Cr3   O20   S    
C2    C59   S    
C4    C60   S    
C6    O7    A    
C52   H12   S    
C60   H7    S    
C5    O11   A    
C3    H3    S    
C51   H1    S    
C15   C21   A    
C14   C20   A    
C17   C24   A    
Br9   C30   S    
C31   H11   S    
C36   H16   S    
Cr4   O19   S    
C20   C24   A    
C54   H19   S    
C1    C17   S    
C23   O1    A    
C13   C28   A    
C45   O23   A    
C41   C52   A    
C46   C59   S    
Cr1   O5    S    
C42   C51   A    
C15   C26   A    
C46   C48   A    
Cr1   O24   S    
Cr2   O12   S    
C43   C50   A    
Br3   C36   S    
Cr1   O11   S    
Cr3   O26   S    
C20   C33   S    
Cr5   O9    S    
C33   H14   S    
C40   C57   A    
C55   H20   S    
C53   H18   S    
C16   C25   A    
C10   O8    A    
C12   O25   A    
Br7   C28   S    
C19   C21   A    
C2    H2    S    
C38   C55   A    
C5    C43   S    
C1    O12   A    
C32   C35   S    
Br1   C25   S    
C47   C60   S    
C10   C38   S    
C7    C41   S    
C59   H23   S    
C16   C22   A    
Cr1   O18   S    
Br5   C26   S    
C34   O22   A    
C13   C45   S    
C56   O4    A    
C56   O21   A    
C4    H4    S    
C8    O15   A    
C43   C53   A    
C41   C48   A    
C58   H22   S    
C27   C30   A    
C3    C49   S    
C10   O17   A    
C51   C55   A    
Cr3   O7    S    
C19   C32   S    
C18   C22   A    
C11   C18   A    
Br8   C29   S    
C2    H8    S    
Cr5   O16   S    
C5    O6    A    
C14   C34   S    
C15   C23   S    
C34   O2    A    
C38   C44   A    
C39   C54   A    
C52   C54   A    
C11   C56   S    
C9    O16   A    
C40   C47   A    
C8    O9    A    
Cr2   O25   S    
C33   C37   S    
C17   C27   A    
C12   O20   A    
C35   H15   S    
Br11  C32   S    
C39   C46   A    
C37   H17   S    
C58   H5    S    
C32   H13   S    
C1    O24   A    
C57   H21   S    
C44   C58   S    
C21   C35   S    
C18   C31   S    
C22   C36   S    
C9    C39   S    
C9    O10   A    
Cr2   O18   S    
C14   C30   A    
C3    H9    S    
C59   H6    S    
C31   C36   S    
C3    C58   S    
C47   C50   A    
Br10  C31   S    
C44   C49   A    
Cr4   O21   S    
Cr3   O18   S    
C12   C16   S    
Br12  C33   S    
C6    O13   A    
C42   C49   A    
Br2   C35   S    
C2    C48   S    
Cr4   O15   S    
C11   C29   A    
Br4   C37   S    
Cr6   O4    S    
Cr6   O19   S    
Cr5   O3    S    
Cr6   O17   S    
C8    C40   S    
Cr5   O22   S    
C26   C28   A    
C60   H24   S    
C7    O14   A    
C53   C57   A    
Cr2   O13   S    
C25   C29   A    
C23   O26   A    
Cr5   O19   S    
C6    C42   S    
Cr2   O6    S    
Cr1   O1    S    
Cr4   O8    S    
C4    H10   S    
Br6   C27   S    
Cr6   O10   S    
Cr3   O14   S    
Cr6   O23   S    
C4    C50   S    
C24   C37   S    
C7    O5    A    
