data_mof_unit_38002.cif
_audit_creation_date              2012-10-26T18:43:31-0400
_audit_creation_method            fapswitch 2.2
_symmetry_space_group_name_H-M    P1
_symmetry_Int_Tables_number       1
_space_group_crystal_system       triclinic
_cell_length_a                    10.766976
_cell_length_b                    10.859129
_cell_length_c                    9.541916
_cell_angle_alpha                 90.004599
_cell_angle_beta                  89.800543
_cell_angle_gamma                 90.341131
_cell_volume                      1115.61410485

loop_
_atom_site_label
_atom_site_type_symbol
_atom_type_description
_atom_site_fract_x
_atom_site_fract_y
_atom_site_fract_z
_atom_type_partial_charge
C1    C     C_R   0.500066 0.262736 0.499844 0.541202
C2    C     C_R   0.498767 0.937926 0.621291 -0.027113
C3    C     C_3   0.492493 0.929139 0.777805 0.126472
C4    C     C_R   0.259999 0.500570 0.499854 0.549106
C5    C     C_3   0.491297 0.071741 0.777473 0.123901
C6    C     C_R   0.557417 0.592864 0.073430 0.182588
C7    C     C_R   0.432711 0.415857 0.074711 0.026232
C8    C     C_R   0.432480 0.416033 0.925803 0.042246
C9    C     C_R   0.558154 0.592310 0.925711 0.148257
C10   C     C_3   0.692638 0.624900 0.917506 -0.251987
C11   C     C_3   0.692618 0.624858 0.076655 0.086781
C12   C     C_3   0.878308 0.496408 0.499220 0.076349
C13   C     C_R   0.500367 0.737290 0.499864 0.551334
C14   C     C_R   0.740093 0.498068 0.499743 0.577162
C15   C     C_3   0.073773 0.379240 0.568249 -0.212338
C16   C     C_3   0.929136 0.380416 0.580755 0.409679
C17   C     C_3   0.071527 0.611337 0.582184 -0.200007
C18   C     C_3   0.072925 0.502886 0.344353 0.108268
C19   C     C_3   0.122322 0.499711 0.498451 -0.069307
C20   C     C_3   0.928176 0.616294 0.572256 0.016944
C21   C     C_3   0.929361 0.496510 0.344574 0.114877
C22   C     C_R   0.498469 0.062280 0.621154 -0.023909
C23   C     C_R   0.501112 0.130192 0.498178 0.001801
C24   C     C_R   0.504773 0.064608 0.370476 -0.137636
C25   C     C_R   0.504725 0.935460 0.370563 -0.122850
C26   C     C_R   0.501440 0.869894 0.498320 0.005822
Cu1   Cu    Cu3+1 0.499990 0.499980 0.640670 0.997281
Cu2   Cu    Cu3+1 0.500010 0.500020 0.359330 1.025898
H1    H     H_    0.116895 0.366729 0.673106 0.131314
H2    H     H_    0.750392 0.550911 0.121514 0.210998
H3    H     H_    0.098709 0.602642 0.694197 0.117077
H4    H     H_    0.890426 0.623601 0.680829 0.132232
H5    H     H_    0.894522 0.580719 0.292119 0.234081
H6    H     H_    0.806282 0.741240 0.524505 0.335676
H7    H     H_    0.310521 0.913080 0.775468 0.327239
H8    H     H_    0.403768 0.114230 0.815485 0.148293
H9    H     H_    0.672722 0.087870 0.793331 0.341088
H10   H     H_    0.380141 0.346284 0.130749 0.115155
H11   H     H_    0.659506 0.802001 0.093712 0.329558
H12   H     H_    0.114247 0.698852 0.544543 0.183815
H13   H     H_    0.794235 0.261974 0.549326 0.365933
H14   H     H_    0.945200 0.442157 0.775338 0.299376
H15   H     H_    0.078870 0.681589 0.310161 0.361084
H16   H     H_    0.110396 0.421053 0.288527 0.169068
H17   H     H_    0.934423 0.322146 0.284963 0.359809
H18   H     H_    0.507136 0.112304 0.270801 0.159837
H19   H     H_    0.506645 0.887747 0.270967 0.163837
H20   H     H_    0.576232 0.887051 0.824935 0.148988
H21   H     H_    0.104408 0.298913 0.504576 0.132818
H22   H     H_    0.379530 0.346792 0.870157 0.114271
H23   H     H_    0.749569 0.549391 0.873168 0.163623
H24   H     H_    0.709318 0.716532 0.869118 0.122598
N1    N     N_R   0.500800 0.500930 0.147930 -0.243496
N2    N     N_R   0.500800 0.500890 0.852020 -0.225204
O1    O     O_R   0.500000 0.319640 0.618810 -0.484103
O2    O     O_3   0.381048 0.875707 0.826766 -0.684695
O3    O     O_3   0.598125 0.125363 0.837163 -0.672221
O4    O     O_3   0.716786 0.741166 0.136141 -0.676114
O5    O     O_3   0.882800 0.270640 0.521521 -0.662999
O6    O     O_3   0.892386 0.382781 0.723355 -0.663705
O7    O     O_3   0.116602 0.606623 0.269415 -0.670121
O8    O     O_3   0.884134 0.396157 0.265097 -0.696084
O9    O     O_R   0.500010 0.319680 0.381230 -0.519774
O10   O     O_R   0.317690 0.499960 0.618790 -0.518979
O11   O     O_R   0.317700 0.500000 0.381210 -0.464606
O12   O     O_R   0.499990 0.680320 0.618770 -0.488663
O13   O     O_R   0.500000 0.680360 0.381190 -0.487346
O14   O     O_R   0.682300 0.500000 0.618790 -0.502834
O15   O     O_R   0.682310 0.500040 0.381210 -0.463414
O16   O     O_3   0.893298 0.722405 0.497637 -0.710464

loop_
_geom_bond_atom_site_label_1
_geom_bond_atom_site_label_2
_ccdc_geom_bond_type
C2    C22   A    
Cu2   N1    S    
Cu2   O9    S    
C18   O7    S    
C15   H1    S    
C9    N2    A    
C18   H16   S    
C11   O4    S    
C9    C10   S    
H6    O16   S    
Cu2   O15   S    
C5    O3    S    
C3    H20   S    
C23   C24   A    
C25   C26   A    
C24   H18   S    
C12   C20   S    
C6    C9    A    
C2    C3    S    
C1    O1    A    
Cu1   N2    S    
C10   H24   S    
C7    C8    A    
C2    C26   A    
Cu1   O12   S    
C15   C19   S    
H11   O4    S    
C3    O2    S    
C20   O16   S    
C21   O8    S    
C12   C21   S    
C5    C22   S    
C10   H23   S    
C1    O9    A    
C17   C19   S    
C7    H10   S    
C12   C14   S    
C1    C23   S    
C13   O12   A    
C15   H21   S    
C16   O6    S    
C4    O11   A    
C17   H3    S    
C14   O15   A    
Cu1   O1    S    
C13   C26   S    
C21   H5    S    
C10   C11   S    
C7    N1    A    
C6    N1    A    
H14   O6    S    
C15   C16   S    
C18   C21   S    
C5    H8    S    
C8    H22   S    
H17   O8    S    
Cu1   Cu2   S    
Cu2   O13   S    
C24   C25   A    
H15   O7    S    
C13   O13   A    
C18   C19   S    
C20   H4    S    
H13   O5    S    
C8    N2    A    
C6    C11   S    
Cu1   O10   S    
C4    O10   A    
C22   C23   A    
C14   O14   A    
Cu1   O14   S    
H7    O2    S    
C4    C19   S    
Cu2   O11   S    
C17   C20   S    
C16   O5    S    
H9    O3    S    
C25   H19   S    
C12   C16   S    
C11   H2    S    
C3    C5    S    
C17   H12   S    
