data_mof_unit_63266.cif
_audit_creation_date              2012-10-26T20:18:38-0400
_audit_creation_method            fapswitch 2.2
_symmetry_space_group_name_H-M    P1
_symmetry_Int_Tables_number       1
_space_group_crystal_system       triclinic
_cell_length_a                    10.816274
_cell_length_b                    11.054651
_cell_length_c                    9.84089
_cell_angle_alpha                 111.408672
_cell_angle_beta                  98.044324
_cell_angle_gamma                 91.20426
_cell_volume                      1081.38451624

loop_
_atom_site_label
_atom_site_type_symbol
_atom_type_description
_atom_site_fract_x
_atom_site_fract_y
_atom_site_fract_z
_atom_type_partial_charge
C1    C     C_R   0.492420 0.254292 0.440462 0.585596
C2    C     C_2   0.491145 0.490281 0.920011 0.125945
C3    C     C_R   0.260155 0.504135 0.501812 0.612466
C4    C     C_R   0.512822 0.745955 0.559117 0.597797
C5    C     C_R   0.739228 0.496787 0.496573 0.606621
C6    C     C_3   0.074946 0.390008 0.552055 0.130556
C7    C     C_3   0.927902 0.379882 0.530357 -0.054176
C8    C     C_3   0.083668 0.642084 0.604755 0.109462
C9    C     C_3   0.050920 0.469409 0.332017 0.162625
C10   C     C_3   0.121962 0.503466 0.499958 0.023182
C11   C     C_3   0.875867 0.495549 0.490434 -0.031174
C12   C     C_3   0.941299 0.626099 0.613671 -0.067401
C13   C     C_3   0.908944 0.486400 0.335716 -0.012376
C14   C     C_2   0.497475 0.115645 0.406524 -0.070084
C15   C     C_2   0.519915 0.070472 0.515675 -0.104313
C16   C     C_2   0.519528 0.885509 0.590346 -0.023645
C17   C     C_2   0.534836 0.932416 0.485083 0.087511
C18   C     C_2   0.503726 0.516454 0.083134 0.089796
Cu1   Cu    Cu3+1 0.522160 0.521810 0.644910 1.026108
Cu2   Cu    Cu3+1 0.477840 0.478190 0.355090 1.113241
H1    H     H_    0.889804 0.581804 0.327851 0.160019
H2    H     H_    0.872940 0.758188 0.519189 0.265208
H3    H     H_    0.646824 0.893932 0.327023 0.257500
H4    H     H_    0.493470 0.840489 0.261589 0.250236
H5    H     H_    0.619230 0.739174 0.945903 0.265177
H6    H     H_    0.729568 0.631594 0.920462 0.274840
H7    H     H_    0.064511 0.320920 0.128557 0.296559
H8    H     H_    0.006472 0.267535 0.245580 0.284242
H9    H     H_    0.525964 0.135895 0.630443 0.158883
H10   H     H_    0.504134 0.950587 0.699055 0.105703
H11   H     H_    0.487244 0.051662 0.291157 0.134262
H12   H     H_    0.422430 0.414981 0.844269 0.168114
H13   H     H_    0.564191 0.599459 0.159969 0.174045
H14   H     H_    0.898263 0.390670 0.637517 0.168363
H15   H     H_    0.935662 0.616846 0.721617 0.191884
H16   H     H_    0.914070 0.822414 0.706001 0.286892
I1    I     I_    0.135587 0.409350 0.778187 -0.246811
I2    I     I_    0.138295 0.809450 0.553509 -0.247890
I3    I     I_    0.161369 0.205753 0.460977 -0.195381
I4    I     I_    0.355376 0.262880 0.003421 -0.158089
I5    I     I_    0.829409 0.190789 0.398754 -0.301253
I6    I     I_    0.185307 0.731180 0.829210 -0.229243
I7    I     I_    0.107592 0.583311 0.203595 -0.202442
I8    I     I_    0.793142 0.359378 0.126797 -0.299781
N1    N     N_2   0.444530 0.445420 0.137360 -0.151225
N2    N     N_2   0.555520 0.554510 0.862630 -0.183799
N3    N     N_3   0.872659 0.740260 0.616112 -0.616586
N4    N     N_3   0.567834 0.849982 0.345872 -0.598420
N5    N     N_3   0.643904 0.652425 0.958044 -0.537308
N6    N     N_3   0.072600 0.334686 0.240335 -0.534870
O1    O     O_R   0.511820 0.332340 0.577400 -0.511124
O2    O     O_R   0.474400 0.295500 0.332650 -0.454832
O3    O     O_R   0.336400 0.518400 0.622370 -0.478396
O4    O     O_R   0.298980 0.481560 0.377620 -0.441189
O5    O     O_R   0.525600 0.704500 0.667350 -0.499671
O6    O     O_R   0.488180 0.667660 0.422600 -0.475482
O7    O     O_R   0.701020 0.518440 0.622380 -0.504249
O8    O     O_R   0.663600 0.481600 0.377630 -0.481624

loop_
_geom_bond_atom_site_label_1
_geom_bond_atom_site_label_2
_ccdc_geom_bond_type
C6    C10   S    
C11   C12   S    
C17   N4    S    
C4    C16   S    
C6    C7    S    
C1    C14   S    
C15   H9    S    
C2    C18   S    
C1    O1    A    
C9    C10   S    
Cu1   Cu2   S    
H7    N6    S    
C5    O7    A    
C14   H11   S    
C8    C12   S    
Cu1   O3    S    
H2    N3    S    
Cu1   N2    S    
C13   H1    S    
Cu2   O2    S    
C3    C10   S    
C2    N2    D    
C12   H15   S    
C7    C11   S    
C11   C13   S    
N2    N5    S    
C3    O3    A    
C8    I2    S    
C5    O8    A    
C12   N3    S    
C2    H12   S    
C8    C10   S    
C3    O4    A    
C8    I6    S    
C5    C11   S    
Cu2   O6    S    
C7    I5    S    
C4    O5    A    
I4    N1    S    
C1    O2    A    
H5    N5    S    
C6    I1    S    
C9    I7    S    
C18   H13   S    
C16   H10   S    
Cu2   O8    S    
H4    N4    S    
C18   N1    D    
Cu1   O1    S    
C4    O6    A    
C7    H14   S    
H16   N3    S    
Cu2   O4    S    
H6    N5    S    
Cu1   O5    S    
C15   C17   S    
C9    C13   S    
C14   C15   D    
H3    N4    S    
C6    I3    S    
H8    N6    S    
C13   I8    S    
Cu1   O7    S    
C9    N6    S    
Cu2   N1    S    
C16   C17   D    
