data_mof_unit_52663.cif
_audit_creation_date              2013-03-05T15:58:45-0500
_audit_creation_method            fapswitch 2.2
_symmetry_space_group_name_H-M    P1
_symmetry_Int_Tables_number       1
_space_group_crystal_system       triclinic
_cell_length_a                    12.532311
_cell_length_b                    13.045282
_cell_length_c                    13.60014
_cell_angle_alpha                 93.019987
_cell_angle_beta                  94.758469
_cell_angle_gamma                 96.182174
_cell_volume                      2198.63928615

loop_
_atom_site_label
_atom_site_type_symbol
_atom_site_description
_atom_site_fract_x
_atom_site_fract_y
_atom_site_fract_z
_atom_type_partial_charge
O1    O     O_R   0.631100 0.627590 0.523760 -0.613298
O2    O     O_R   0.455900 0.662370 0.491970 -0.609415
C1    C     C_R   0.559259 0.692771 0.514194 0.878968
O3    O     O_R   0.600200 0.480080 0.377830 -0.570163
O4    O     O_R   0.425000 0.514870 0.346040 -0.624535
C2    C     C_R   0.518220 0.495747 0.318096 0.893502
Zn1   Zn    Zn3+2 0.616980 0.476780 0.521230 0.979569
Zn2   Zn    Zn3+2 0.383020 0.523220 0.478770 0.942360
O5    O     O_R   0.544100 0.337630 0.508030 -0.612438
O6    O     O_R   0.368900 0.372410 0.476240 -0.588843
O7    O     O_R   0.575000 0.485130 0.653960 -0.587951
O8    O     O_R   0.399800 0.519920 0.622170 -0.621985
C3    C     C_R   0.440291 0.308039 0.490971 0.879918
C4    C     C_R   0.481640 0.503449 0.681839 0.885413
C5    C     C_1   0.465986 0.499713 0.782376 -0.158289
C6    C     C_2   0.448493 0.484547 0.970325 0.053538
C7    C     C_2   0.536651 0.463013 0.025982 0.294166
C8    C     C_1   0.536476 0.474243 0.130273 0.002473
C9    C     C_1   0.454634 0.493538 0.867660 0.105342
C10   C     C_1   0.529754 0.485046 0.216616 -0.128247
C11   C     C_R   0.268831 0.045153 0.477749 0.248673
C12   C     C_R   0.402441 0.198820 0.500262 -0.096343
C13   C     C_R   0.700717 0.848468 0.512726 0.161316
C14   C     C_R   0.723928 0.957278 0.513267 0.225770
C15   C     C_R   0.641828 0.019574 0.526177 -0.168077
C16   C     C_R   0.539117 0.977622 0.547835 0.024454
C17   C     C_R   0.518296 0.871986 0.559025 -0.018093
C18   C     C_R   0.452119 0.037012 0.547476 -0.018744
C19   C     C_R   0.345618 0.988702 0.529761 0.000030
C20   C     C_R   0.326603 0.888971 0.567698 0.178540
C21   C     C_R   0.418374 0.837737 0.595091 0.207421
C22   C     C_R   0.467704 0.143199 0.560423 0.051527
C23   C     C_R   0.304885 0.147270 0.451228 0.169241
C24   C     C_R   0.595078 0.805166 0.532341 -0.169085
H1    H     H_    0.657191 0.100709 0.513188 0.160878
C25   C     C_R   0.893418 0.334970 0.621202 0.239086
H2    H     H_    0.729448 0.340111 0.654343 0.177528
N1    N     N_R   0.773270 0.445590 0.549770 -0.136509
C26   C     C_R   0.212944 0.619918 0.378473 -0.041862
C27   C     C_R   0.109938 0.630046 0.335180 0.016618
C28   C     C_R   0.020400 0.570350 0.367922 0.314595
C29   C     C_R   0.036185 0.509862 0.451181 -0.155369
C30   C     C_R   0.142931 0.502285 0.490713 0.089270
C31   C     C_R   0.951702 0.459022 0.500682 -0.042019
C32   C     C_R   0.974624 0.379058 0.564611 -0.123023
C33   C     C_R   0.082298 0.357380 0.578351 0.263910
C34   C     C_R   0.159968 0.440746 0.571279 0.168359
C35   C     C_R   0.848691 0.491193 0.496485 0.039184
C36   C     C_R   0.792349 0.369834 0.610654 -0.067387
N2    N     N_R   0.227520 0.553880 0.450750 -0.127687
H3    H     H_    0.827193 0.554777 0.454615 0.166901
H4    H     H_    0.283102 0.660052 0.350373 0.164117
N3    N     N_R   0.632420 0.433806 0.984708 0.213403
O9    O     O_R   0.724755 0.449424 0.037626 -0.296997
O10   O     O_R   0.625807 0.378062 0.901717 -0.378517
C37   C     C_3   0.416507 0.763449 0.676189 -0.850225
H5    H     H_    0.386949 0.799920 0.742815 0.241517
H6    H     H_    0.362446 0.693776 0.651111 0.258912
H7    H     H_    0.497763 0.741339 0.698397 0.221690
N4    N     N_R   0.113071 0.261019 0.611692 0.247435
O11   O     O_R   0.053277 0.175216 0.582849 -0.397331
O12   O     O_R   0.209733 0.256216 0.653001 -0.379554
N5    N     N_R   0.914746 0.267408 0.698631 0.248885
O13   O     O_R   0.845227 0.188350 0.710138 -0.372475
O14   O     O_R   0.990146 0.296629 0.769238 -0.323558
N6    N     N_R   0.919153 0.559642 0.308194 0.198310
O15   O     O_R   0.872324 0.468166 0.278104 -0.338813
O16   O     O_R   0.874111 0.640629 0.282379 -0.414309
C38   C     C_3   0.098225 0.698368 0.249932 -0.779830
H8    H     H_    0.177543 0.735137 0.231298 0.209302
H9    H     H_    0.058928 0.652185 0.183228 0.283196
H10   H     H_    0.049135 0.761104 0.269536 0.260553
C39   C     C_3   0.192724 0.497208 0.670706 -0.774021
H11   H     H_    0.228616 0.577097 0.663359 0.219794
H12   H     H_    0.120930 0.504842 0.712375 0.224684
H13   H     H_    0.247893 0.453856 0.716007 0.272251
C40   C     C_3   0.347769 0.513250 0.013854 -0.875937
H14   H     H_    0.282253 0.519244 0.954829 0.262472
H15   H     H_    0.318365 0.453301 0.063284 0.256961
H16   H     H_    0.365282 0.588934 0.056659 0.241611
C41   C     C_3   0.242466 0.197873 0.370510 -0.826591
H17   H     H_    0.292006 0.261227 0.338808 0.236708
H18   H     H_    0.217304 0.141511 0.306624 0.232620
H19   H     H_    0.170670 0.227742 0.399312 0.266516
C42   C     C_3   0.215610 0.844126 0.591148 -0.873597
H20   H     H_    0.216232 0.776873 0.637200 0.236873
H21   H     H_    0.177428 0.902966 0.633694 0.264656
H22   H     H_    0.165245 0.815497 0.522432 0.236552
C43   C     C_3   0.156640 0.995173 0.441020 -0.835713
H23   H     H_    0.107721 0.980200 0.503833 0.265792
H24   H     H_    0.109069 0.044022 0.394654 0.253091
H25   H     H_    0.162125 0.922939 0.395732 0.220538
C44   C     C_3   0.534401 0.190969 0.652959 -0.693007
H26   H     H_    0.515139 0.269948 0.673218 0.239101
H27   H     H_    0.515930 0.144136 0.716618 0.250321
H28   H     H_    0.621409 0.192787 0.644965 0.236061
C45   C     C_3   0.786101 0.779592 0.487462 -0.819381
H29   H     H_    0.862877 0.821499 0.469702 0.236285
H30   H     H_    0.806523 0.733568 0.551340 0.246534
H31   H     H_    0.755997 0.727957 0.421277 0.267407
C46   C     C_3   0.833447 0.009210 0.494519 -0.779684
H32   H     H_    0.852985 0.986243 0.418894 0.228883
H33   H     H_    0.836878 0.094806 0.500398 0.258858
H34   H     H_    0.895660 0.987434 0.550122 0.268469

loop_
_geom_bond_atom_site_label_1
_geom_bond_atom_site_label_2
_geom_bond_distance
_ccdc_geom_bond_type
N6    O16   1.301055 A    
N5    O14   1.301397 A    
C44   H26   1.109244 S    
C7    N3    1.445161 S    
C28   C29   1.426391 A    
C41   H19   1.110291 S    
C45   H29   1.105528 S    
N1    C36   1.350459 A    
C11   C43   1.517629 S    
C40   H14   1.111646 S    
C5    C9    1.186080 T    
C16   C17   1.393383 A    
C46   H32   1.110254 S    
C12   C22   1.394362 A    
C18   C19   1.409304 A    
C6    C40   1.512126 S    
C20   C21   1.424400 A    
O7    C4    1.301571 A    
C42   H22   1.107189 S    
C11   C23   1.434186 A    
C37   H5    1.110346 S    
N4    O12   1.301599 A    
C14   C46   1.511226 S    
C39   H11   1.102674 S    
C38   H9    1.110356 S    
O5    C3    1.314407 A    
C41   H18   1.110059 S    
C35   H3    1.075778 S    
C6    C7    1.350196 D    
C13   C14   1.417433 A    
C21   C37   1.506072 S    
C43   H24   1.104970 S    
C25   N5    1.434911 S    
N1    C35   1.345531 A    
N3    O10   1.301771 A    
C22   C44   1.517062 S    
C46   H33   1.111198 S    
C39   H12   1.112912 S    
C29   C31   1.424127 A    
O3    Zn1   1.947393 S    
C45   H30   1.109893 S    
C41   H17   1.107186 S    
C42   H21   1.109593 S    
C17   C24   1.422228 A    
C27   C38   1.506293 S    
C17   C21   1.418748 A    
C18   C22   1.377817 A    
N6    O15   1.301449 A    
C14   C15   1.394607 A    
C34   C39   1.509103 S    
O3    C2    1.296742 A    
C26   C27   1.396206 A    
C1    C24   1.487946 S    
C15   C16   1.404042 A    
C42   H20   1.104820 S    
C11   C19   1.436428 A    
N4    O11   1.301007 A    
C43   H25   1.109890 S    
C38   H10   1.109966 S    
Zn1   O7    1.922601 S    
C19   C20   1.428288 A    
H2    C36   1.077474 S    
Zn2   O8    1.947395 S    
C13   C24   1.434013 A    
C7    C8    1.418426 S    
C40   H15   1.110746 S    
C25   C32   1.417523 A    
C20   C42   1.515524 S    
C15   H1    1.081671 S    
Zn2   O6    1.954449 S    
C27   C28   1.412484 A    
C13   C45   1.518529 S    
O8    C4    1.297850 A    
C46   H34   1.110400 S    
C39   H13   1.108019 S    
C29   C30   1.415342 A    
Zn2   N2    2.040500 S    
C45   H31   1.109649 S    
C31   C32   1.430140 A    
C40   H16   1.110600 S    
Zn1   O5    1.934669 S    
C12   C23   1.425509 A    
C33   C34   1.392123 A    
C33   N4    1.438743 S    
O1    Zn1   1.954451 S    
O2    Zn2   1.934669 S    
O6    C3    1.302147 A    
O4    Zn2   1.922601 S    
C30   N2    1.361140 A    
N3    O9    1.301582 A    
C28   N6    1.438130 S    
C44   H28   1.102610 S    
C2    C10   1.400816 S    
C16   C18   1.403723 A    
C37   H7    1.110326 S    
O2    C1    1.318437 A    
O4    C2    1.303057 A    
C23   C41   1.515895 S    
C6    C9    1.415049 S    
Zn1   N1    2.052992 S    
C37   H6    1.094442 S    
C3    C12   1.467774 S    
C26   H4    1.082090 S    
C8    C10   1.186355 T    
C38   H8    1.111004 S    
N5    O13   1.301269 A    
C32   C33   1.407737 A    
C26   N2    1.354656 A    
C44   H27   1.111277 S    
C4    C5    1.399950 S    
O1    C1    1.306770 A    
C43   H23   1.105648 S    
C30   C34   1.407628 A    
C25   C36   1.390178 A    
C31   C35   1.397486 A    
