data_mof_unit_29020.cif
_audit_creation_date              2012-12-10T17:23:43-0500
_audit_creation_method            fapswitch 2.2
_symmetry_space_group_name_H-M    P1
_symmetry_Int_Tables_number       1
_space_group_crystal_system       triclinic
_cell_length_a                    9.605044
_cell_length_b                    10.918241
_cell_length_c                    17.290901
_cell_angle_alpha                 93.597355
_cell_angle_beta                  86.649427
_cell_angle_gamma                 89.939506
_cell_volume                      1806.61329757

loop_
_atom_site_label
_atom_site_type_symbol
_atom_type_description
_atom_site_fract_x
_atom_site_fract_y
_atom_site_fract_z
_atom_type_partial_charge
C1    C     C_R   0.498840 0.736912 0.509947 0.848577
C2    C     C_R   0.346004 0.519581 0.777146 -0.212367
C3    C     C_R   0.406032 0.485666 0.145370 -0.074680
C4    C     C_R   0.401026 0.487172 0.225703 -0.235108
C5    C     C_R   0.653805 0.496829 0.222790 -0.197469
C6    C     C_R   0.658525 0.495775 0.142077 -0.184491
C7    C     C_R   0.534528 0.493539 0.103395 0.214729
C8    C     C_2   0.457763 0.569882 0.981678 0.453728
C9    C     C_2   0.540805 0.496696 0.018831 -0.337469
C10   C     C_R   0.524677 0.494350 0.265168 -0.030767
C11   C     C_R   0.242652 0.890006 0.559562 0.547476
C12   C     C_R   0.482526 0.503375 0.649946 0.775928
C13   C     C_R   0.119253 0.938087 0.534974 -0.215285
C14   C     C_R   0.125155 0.037898 0.488677 -0.239079
C15   C     C_R   0.251593 0.097876 0.475594 -0.142272
C16   C     C_R   0.375094 0.056536 0.505300 0.004905
C17   C     C_R   0.372067 0.937986 0.531894 -0.008907
C18   C     C_R   0.497130 0.870791 0.525584 -0.148081
C19   C     C_R   0.622724 0.934275 0.526835 -0.245182
C20   C     C_R   0.624925 0.062354 0.527220 0.087430
C21   C     C_R   0.501402 0.125468 0.508223 -0.124021
C22   C     C_R   0.867005 0.346907 0.389733 -0.172904
C23   C     C_R   0.500406 0.261113 0.500905 0.756497
C24   C     C_R   0.944318 0.278886 0.331872 -0.216878
C25   C     C_R   0.087788 0.283890 0.329094 -0.226939
C26   C     C_R   0.154261 0.355252 0.385007 -0.181891
C27   C     C_R   0.080135 0.429470 0.443263 0.215093
C28   C     C_R   0.930722 0.427151 0.444497 0.210373
C29   C     C_R   0.920106 0.565393 0.554836 -0.100478
C30   C     C_R   0.067538 0.562418 0.555988 -0.048358
C31   C     C_R   0.517486 0.498324 0.350045 0.779731
C32   C     C_R   0.475254 0.517630 0.734744 -0.022600
C33   C     C_R   0.598364 0.536203 0.773765 -0.182440
C34   C     C_R   0.592433 0.556402 0.853874 -0.222261
C35   C     C_R   0.463549 0.557065 0.896199 0.078327
C36   C     C_R   0.340346 0.539027 0.857610 -0.173533
Cu1   Cu    Cu3+1 0.359340 0.500010 0.500010 0.961570
Cu2   Cu    Cu3+1 0.640660 0.499990 0.499990 0.926588
H1    H     H_    0.699410 0.536466 0.742483 0.148373
H2    H     H_    0.758524 0.499369 0.109904 0.132560
H3    H     H_    0.719156 0.883799 0.530331 0.158859
H4    H     H_    0.020084 0.896726 0.550737 0.139694
H5    H     H_    0.032180 0.071006 0.464272 0.163383
H6    H     H_    0.253964 0.169930 0.437533 0.162643
H7    H     H_    0.860212 0.618753 0.600010 0.137169
H8    H     H_    0.758134 0.329727 0.390551 0.196365
H9    H     H_    0.892460 0.219087 0.290383 0.152180
H10   H     H_    0.300076 0.482959 0.256692 0.166852
H11   H     H_    0.148405 0.227413 0.285679 0.151422
H12   H     H_    0.263406 0.340792 0.383606 0.186140
H13   H     H_    0.116230 0.608840 0.603891 0.196234
H14   H     H_    0.750721 0.500711 0.251858 0.165735
H15   H     H_    0.618917 0.438962 0.986271 0.115293
H16   H     H_    0.240277 0.538434 0.889915 0.147045
H17   H     H_    0.309492 0.478097 0.116087 0.159881
H18   H     H_    0.249577 0.506331 0.748280 0.150932
H19   H     H_    0.688437 0.571377 0.882928 0.125391
N1    N     N_R   0.852190 0.498790 0.499250 -0.198534
N2    N     N_R   0.148060 0.498710 0.499220 -0.199714
O1    O     O_R   0.381190 0.680360 0.500010 -0.530766
O2    O     O_R   0.618760 0.680340 0.500000 -0.586953
O3    O     O_R   0.367440 0.500030 0.613600 -0.571924
O4    O     O_R   0.605010 0.500010 0.613590 -0.596837
O5    O     O_R   0.381240 0.319660 0.500000 -0.596407
O6    O     O_R   0.618810 0.319640 0.499990 -0.600216
O7    O     O_R   0.394990 0.499990 0.386410 -0.602451
O8    O     O_R   0.632560 0.499970 0.386400 -0.595981
O9    O     O_3   0.234301 0.798133 0.611026 -0.600154
C37   C     C_3   0.284768 0.841935 0.682573 -0.386863
H20   H     H_    0.260550 0.773153 0.725912 0.193954
H21   H     H_    0.233132 0.929677 0.704746 0.162446
H22   H     H_    0.399897 0.852939 0.678090 0.167927
C38   C     C_3   0.759641 0.123542 0.550420 -0.374417
C39   C     C_3   0.742367 0.190042 0.631379 -0.305625
C40   C     C_3   0.877292 0.253502 0.653253 -0.827513
H23   H     H_    0.962270 0.184881 0.655354 0.250022
H24   H     H_    0.908848 0.320912 0.610219 0.264144
H25   H     H_    0.861285 0.302706 0.711278 0.230139
H26   H     H_    0.657445 0.259249 0.634262 0.235715
H27   H     H_    0.714067 0.122197 0.674942 0.200516
H28   H     H_    0.841976 0.053300 0.553974 0.173457
H29   H     H_    0.801988 0.183559 0.505602 0.216361
O10   O     O_3   0.359573 0.645274 0.023692 -0.581657
C41   C     C_3   0.361201 0.763551 0.995109 -0.316874
H30   H     H_    0.308438 0.764072 0.939661 0.160535
H31   H     H_    0.469174 0.800046 0.987920 0.156382
H32   H     H_    0.302185 0.826768 0.037864 0.187644

loop_
_geom_bond_atom_site_label_1
_geom_bond_atom_site_label_2
_ccdc_geom_bond_type
C8    C9    D    
C31   O7    A    
C30   H13   S    
C16   C21   A    
C8    O10   S    
C38   C39   S    
C35   C36   A    
C41   H32   S    
Cu1   O3    S    
C31   O8    A    
C26   C27   A    
C29   C30   A    
C41   H31   S    
C15   H6    S    
C18   C19   A    
C3    C7    A    
C26   H12   S    
C5    C6    A    
C15   C16   A    
C2    C32   A    
C34   C35   A    
C37   H21   S    
Cu2   N1    S    
C3    H17   S    
C10   C31   S    
C19   C20   A    
O9    C37   S    
C34   H19   S    
C5    H14   S    
Cu2   O2    S    
C22   C28   A    
C13   C14   A    
Cu1   O7    S    
C38   H28   S    
C13   H4    S    
C33   C34   A    
C39   C40   S    
C24   C25   A    
C1    O1    A    
C12   O4    A    
C16   C17   A    
C25   C26   A    
C29   H7    S    
C8    C35   S    
C37   H22   S    
C40   H23   S    
Cu1   Cu2   S    
C12   O3    A    
O10   C41   S    
Cu2   O6    S    
C30   N2    A    
C20   C21   A    
C17   C18   A    
C1    C18   S    
C33   H1    S    
C41   H30   S    
C40   H24   S    
Cu1   N2    S    
C2    H18   S    
C23   O5    A    
C22   H8    S    
C39   H26   S    
C21   C23   S    
C6    H2    S    
C9    H15   S    
C4    C10   A    
C3    C4    A    
Cu2   O8    S    
C38   H29   S    
Cu1   O5    S    
C11   O9    S    
Cu2   O4    S    
C4    H10   S    
C2    C36   A    
C7    C9    S    
C11   C17   A    
C24   H9    S    
C1    O2    A    
C6    C7    A    
C28   N1    A    
C32   C33   A    
C23   O6    A    
C5    C10   A    
C27   N2    A    
C11   C13   A    
C20   C38   S    
C22   C24   A    
C37   H20   S    
C40   H25   S    
C25   H11   S    
Cu1   O1    S    
C36   H16   S    
C29   N1    A    
C27   C28   A    
C14   C15   A    
C39   H27   S    
C12   C32   S    
C19   H3    S    
C14   H5    S    
