data_mof_unit_42911.cif
_audit_creation_date              2012-12-11T17:11:39-0500
_audit_creation_method            fapswitch 2.2
_symmetry_space_group_name_H-M    P1
_symmetry_Int_Tables_number       1
_space_group_crystal_system       triclinic
_cell_length_a                    15.000867
_cell_length_b                    6.945009
_cell_length_c                    13.626659
_cell_angle_alpha                 89.712381
_cell_angle_beta                  100.863841
_cell_angle_gamma                 90.368802
_cell_volume                      1394.15872018

loop_
_atom_site_label
_atom_site_type_symbol
_atom_type_description
_atom_site_fract_x
_atom_site_fract_y
_atom_site_fract_z
_atom_type_partial_charge
O1    O     O_R   0.398250 0.605080 0.401520 -0.549972
O2    O     O_R   0.898250 0.394920 0.901520 -0.544261
O3    O     O_R   0.584130 0.932110 0.405450 -0.522151
O4    O     O_R   0.084130 0.067890 0.905450 -0.493710
O5    O     O_R   0.601750 0.105090 0.598480 -0.524237
O6    O     O_R   0.101750 0.894910 0.098480 -0.539770
C1    C     C_R   0.612798 0.764775 0.384635 0.811118
C2    C     C_R   0.110015 0.237274 0.881189 0.791735
O7    O     O_R   0.397870 0.934620 0.389680 -0.550054
O8    O     O_R   0.897870 0.065380 0.889680 -0.536900
O9    O     O_R   0.414160 0.107620 0.582600 -0.552701
O10   O     O_R   0.914160 0.892380 0.082600 -0.556879
C3    C     C_R   0.363975 0.765638 0.362698 0.696479
C4    C     C_R   0.864050 0.234170 0.862603 0.720267
O11   O     O_R   0.585840 0.602550 0.417400 -0.523406
O12   O     O_R   0.085840 0.397450 0.917400 -0.525013
O13   O     O_3   0.505560 0.772440 0.563310 -0.369548
O14   O     O_3   0.005560 0.227560 0.063310 -0.375181
V1    V     V_3+5 0.498970 0.046250 0.488250 1.587866
V2    V     V_3+5 0.998970 0.953750 0.988250 1.633409
O15   O     O_R   0.415870 0.437500 0.594550 -0.525112
O16   O     O_R   0.915870 0.562500 0.094550 -0.512829
C5    C     C_R   0.389294 0.267803 0.617228 0.659439
C6    C     C_R   0.892570 0.730167 0.121396 0.627169
O17   O     O_R   0.602130 0.434980 0.610320 -0.534191
O18   O     O_R   0.102130 0.565020 0.110320 -0.543369
C7    C     C_R   0.636028 0.266037 0.637218 0.835703
C8    C     C_R   0.135948 0.734170 0.137333 0.740295
V3    V     V_3+5 0.501030 0.546580 0.511750 1.601022
V4    V     V_3+5 0.001030 0.453420 0.011750 1.604469
O19   O     O_3   0.494440 0.270520 0.436690 -0.375653
O20   O     O_3   0.994440 0.729480 0.936690 -0.339903
C9    C     C_1   0.716415 0.255339 0.716762 -0.098553
C10   C     C_1   0.216278 0.744890 0.216939 -0.160953
C11   C     C_1   0.783718 0.244851 0.782954 -0.123205
C12   C     C_1   0.283593 0.754899 0.283143 -0.157910
C13   C     C_2   0.256133 0.155021 0.678571 -0.331633
C14   C     C_2   0.795178 0.881086 0.227833 -0.329065
C15   C     C_2   0.335262 0.254272 0.696453 0.318450
C16   C     C_2   0.842983 0.727923 0.206279 0.169575
H1    H     H_    0.234449 0.091982 0.605011 0.105163
H2    H     H_    0.795597 0.012678 0.184661 0.188082
C17   C     C_2   0.198683 0.110195 0.753336 0.491720
C18   C     C_2   0.743555 0.883164 0.311022 0.485702
C19   C     C_2   0.169961 0.254446 0.806501 -0.294708
C20   C     C_2   0.672910 0.760214 0.310495 -0.299876
H3    H     H_    0.189925 0.400336 0.791376 0.217436
H4    H     H_    0.656397 0.655933 0.250611 0.141856
S1    S     S_3+6 0.387467 0.340258 0.816062 0.038373
O21   O     O_2   0.351904 0.537030 0.832070 -0.273617
O22   O     O_2   0.368847 0.206040 0.896820 -0.316636
O23   O     O_3   0.500268 0.355790 0.821622 -0.524128
H5    H     H_    0.524758 0.410019 0.888428 0.364366
S2    S     S_3+6 0.853697 0.515554 0.281695 0.072653
O24   O     O_2   0.848725 0.558542 0.388544 -0.273969
O25   O     O_2   0.777860 0.380708 0.238814 -0.303079
O26   O     O_3   0.953124 0.406398 0.279552 -0.462578
H6    H     H_    0.000192 0.501472 0.308458 0.311363
S3    S     S_3+6 0.163420 0.866561 0.757976 0.057360
O27   O     O_2   0.195509 0.787024 0.861280 -0.281280
O28   O     O_2   0.061586 0.853033 0.732421 -0.337098
O29   O     O_3   0.208015 0.733615 0.676425 -0.489600
H7    H     H_    0.167075 0.752707 0.611090 0.328728
S4    S     S_3+6 0.784028 0.035718 0.413999 0.126486
O30   O     O_2   0.724167 0.209429 0.409183 -0.272419
O31   O     O_2   0.783049 0.930524 0.510503 -0.333387
O32   O     O_3   0.890761 0.107480 0.411236 -0.412994
H8    H     H_    0.926992 0.987747 0.419062 0.345242

loop_
_geom_bond_atom_site_label_1
_geom_bond_atom_site_label_2
_ccdc_geom_bond_type
C13   C17   S    
C14   C16   D    
S4    O32   S    
C14   C18   S    
O29   H7    S    
O5    V1    S    
O17   C7    A    
O13   V3    S    
O10   C6    A    
O3    C1    A    
V2    O20   S    
C17   S3    S    
O4    C2    A    
S1    O23   S    
V1    O19   S    
S4    O30   D    
O10   V2    S    
C1    O11   A    
C8    C10   S    
S3    O27   D    
C2    O12   A    
S4    O31   D    
C6    C16   S    
C18   S4    S    
V4    O20   S    
C17   C19   D    
O5    C7    A    
O9    V1    S    
O26   H6    S    
O15   V3    S    
O6    V2    S    
C13   H1    S    
O14   V4    S    
O16   C6    A    
O1    V3    S    
C9    C11   T    
C10   C12   T    
C18   C20   D    
O11   V3    S    
O14   V2    S    
C19   H3    S    
O15   C5    A    
O17   V3    S    
O2    C4    A    
S2    O25   D    
S3    O28   D    
C7    C9    S    
C20   H4    S    
O2    V4    S    
O12   V4    S    
O32   H8    S    
O3    V1    S    
C1    C20   S    
S2    O26   S    
O1    C3    A    
O23   H5    S    
C3    C12   S    
C13   C15   D    
S1    O21   D    
O8    C4    A    
O9    C5    A    
C4    C11   S    
O7    C3    A    
S2    O24   D    
O13   V1    S    
S3    O29   S    
O16   V4    S    
C15   S1    S    
V3    O19   S    
O18   C8    A    
C5    C15   S    
O7    V1    S    
C14   H2    S    
O6    C8    A    
C2    C19   S    
C16   S2    S    
O8    V2    S    
S1    O22   D    
O18   V4    S    
O4    V2    S    
