data_mof_unit_42143.cif
_audit_creation_date              2012-12-11T14:52:45-0500
_audit_creation_method            fapswitch 2.2
_symmetry_space_group_name_H-M    P1
_symmetry_Int_Tables_number       1
_space_group_crystal_system       triclinic
_cell_length_a                    18.859622
_cell_length_b                    10.915568
_cell_length_c                    18.786164
_cell_angle_alpha                 89.832386
_cell_angle_beta                  91.037096
_cell_angle_gamma                 89.608423
_cell_volume                      3866.6434011

loop_
_atom_site_label
_atom_site_type_symbol
_atom_type_description
_atom_site_fract_x
_atom_site_fract_y
_atom_site_fract_z
_atom_type_partial_charge
C1    C     C_R   0.272060 0.042141 0.853569 0.543658
C2    C     C_R   0.700260 0.527077 0.037628 -0.145652
C3    C     C_3   0.997350 0.329782 0.073043 0.050918
C4    C     C_3   0.090204 0.807967 0.511620 -0.321493
C5    C     C_3   0.925646 0.664098 0.422949 -0.285222
C6    C     C_3   0.586225 0.298562 0.518887 -0.321515
C7    C     C_3   0.422834 0.167943 0.421342 -0.294013
C8    C     C_R   0.807725 0.041515 0.963520 -0.151359
C9    C     C_R   0.200227 0.027127 0.037620 -0.145820
C10   C     C_R   0.301152 0.528362 0.036902 -0.152512
C11   C     C_R   0.704477 0.510577 0.964309 -0.145236
C12   C     C_R   0.801149 0.028371 0.036898 -0.152795
C13   C     C_R   0.204444 0.010643 0.964299 -0.145531
C14   C     C_R   0.237457 0.561417 0.069173 0.031404
C15   C     C_R   0.752609 0.580059 0.924740 0.027657
C16   C     C_R   0.737444 0.061382 0.069163 0.031401
C17   C     C_R   0.725599 0.037600 0.144219 0.546057
C18   C     C_R   0.252622 0.080052 0.924746 0.027307
C19   C     C_R   0.179071 0.598971 0.026938 -0.145554
C20   C     C_R   0.793496 0.669785 0.958315 -0.136644
C21   C     C_R   0.679051 0.098879 0.026921 -0.145277
C22   C     C_R   0.293565 0.169682 0.958342 -0.136147
C23   C     C_R   0.184827 0.608124 0.954254 -0.143300
C24   C     C_R   0.790664 0.683812 0.030930 -0.138079
C25   C     C_R   0.684812 0.108039 0.954236 -0.143370
C26   C     C_R   0.290739 0.183681 0.030957 -0.137825
C27   C     C_R   0.249968 0.585345 0.922287 0.028288
C28   C     C_R   0.772058 0.542143 0.853568 0.538219
C29   C     C_R   0.745004 0.611412 0.071488 0.026505
C30   C     C_R   0.749963 0.085313 0.922277 0.029452
C31   C     C_R   0.245021 0.111367 0.071499 0.026626
C32   C     C_R   0.482314 0.720618 0.532414 -0.139589
C33   C     C_R   0.486482 0.725106 0.459775 -0.143499
C34   C     C_R   0.961224 0.233190 0.527695 -0.131744
C35   C     C_R   0.971109 0.237043 0.455463 -0.154830
C36   C     C_R   0.508350 0.832474 0.426673 0.045212
C37   C     C_R   0.492589 0.826713 0.573390 0.025341
C38   C     C_R   0.008169 0.334150 0.426185 0.013608
C39   C     C_R   0.225605 0.537615 0.144225 0.545399
C40   C     C_R   0.986743 0.327728 0.571696 0.026720
C41   C     C_R   0.523590 0.937103 0.467632 -0.104061
C42   C     C_R   0.512971 0.935625 0.540725 -0.145185
C43   C     C_R   0.033376 0.429983 0.469647 -0.141245
C44   C     C_R   0.021447 0.427912 0.542441 -0.153802
C45   C     C_R   0.438634 0.817284 0.862438 0.564754
C46   C     C_R   0.527332 0.822208 0.145649 0.544544
C47   C     C_R   0.938635 0.317284 0.862438 0.563930
C48   C     C_R   0.027334 0.322208 0.145648 0.546185
C49   C     C_R   0.214156 0.723578 0.517158 0.134467
C50   C     C_3   0.510939 0.732756 0.974096 -0.104320
C51   C     C_R   0.815046 0.569791 0.455438 0.112972
C52   C     C_R   0.696013 0.167205 0.527144 0.149195
C53   C     C_R   0.315273 0.066894 0.455700 0.123774
C54   C     C_R   0.212802 0.700811 0.444650 -0.102308
C55   C     C_R   0.822003 0.554197 0.527869 -0.108111
C56   C     C_R   0.704093 0.172410 0.454348 -0.102001
C57   C     C_R   0.321648 0.054020 0.528283 -0.084904
C58   C     C_R   0.255382 0.608832 0.416451 -0.001693
C59   C     C_R   0.762319 0.564319 0.571012 0.023781
C60   C     C_R   0.751288 0.093011 0.421782 -0.004909
C61   C     C_3   0.459378 0.722453 0.036531 -0.118215
C62   C     C_R   0.262212 0.067950 0.571417 0.000637
C63   C     C_R   0.310519 0.556892 0.457078 -0.150522
C64   C     C_R   0.694572 0.578598 0.542195 -0.154817
C65   C     C_R   0.802326 0.028115 0.462004 -0.153253
C66   C     C_R   0.195030 0.088190 0.542566 -0.170809
C67   C     C_R   0.317956 0.588181 0.528116 -0.162090
C68   C     C_R   0.686966 0.591127 0.469559 -0.178902
C69   C     C_R   0.802062 0.035923 0.535377 -0.177578
C70   C     C_R   0.187426 0.096422 0.469750 -0.152340
C71   C     C_R   0.268780 0.667768 0.559559 0.037479
C72   C     C_3   0.010955 0.232774 0.974092 -0.103981
C73   C     C_R   0.747353 0.590051 0.426576 0.055757
C74   C     C_R   0.749161 0.104434 0.568553 0.031487
C75   C     C_R   0.247580 0.089245 0.426442 0.037274
C76   C     C_R   0.260590 0.634714 0.851310 0.549475
C77   C     C_R   0.738090 0.641442 0.146438 0.546489
C78   C     C_R   0.760588 0.134704 0.851307 0.537509
C79   C     C_R   0.238095 0.141423 0.146444 0.543322
C80   C     C_R   0.272427 0.044238 0.645262 0.537692
C81   C     C_R   0.730112 0.048832 0.352561 0.548752
C82   C     C_R   0.772786 0.542859 0.644873 0.547884
C83   C     C_3   0.959395 0.222440 0.036526 -0.118319
C84   C     C_R   0.230281 0.550189 0.351927 0.549858
C85   C     C_R   0.469521 0.822876 0.646579 0.542669
C86   C     C_R   0.531376 0.823866 0.353796 0.544181
C87   C     C_R   0.968280 0.322938 0.645984 0.554212
C88   C     C_R   0.031640 0.323973 0.353780 0.546794
C89   C     C_R   0.273901 0.689744 0.636141 0.566862
C90   C     C_R   0.739763 0.636286 0.355925 0.579117
C91   C     C_R   0.759615 0.138225 0.642556 0.548845
C92   C     C_R   0.239954 0.135698 0.355735 0.544124
C93   C     C_3   0.446547 0.922944 0.037722 -0.128044
C94   C     C_R   0.307725 0.541510 0.963524 -0.151835
C95   C     C_3   0.497926 0.933132 0.974481 -0.108961
C96   C     C_3   0.946535 0.422926 0.037726 -0.127688
C97   C     C_3   0.997913 0.433144 0.974485 -0.108904
C98   C     C_3   0.408054 0.815271 0.999902 -0.140740
C99   C     C_3   0.549026 0.840290 0.011033 -0.110261
C100  C     C_3   0.908058 0.315241 0.999902 -0.140670
C101  C     C_3   0.049026 0.340320 0.011033 -0.110276
C102  C     C_3   0.460061 0.825184 0.938160 0.050729
C103  C     C_3   0.497348 0.829783 0.073043 0.050854
C104  C     C_3   0.960063 0.325184 0.938160 0.050947
Cr1   Cr    Cr6+3 0.229630 0.835900 0.747350 1.008955
Cr2   Cr    Cr6+3 0.614200 0.677120 0.250660 1.008108
Cr3   Cr    Cr6+3 0.885800 0.177120 0.749340 1.008323
Cr4   Cr    Cr6+3 0.114200 0.177120 0.250660 1.009290
Cr5   Cr    Cr6+3 0.770370 0.835900 0.252650 1.013478
Cr6   Cr    Cr6+3 0.729630 0.335900 0.747350 1.022625
Cr7   Cr    Cr6+3 0.270370 0.335900 0.252650 1.002841
Cr8   Cr    Cr6+3 0.387410 0.989850 0.750850 1.006636
Cr9   Cr    Cr6+3 0.612590 0.989850 0.249150 1.005151
Cr10  Cr    Cr6+3 0.887410 0.489850 0.750850 1.016629
Cr11  Cr    Cr6+3 0.112590 0.489850 0.249150 1.008544
Cr12  Cr    Cr6+3 0.385800 0.677120 0.749340 1.006009
H1    H     H_    0.349703 0.805246 0.993863 0.120520
H2    H     H_    0.648372 0.581813 0.575657 0.129481
H3    H     H_    0.839795 0.966775 0.437151 0.128074
H4    H     H_    0.149049 0.096208 0.576072 0.128816
H5    H     H_    0.358892 0.542471 0.559517 0.132098
H6    H     H_    0.634335 0.608762 0.447641 0.145017
H7    H     H_    0.842869 0.988284 0.566166 0.126166
H8    H     H_    0.135089 0.116774 0.447858 0.152130
H9    H     H_    0.420297 0.000470 0.065120 0.120462
H10   H     H_    0.513953 0.019389 0.947985 0.117598
H11   H     H_    0.920274 0.500438 0.065126 0.122168
H12   H     H_    0.607422 0.850398 0.016692 0.125115
H13   H     H_    0.013928 0.519413 0.947994 0.118459
H14   H     H_    0.537819 0.654711 0.947767 0.131802
H15   H     H_    0.444112 0.636237 0.063381 0.116772
H16   H     H_    0.037846 0.154743 0.947760 0.132325
H17   H     H_    0.944142 0.136213 0.063372 0.116992
H18   H     H_    0.358669 0.523522 0.939837 0.128808
H19   H     H_    0.663171 0.473251 0.067772 0.126339
H20   H     H_    0.858676 0.023564 0.939839 0.128877
H21   H     H_    0.163094 0.973370 0.067750 0.126131
H22   H     H_    0.345675 0.493972 0.068367 0.112489
H23   H     H_    0.849708 0.305193 0.993863 0.121218
H24   H     H_    0.672696 0.439866 0.939345 0.135016
H25   H     H_    0.845680 0.994023 0.068369 0.112482
H26   H     H_    0.172618 0.940009 0.939319 0.134981
H27   H     H_    0.127976 0.619494 0.049687 0.137359
H28   H     H_    0.830554 0.725173 0.929021 0.133787
H29   H     H_    0.627949 0.119360 0.049666 0.137224
H30   H     H_    0.330664 0.225013 0.929064 0.134360
H31   H     H_    0.139102 0.640279 0.923640 0.130214
H32   H     H_    0.823988 0.753277 0.055008 0.137896
H33   H     H_    0.639085 0.140160 0.923615 0.129042
H34   H     H_    0.107421 0.350454 0.016694 0.125669
H35   H     H_    0.324109 0.253071 0.055045 0.138007
H36   H     H_    0.468257 0.633845 0.555956 0.128620
H37   H     H_    0.476402 0.641913 0.430001 0.125601
H38   H     H_    0.932611 0.156229 0.549018 0.141786
H39   H     H_    0.951896 0.162104 0.422835 0.126612
H40   H     H_    0.545227 0.018515 0.443608 0.137099
H41   H     H_    0.520484 0.018242 0.571464 0.109270
H42   H     H_    0.063913 0.504261 0.447687 0.140571
H43   H     H_    0.040145 0.502337 0.575697 0.135346
H44   H     H_    0.172536 0.864185 0.579932 0.287655
H45   H     H_    0.172964 0.744995 0.411121 0.135799
H46   H     H_    0.050197 0.841582 0.549686 0.142293
H47   H     H_    0.071788 0.719029 0.490029 0.141589
H48   H     H_    0.094573 0.876370 0.468097 0.134636
H49   H     H_    0.898811 0.480680 0.410515 0.254390
H50   H     H_    0.968519 0.657260 0.383392 0.143065
H51   H     H_    0.949564 0.658079 0.477259 0.116808
H52   H     H_    0.898968 0.754533 0.416364 0.167619
H53   H     H_    0.609216 0.162056 0.594214 0.254061
H54   H     H_    0.545892 0.337663 0.554842 0.136668
H55   H     H_    0.558808 0.245634 0.476561 0.112171
H56   H     H_    0.874169 0.534808 0.550459 0.146225
H57   H     H_    0.615600 0.375212 0.494813 0.162171
H58   H     H_    0.369532 0.034955 0.361518 0.260848
H59   H     H_    0.468415 0.159393 0.385092 0.130602
H60   H     H_    0.442979 0.174373 0.477043 0.133322
H61   H     H_    0.393751 0.253867 0.407870 0.168662
H62   H     H_    0.666766 0.224328 0.421775 0.133809
H63   H     H_    0.373473 0.032880 0.551069 0.153302
H64   H     H_    0.344503 0.486203 0.435585 0.124603
N1    N     N_2   0.157866 0.792529 0.548333 -0.491774
N2    N     N_2   0.875513 0.565948 0.411449 -0.496911
N3    N     N_2   0.634202 0.219598 0.559177 -0.477796
N4    N     N_2   0.377289 0.062309 0.413552 -0.508861
O1    O     O_R   0.214270 0.709000 0.827470 -0.520359
O2    O     O_R   0.543270 0.717630 0.330160 -0.533547
O3    O     O_R   0.956730 0.217630 0.669840 -0.522186
O4    O     O_R   0.043270 0.217630 0.330160 -0.528178
O5    O     O_R   0.320620 0.625640 0.672920 -0.507769
O6    O     O_R   0.679380 0.625640 0.327080 -0.523030
O7    O     O_R   0.820620 0.125640 0.672920 -0.513017
O8    O     O_R   0.179380 0.125640 0.327080 -0.514830
O9    O     O_3   0.334280 0.834290 0.749180 -0.288518
O10   O     O_3   0.665720 0.834290 0.250820 -0.247938
O11   O     O_3   0.834280 0.334290 0.749180 -0.270645
O12   O     O_R   0.785730 0.709000 0.172530 -0.529337
O13   O     O_3   0.165720 0.334290 0.250820 -0.244345
O14   O     O_R   0.236160 0.958490 0.823130 -0.506385
O15   O     O_R   0.763840 0.958490 0.176870 -0.509913
O16   O     O_R   0.736160 0.458490 0.823130 -0.509801
O17   O     O_R   0.263840 0.458490 0.176870 -0.509154
O18   O     O_R   0.332080 0.075470 0.831280 -0.525843
O19   O     O_R   0.667920 0.075470 0.168720 -0.527321
O20   O     O_R   0.832080 0.575470 0.831280 -0.528972
O21   O     O_R   0.167920 0.575470 0.168720 -0.528011
O22   O     O_R   0.446300 0.918110 0.826620 -0.498166
O23   O     O_R   0.714270 0.209000 0.827470 -0.527160
O24   O     O_R   0.553700 0.918110 0.173380 -0.506520
O25   O     O_R   0.946300 0.418110 0.826620 -0.497926
O26   O     O_R   0.053700 0.418110 0.173380 -0.505054
O27   O     O_R   0.457110 0.716200 0.831760 -0.520629
O28   O     O_R   0.542890 0.716200 0.168240 -0.519457
O29   O     O_R   0.957110 0.216200 0.831760 -0.520267
O30   O     O_R   0.042890 0.216200 0.168240 -0.520049
O31   O     O_R   0.320980 0.624310 0.823030 -0.515830
O32   O     O_R   0.679020 0.624310 0.176970 -0.501872
O33   O     O_R   0.820980 0.124310 0.823030 -0.521662
O34   O     O_R   0.285730 0.209000 0.172530 -0.532941
O35   O     O_R   0.179020 0.124310 0.176970 -0.501850
O36   O     O_R   0.213890 0.710430 0.665540 -0.489927
O37   O     O_R   0.786110 0.710430 0.334460 -0.489372
O38   O     O_R   0.713890 0.210430 0.665540 -0.492739
O39   O     O_R   0.286110 0.210430 0.334460 -0.518688
O40   O     O_R   0.235810 0.959820 0.673020 -0.535690
O41   O     O_R   0.764190 0.959820 0.326980 -0.505764
O42   O     O_R   0.735810 0.459820 0.673020 -0.486827
O43   O     O_R   0.264190 0.459820 0.326980 -0.502090
O44   O     O_R   0.331700 0.076900 0.669350 -0.520624
O45   O     O_R   0.445950 0.919440 0.676520 -0.507050
O46   O     O_R   0.668300 0.076900 0.330650 -0.532396
O47   O     O_R   0.831700 0.576900 0.669350 -0.529784
O48   O     O_R   0.168300 0.576900 0.330650 -0.535190
O49   O     O_R   0.554050 0.919440 0.323480 -0.508322
O50   O     O_R   0.945950 0.419440 0.676520 -0.501611
O51   O     O_R   0.054050 0.419440 0.323480 -0.506669
O52   O     O_R   0.456730 0.717630 0.669840 -0.531692

loop_
_geom_bond_atom_site_label_1
_geom_bond_atom_site_label_2
_ccdc_geom_bond_type
C99   C103  S    
C82   O47   A    
C16   C21   A    
Cr8   O44   S    
C55   C59   A    
C8    H20   S    
C85   O52   A    
C41   C42   A    
C20   H28   S    
C61   C98   S    
C76   O31   A    
C59   C82   S    
Cr8   O18   S    
C54   H45   S    
Cr12  O5    S    
C51   N2    S    
C7    H59   S    
Cr7   O17   S    
Cr11  O51   S    
C57   C62   A    
Cr2   O10   S    
C56   H62   S    
Cr1   O9    S    
C82   O42   A    
C1    C18   S    
C45   O27   A    
C87   O50   A    
C81   O41   A    
C13   C18   A    
C2    C29   A    
C34   C40   A    
H49   N2    S    
C64   C68   A    
C40   C87   S    
C37   C85   S    
C26   H35   S    
C61   C103  S    
C77   O12   A    
C35   H39   S    
C73   C90   S    
Cr12  O27   S    
C52   C74   A    
C78   O33   A    
C54   C58   A    
C95   C99   S    
C5    H50   S    
C72   C101  S    
C10   C94   A    
C49   C54   A    
Cr3   O3    S    
C3    C48   S    
Cr4   O13   S    
C33   C36   A    
C64   H2    S    
C12   H25   S    
C7    H61   S    
Cr5   O12   S    
C25   H33   S    
C34   C35   A    
Cr9   O10   S    
C5    H52   S    
Cr1   O1    S    
C37   C42   A    
C17   O19   A    
C9    C13   A    
C78   O23   A    
H53   N3    S    
C22   C26   A    
C50   H14   S    
C51   C73   A    
C14   C39   S    
Cr3   O33   S    
Cr4   O35   S    
C9    H21   S    
C6    H54   S    
C100  C104  S    
C22   H30   S    
C16   C17   S    
Cr3   O29   S    
C52   N3    S    
C11   H24   S    
C3    C96   S    
Cr7   O34   S    
C23   C27   A    
C4    N1    S    
C51   C55   A    
C32   H36   S    
C95   C102  S    
C41   H40   S    
C43   H42   S    
C1    O14   A    
Cr9   O19   S    
C26   C31   A    
C93   C95   S    
C66   H4    S    
C7    H60   S    
C63   H64   S    
C93   C103  S    
C36   C41   A    
C53   C75   A    
C11   C15   A    
Cr12  O31   S    
C1    O18   A    
C67   H5    S    
Cr3   O11   S    
Cr11  O48   S    
C72   H16   S    
C9    C31   A    
C48   O30   A    
C6    H55   S    
C34   H38   S    
C65   H3    S    
C15   C20   A    
C63   C67   A    
Cr8   O22   S    
C86   O49   A    
Cr10  O11   S    
C62   C66   A    
Cr6   O16   S    
C28   O20   A    
Cr9   O24   S    
C12   C16   A    
Cr9   O46   S    
C35   C38   A    
C85   O45   A    
Cr2   O2    S    
C90   O37   A    
Cr10  O50   S    
Cr6   O42   S    
C53   N4    S    
C68   H6    S    
Cr10  O47   S    
C57   H63   S    
Cr5   O41   S    
C79   O34   A    
C87   O3    A    
C72   C104  S    
C36   C86   S    
C68   C73   A    
C98   C102  S    
C91   O7    A    
Cr8   O45   S    
C56   C60   A    
C96   H11   S    
C38   C88   S    
C21   H29   S    
C74   C91   S    
C19   C23   A    
C43   C44   A    
C45   O22   A    
C46   O24   A    
C100  H23   S    
C58   C84   S    
C80   O40   A    
C50   C102  S    
Cr11  O13   S    
C60   C81   S    
C97   C101  S    
C79   O35   A    
C71   C89   S    
C88   O4    A    
C8    C12   A    
Cr1   O36   S    
Cr2   O28   S    
C96   C97   S    
Cr12  O52   S    
C4    H48   S    
C50   C99   S    
C4    H47   S    
C69   C74   A    
C28   O16   A    
C32   C37   A    
C80   O44   A    
C91   O38   A    
C24   C29   A    
C101  H34   S    
Cr6   O23   S    
C75   C92   S    
C46   O28   A    
Cr5   O10   S    
Cr12  O9    S    
C7    N4    S    
C4    H46   S    
Cr1   O14   S    
C48   O26   A    
C60   C65   A    
C86   O2    A    
C81   O46   A    
C47   O25   A    
C70   H8    S    
C3    C83   S    
C49   N1    S    
Cr5   O15   S    
C42   H41   S    
Cr2   O6    S    
H58   N4    S    
C27   C76   S    
Cr6   O38   S    
Cr7   O39   S    
H44   N1    S    
Cr6   O11   S    
Cr5   O37   S    
Cr10  O25   S    
C98   H1    S    
C55   H56   S    
C90   O6    A    
C62   C80   S    
C25   C30   A    
C50   C61   S    
C88   O51   A    
C21   C25   A    
Cr10  O20   S    
C19   H27   S    
C47   C104  S    
Cr11  O26   S    
C18   C22   A    
C14   C19   A    
Cr4   O4    S    
C92   O39   A    
C58   C63   A    
C53   C57   A    
C24   H32   S    
C31   C79   S    
C99   H12   S    
C6    H57   S    
Cr1   O40   S    
Cr2   O32   S    
C46   C103  S    
C66   C70   A    
C2    H19   S    
C6    N3    S    
C83   C100  S    
Cr7   O43   S    
C32   C33   A    
Cr11  O21   S    
C5    N2    S    
C33   H37   S    
C8    C30   A    
C38   C43   A    
C89   O5    A    
Cr7   O13   S    
C89   O36   A    
C95   H10   S    
C3    C101  S    
C15   C28   S    
Cr9   O49   S    
C23   H31   S    
C65   C69   A    
C52   C56   A    
C47   O29   A    
C94   H18   S    
C17   O15   A    
C67   C71   A    
C5    H51   S    
C39   O17   A    
C96   C100  S    
C84   O48   A    
C93   H9    S    
Cr8   O9    S    
C83   H17   S    
C97   C104  S    
C45   C102  S    
C61   H15   S    
C72   C83   S    
C97   H13   S    
C30   C78   S    
C59   C64   A    
C40   C44   A    
C29   C77   S    
C49   C71   A    
Cr3   O7    S    
C70   C75   A    
C44   H43   S    
C69   H7    S    
Cr4   O8    S    
C27   C94   A    
C2    C11   A    
C10   H22   S    
C39   O21   A    
C84   O43   A    
C93   C98   S    
C20   C24   A    
Cr4   O30   S    
C76   O1    A    
C92   O8    A    
C77   O32   A    
C10   C14   A    
C13   H26   S    
