data_mof_unit_12273.cif
_audit_creation_date              2012-12-10T18:22:34-0500
_audit_creation_method            fapswitch 2.2
_symmetry_space_group_name_H-M    P1
_symmetry_Int_Tables_number       1
_space_group_crystal_system       triclinic
_cell_length_a                    23.490994
_cell_length_b                    10.757084
_cell_length_c                    9.426639
_cell_angle_alpha                 90.035777
_cell_angle_beta                  89.278385
_cell_angle_gamma                 85.775381
_cell_volume                      2375.39718529

loop_
_atom_site_label
_atom_site_type_symbol
_atom_type_description
_atom_site_fract_x
_atom_site_fract_y
_atom_site_fract_z
_atom_type_partial_charge
C1    C     C_R   0.503073 0.258994 0.499863 0.860448
C2    C     C_R   0.699128 0.594781 0.428580 -0.298017
C3    C     C_R   0.238733 0.516882 0.370725 0.400265
C4    C     C_R   0.758719 0.593040 0.430003 0.418266
C5    C     C_R   0.207039 0.534331 0.496974 0.159699
C6    C     C_R   0.791090 0.500062 0.508943 0.093098
C7    C     C_3   0.519329 0.032631 0.625483 0.145566
C8    C     C_3   0.480253 0.964500 0.375133 0.187612
C9    C     C_3   0.551095 0.940486 0.521660 0.134366
C10   C     C_3   0.448481 0.055879 0.479252 0.137416
C11   C     C_3   0.495242 0.876599 0.500307 -0.284861
C12   C     C_R   0.495745 0.740357 0.500137 0.855164
C13   C     C_3   0.503981 0.121497 0.499745 -0.310592
C14   C     C_3   0.463359 0.968962 0.605646 0.344897
C15   C     C_3   0.536348 0.027814 0.394652 0.349865
C16   C     C_R   0.390678 0.503694 0.501118 0.841686
C17   C     C_R   0.608581 0.505337 0.499236 0.880072
C18   C     C_3   0.533054 0.579459 0.048355 0.514020
C19   C     C_3   0.466963 0.420510 0.951661 0.522969
C20   C     C_3   0.482594 0.608811 0.949788 -0.161511
C21   C     C_3   0.517431 0.391180 0.050235 -0.141462
C22   C     C_3   0.550887 0.471479 0.947683 -0.139114
C23   C     C_R   0.235070 0.542434 0.626882 0.301860
C24   C     C_3   0.449126 0.528474 0.052333 -0.154430
C25   C     C_R   0.872561 0.629056 0.554806 0.643623
C26   C     C_R   0.123108 0.421257 0.516869 0.658288
C27   C     C_R   0.885276 0.417993 0.601821 0.688538
C28   C     C_R   0.113009 0.642279 0.489831 0.699371
C29   C     C_R   0.944251 0.414103 0.575853 -0.146522
C30   C     C_R   0.052998 0.644070 0.508244 -0.147521
C31   C     C_R   0.968509 0.526977 0.546367 -0.093039
C32   C     C_R   0.028401 0.528845 0.528529 -0.081499
C33   C     C_R   0.932745 0.638687 0.547617 -0.124814
C34   C     C_R   0.763114 0.389927 0.538092 0.348956
C35   C     C_R   0.063569 0.415536 0.534116 -0.115165
C36   C     C_R   0.978898 0.302289 0.581131 0.420697
C37   C     C_R   0.017141 0.756352 0.514784 0.411617
C38   C     C_R   0.038031 0.301839 0.561417 0.161941
C39   C     C_R   0.958273 0.753806 0.542383 0.166941
C40   C     C_3   0.090381 0.148855 0.708319 -0.411342
C41   C     C_3   0.915965 0.892027 0.722659 -0.381712
C42   C     C_3   0.332895 0.673854 0.798070 -0.502106
C43   C     C_3   0.653652 0.218964 0.478548 -0.563617
C44   C     C_3   0.656663 0.916299 0.547015 -0.564999
C45   C     C_R   0.295104 0.533677 0.631027 0.160319
C46   C     C_3   0.344826 0.050262 0.447790 -0.551645
C47   C     C_3   0.555962 0.977883 0.861890 -0.496491
C48   C     C_3   0.442168 0.021255 0.140952 -0.481005
C49   C     C_R   0.703236 0.396083 0.547836 0.149710
C50   C     C_R   0.327262 0.514186 0.503214 -0.185274
C51   C     C_R   0.671164 0.501723 0.497619 -0.170197
C52   C     C_R   0.298210 0.506846 0.374221 -0.316394
Cl1   Cl    Cl    0.948484 0.157791 0.592685 -0.468997
Cl2   Cl    Cl    0.583416 0.062881 0.253007 -0.650859
Cl3   Cl    Cl    0.043158 0.904948 0.489725 -0.470795
Cl4   Cl    Cl    0.578830 0.689889 0.115449 -0.545050
Cl5   Cl    Cl    0.421364 0.309679 0.884715 -0.557269
Cl6   Cl    Cl    0.194104 0.564126 0.784799 -0.536103
Cl7   Cl    Cl    0.797021 0.240495 0.500222 -0.499932
Cl8   Cl    Cl    0.204515 0.504443 0.206973 -0.493710
Cl9   Cl    Cl    0.790282 0.692406 0.307634 -0.500574
Cl10  Cl    Cl    0.415338 0.931919 0.744038 -0.686019
Cu1   Cu    Cu3+1 0.500010 0.499990 0.643150 1.007791
Cu2   Cu    Cu3+1 0.499990 0.500010 0.356850 1.005526
H1    H     H_    0.468398 0.700523 0.903473 0.185775
H2    H     H_    0.120049 0.216079 0.748526 0.233806
H3    H     H_    0.892801 0.892269 0.506645 0.337116
H4    H     H_    0.887276 0.977889 0.737125 0.268964
H5    H     H_    0.956933 0.904743 0.776506 0.231096
H6    H     H_    0.895361 0.813603 0.773769 0.208383
H7    H     H_    0.305289 0.499853 0.846409 0.319908
H8    H     H_    0.291756 0.730292 0.813869 0.254027
H9    H     H_    0.357726 0.715361 0.711609 0.245044
H10   H     H_    0.357600 0.675946 0.897383 0.213442
H11   H     H_    0.696255 0.236324 0.668290 0.290322
H12   H     H_    0.531764 0.299538 0.096569 0.190668
H13   H     H_    0.688855 0.158044 0.430508 0.280210
H14   H     H_    0.634264 0.278857 0.393743 0.250524
H15   H     H_    0.620111 0.162699 0.521097 0.206545
H16   H     H_    0.598474 0.799346 0.630173 0.259163
H17   H     H_    0.691355 0.843374 0.568945 0.248343
H18   H     H_    0.657289 0.988045 0.631361 0.213589
H19   H     H_    0.665335 0.954855 0.440853 0.289105
H20   H     H_    0.386580 0.201240 0.519705 0.283544
H21   H     H_    0.308918 0.106897 0.398614 0.243769
H22   H     H_    0.331159 0.022779 0.555623 0.271257
H23   H     H_    0.593723 0.447921 0.899715 0.174337
H24   H     H_    0.354397 0.965476 0.382277 0.211949
H25   H     H_    0.570814 0.138494 0.749350 0.257601
H26   H     H_    0.558606 0.020934 0.967922 0.275881
H27   H     H_    0.598287 0.930827 0.834941 0.218275
H28   H     H_    0.523698 0.907754 0.867194 0.255268
H29   H     H_    0.430028 0.856902 0.249628 0.245114
H30   H     H_    0.436562 0.979437 0.035175 0.265734
H31   H     H_    0.474991 0.089833 0.131442 0.256683
H32   H     H_    0.401035 0.070318 0.174581 0.238280
H33   H     H_    0.406303 0.551750 0.100413 0.152762
H34   H     H_    0.321670 0.492329 0.275226 0.210949
H35   H     H_    0.674655 0.667835 0.371958 0.244923
H36   H     H_    0.097610 0.161557 0.484869 0.326672
H37   H     H_    0.113152 0.054757 0.703277 0.249580
H38   H     H_    0.053742 0.145422 0.783523 0.230574
N1    N     N_R   0.850686 0.514348 0.549242 -0.436928
N2    N     N_2   0.393787 0.123877 0.455558 -0.413590
N3    N     N_2   0.540578 0.074280 0.759676 -0.383778
N4    N     N_2   0.459193 0.923544 0.240356 -0.387715
N5    N     N_R   0.145945 0.532663 0.496394 -0.426977
N6    N     N_3   0.500040 0.499970 0.858290 -0.205193
N7    N     N_3   0.499960 0.500030 0.141710 -0.204987
N8    N     N_2   0.070281 0.184708 0.568616 -0.346176
N9    N     N_2   0.926456 0.868572 0.572745 -0.338508
N10   N     N_2   0.322855 0.546564 0.763050 -0.376387
N11   N     N_2   0.674835 0.290800 0.593160 -0.441740
N12   N     N_2   0.602700 0.860881 0.547603 -0.417412
O1    O     O_R   0.500030 0.316850 0.620870 -0.530656
O2    O     O_2   0.158858 0.317562 0.522886 -0.535971
O3    O     O_2   0.864490 0.337797 0.695382 -0.434760
O4    O     O_2   0.139056 0.748219 0.468246 -0.448030
O5    O     O_R   0.499970 0.683150 0.379130 -0.533997
O6    O     O_R   0.500000 0.316860 0.379090 -0.566350
O7    O     O_R   0.500000 0.683140 0.620910 -0.588256
O8    O     O_R   0.417890 0.499960 0.620920 -0.515131
O9    O     O_R   0.582110 0.500040 0.379080 -0.545557
O10   O     O_R   0.417870 0.499970 0.379140 -0.602220
O11   O     O_R   0.582130 0.500030 0.620860 -0.579797
O12   O     O_2   0.836581 0.730954 0.574785 -0.517022

loop_
_geom_bond_atom_site_label_1
_geom_bond_atom_site_label_2
_ccdc_geom_bond_type
C23   Cl6   S    
C49   N11   S    
H36   N8    S    
C23   C45   A    
C48   H31   S    
C27   C29   A    
C47   H28   S    
C18   N7    S    
C44   H19   S    
C17   C51   S    
C45   N10   S    
C19   Cl5   S    
C43   H14   S    
C29   C36   A    
C33   C39   A    
Cu2   O5    S    
C48   H30   S    
C9    N12   S    
C19   C21   S    
C16   C50   S    
C44   H18   S    
C11   C14   S    
C28   N5    A    
C43   H15   S    
C14   Cl10  S    
C27   N1    A    
C16   O8    A    
C42   N10   S    
C36   Cl1   S    
C40   H37   S    
C17   O9    A    
C7    C14   S    
C48   N4    S    
C12   O7    A    
C20   C24   S    
C49   C51   A    
C5    C23   A    
C50   C52   A    
C7    N3    S    
H11   N11   S    
C38   N8    S    
C18   Cl4   S    
C46   H21   S    
Cu1   O1    S    
C19   N6    S    
C39   N9    S    
C44   N12   S    
C40   H2    S    
C21   C22   S    
C42   H8    S    
Cu1   O7    S    
C41   H4    S    
C46   H24   S    
C27   O3    S    
C42   H10   S    
C24   H33   S    
C15   Cl2   S    
C20   H1    S    
C35   C38   A    
C4    C6    A    
C44   H17   S    
C10   C14   S    
C25   N1    A    
C40   N8    S    
C47   N3    S    
Cu2   O10   S    
C46   N2    S    
C4    Cl9   S    
C6    C34   A    
C30   C37   A    
C8    N4    S    
C1    O6    A    
C2    C4    A    
C25   O12   S    
C32   C35   A    
H29   N4    S    
C12   O5    A    
C31   C32   A    
C21   H12   S    
C3    C52   A    
H7    N10   S    
C31   C33   A    
C6    N1    S    
C9    C11   S    
Cu1   O11   S    
H3    N9    S    
H16   N12   S    
C2    H35   S    
C8    C15   S    
C13   C15   S    
C34   Cl7   S    
H20   N2    S    
C47   H26   S    
C1    C13   S    
C36   C38   A    
Cu1   O8    S    
C41   H5    S    
C5    N5    S    
C7    C9    S    
C34   C49   A    
C48   H32   S    
C18   C22   S    
C47   H27   S    
C8    C10   S    
C24   N7    S    
C3    C5    A    
C10   C13   S    
C22   H23   S    
C26   N5    A    
C21   N7    S    
C11   C12   S    
C43   H13   S    
Cu2   O9    S    
Cu2   O6    S    
C10   N2    S    
C19   C24   S    
C16   O10   A    
C28   C30   A    
C29   C31   A    
C28   O4    S    
C43   N11   S    
C30   C32   A    
C17   O11   A    
Cu2   N7    S    
C45   C50   A    
C8    C11   S    
C22   N6    S    
C52   H34   S    
C42   H9    S    
C18   C20   S    
C9    C15   S    
C26   O2    S    
C2    C51   A    
C40   H38   S    
Cu1   Cu2   S    
C37   Cl3   S    
C26   C35   A    
C7    C13   S    
C37   C39   A    
C41   N9    S    
H25   N3    S    
C1    O1    A    
C20   N6    S    
Cu1   N6    S    
C3    Cl8   S    
C25   C33   A    
C41   H6    S    
C46   H22   S    
