data_mof_unit_21512.cif
_audit_creation_date              2012-12-10T16:37:38-0500
_audit_creation_method            fapswitch 2.2
_symmetry_space_group_name_H-M    P1
_symmetry_Int_Tables_number       1
_space_group_crystal_system       triclinic
_cell_length_a                    10.877417
_cell_length_b                    10.881254
_cell_length_c                    15.523425
_cell_angle_alpha                 96.526733
_cell_angle_beta                  75.032058
_cell_angle_gamma                 98.333261
_cell_volume                      1750.67584472

loop_
_atom_site_label
_atom_site_type_symbol
_atom_type_description
_atom_site_fract_x
_atom_site_fract_y
_atom_site_fract_z
_atom_type_partial_charge
C1    C     C_R   0.159643 0.479899 0.518566 0.786810
C2    C     C_R   0.509975 0.480128 0.120038 -0.213915
C3    C     C_R   0.664933 0.338913 0.115485 0.254090
C4    C     C_R   0.842016 0.521011 0.480521 0.835468
C5    C     C_R   0.426337 0.580943 0.841215 -0.144788
C6    C     C_2   0.979138 0.531470 0.475911 0.219327
C7    C     C_2   0.022729 0.465523 0.528436 0.285906
C8    C     C_2   0.540142 0.967397 0.475060 0.092964
C9    C     C_2   0.453690 0.037622 0.528772 0.133270
C10   C     C_R   0.468854 0.168389 0.520138 0.907702
C11   C     C_R   0.529168 0.833552 0.480778 0.855745
C12   C     C_R   0.270579 0.622285 0.981733 -0.260507
C13   C     C_R   0.555608 0.444232 0.259244 0.908273
C14   C     C_R   0.449353 0.557607 0.741976 0.882949
C15   C     C_R   0.687047 0.321308 0.022065 0.511795
C16   C     C_R   0.578125 0.420294 0.163260 -0.176169
C17   C     C_R   0.316224 0.636365 0.890895 0.317734
C18   C     C_3   0.000695 0.321274 0.634643 -0.176039
C19   C     C_3   0.688925 0.241828 0.775448 -0.207762
C20   C     C_3   0.717368 0.122194 0.969539 -0.159422
C21   C     C_3   0.196229 0.403583 0.102628 -0.256388
C22   C     C_3   0.808059 0.615995 0.789571 -0.198434
C23   C     C_R   0.331163 0.554916 0.025843 0.498697
C24   C     C_3   0.096224 0.564114 0.334449 -0.218830
C25   C     C_R   0.453357 0.517311 0.982097 -0.061969
C26   C     C_R   0.501971 0.531665 0.888981 -0.212356
C27   C     C_R   0.527320 0.462048 0.027194 -0.026893
C28   C     C_R   0.625901 0.391336 0.977163 -0.214625
C29   C     C_R   0.666171 0.399990 0.884378 0.431296
C30   C     C_R   0.623518 0.492278 0.846994 0.445784
Cl1   Cl    Cl    0.752722 0.265152 0.171494 -0.562223
Cl2   Cl    Cl    0.672288 0.035471 0.394717 -0.532163
Cl3   Cl    Cl    0.315151 0.983679 0.609950 -0.547389
Cl4   Cl    Cl    0.223130 0.717391 0.843903 -0.549449
H1    H     H_    0.449806 0.547090 0.159791 0.205808
H2    H     H_    0.633235 0.114971 0.940102 0.127498
H3    H     H_    0.687337 0.083987 0.036255 0.187872
H4    H     H_    0.260998 0.331682 0.071571 0.175653
H5    H     H_    0.123286 0.404432 0.063947 0.197861
H6    H     H_    0.144492 0.376621 0.170506 0.199357
H7    H     H_    0.873719 0.558234 0.806362 0.201865
H8    H     H_    0.779786 0.689202 0.844673 0.143557
H9    H     H_    0.862053 0.663790 0.729226 0.194715
H10   H     H_    0.011693 0.541539 0.305195 0.192411
H11   H     H_    0.144234 0.479326 0.330541 0.152938
H12   H     H_    0.181236 0.656711 0.017738 0.207483
H13   H     H_    0.165439 0.632330 0.292880 0.224512
H14   H     H_    0.032390 0.394079 0.683356 0.160588
H15   H     H_    0.081332 0.270522 0.595304 0.160396
H16   H     H_    0.930996 0.250963 0.672775 0.207642
H17   H     H_    0.688095 0.286592 0.714749 0.237000
H18   H     H_    0.740856 0.158775 0.754097 0.169322
H19   H     H_    0.588954 0.206317 0.810325 0.125840
H20   H     H_    0.787012 0.063190 0.925233 0.190426
O1    O     O_3   0.500000 0.500000 0.500000 -0.535821
O2    O     O_R   0.463530 0.379110 0.309170 -0.626181
O3    O     O_R   0.388210 0.611730 0.699360 -0.586981
O4    O     O_R   0.624720 0.532760 0.292120 -0.625675
O5    O     O_R   0.523540 0.476390 0.699360 -0.615807
O6    O     O_3   0.941423 0.372731 0.578337 -0.603191
O7    O     O_3   0.753207 0.325392 0.830842 -0.570611
O8    O     O_3   0.777805 0.245707 0.974917 -0.534655
O9    O     O_3   0.265785 0.522496 0.110574 -0.651727
O10   O     O_3   0.699854 0.541709 0.769717 -0.583305
O11   O     O_3   0.062261 0.618197 0.422997 -0.620532
O12   O     O_R   0.537910 0.240570 0.564270 -0.645295
O13   O     O_R   0.438950 0.782540 0.540270 -0.588553
O14   O     O_R   0.222350 0.398740 0.468260 -0.661974
O15   O     O_R   0.800790 0.578160 0.427210 -0.621964
O16   O     O_R   0.212140 0.566330 0.564260 -0.610925
O17   O     O_R   0.764730 0.456770 0.540270 -0.579410
O18   O     O_R   0.412790 0.208310 0.468260 -0.618291
O19   O     O_R   0.610350 0.768590 0.427210 -0.601620
Zn1   Zn    Zn3+2 0.580150 0.419820 0.574680 1.033838
Zn2   Zn    Zn3+2 0.401380 0.373730 0.437510 1.021791
Zn3   Zn    Zn3+2 0.631680 0.593260 0.413140 1.048005
Zn4   Zn    Zn3+2 0.386790 0.613180 0.574670 1.067648

loop_
_geom_bond_atom_site_label_1
_geom_bond_atom_site_label_2
_ccdc_geom_bond_type
C2    H1    S    
C30   O10   S    
O13   Zn4   S    
O4    Zn3   S    
O14   Zn2   S    
C14   O5    A    
C12   C23   A    
C24   H11   S    
C28   C29   A    
O1    Zn4   S    
C22   H7    S    
C5    C17   A    
O12   Zn1   S    
C1    O14   A    
O15   Zn3   S    
O1    Zn1   S    
C19   H18   S    
C6    O11   S    
C21   H4    S    
C8    C9    D    
C12   C17   A    
C2    C27   A    
C2    C16   A    
C9    C10   S    
C13   O2    A    
O1    Zn2   S    
C19   H19   S    
C23   O9    S    
O2    Zn2   S    
O16   Zn4   S    
C9    Cl3   S    
O18   Zn2   S    
C4    O15   A    
C11   O13   A    
C10   O12   A    
C29   O7    S    
C8    Cl2   S    
O3    Zn4   S    
C12   H12   S    
C11   O19   A    
C13   O4    A    
C25   C26   A    
C29   C30   A    
C22   H9    S    
C21   H5    S    
C3    Cl1   S    
O5    Zn1   S    
C5    C14   S    
C24   O11   S    
O1    Zn3   S    
C20   H20   S    
C26   C30   A    
C24   H10   S    
O19   Zn3   S    
C4    C6    S    
C17   Cl4   S    
C7    O6    S    
C3    C15   A    
C18   H16   S    
C18   O6    S    
C14   O3    A    
C1    C7    S    
C24   H13   S    
C18   H14   S    
O17   Zn1   S    
C6    C7    D    
C25   C27   A    
C1    O16   A    
C20   H3    S    
C15   C28   A    
C22   H8    S    
C21   H6    S    
C19   O7    S    
C8    C11   S    
C15   O8    S    
C23   C25   A    
C20   O8    S    
C21   O9    S    
C22   O10   S    
C5    C26   A    
C20   H2    S    
C19   H17   S    
C13   C16   S    
C27   C28   A    
C4    O17   A    
C3    C16   A    
C18   H15   S    
C10   O18   A    
