data_mof_unit_36300.cif
_audit_creation_date              2012-12-10T19:05:20-0500
_audit_creation_method            fapswitch 2.2
_symmetry_space_group_name_H-M    P1
_symmetry_Int_Tables_number       1
_space_group_crystal_system       triclinic
_cell_length_a                    9.535846
_cell_length_b                    10.810083
_cell_length_c                    17.286862
_cell_angle_alpha                 90.445491
_cell_angle_beta                  86.302609
_cell_angle_gamma                 90.192088
_cell_volume                      1778.21643565

loop_
_atom_site_label
_atom_site_type_symbol
_atom_type_description
_atom_site_fract_x
_atom_site_fract_y
_atom_site_fract_z
_atom_type_partial_charge
C1    C     C_R   0.500495 0.737658 0.498511 0.845253
C2    C     C_R   0.343945 0.506603 0.777086 -0.308376
C3    C     C_R   0.412209 0.558003 0.147954 -0.220086
C4    C     C_R   0.404587 0.540938 0.227552 -0.168942
C5    C     C_R   0.656718 0.507632 0.222998 -0.192428
C6    C     C_R   0.664025 0.523913 0.143027 -0.156921
C7    C     C_R   0.541690 0.548379 0.105245 0.068602
C8    C     C_2   0.457501 0.489843 0.981110 -0.279395
C9    C     C_2   0.548498 0.557741 0.020116 0.432867
C10   C     C_R   0.526654 0.515308 0.265672 -0.018767
C11   C     C_R   0.378189 0.935971 0.512932 -0.021530
C12   C     C_R   0.482004 0.497805 0.649988 0.844399
C13   C     C_R   0.501058 0.870903 0.491862 -0.161883
C14   C     C_R   0.620948 0.936106 0.461494 0.486032
C15   C     C_R   0.616872 0.065902 0.459740 -0.322538
C16   C     C_R   0.498690 0.129456 0.491655 -0.115082
C17   C     C_R   0.377294 0.063030 0.513329 0.033693
C18   C     C_3   0.283521 0.070001 0.585957 0.361514
C19   C     C_3   0.284567 0.929141 0.585618 -0.495804
C20   C     C_R   0.932853 0.437071 0.444073 0.181787
C21   C     C_R   0.918823 0.572373 0.551289 0.574566
C22   C     C_R   0.069734 0.573051 0.549881 -0.213487
C23   C     C_R   0.499825 0.262459 0.498440 0.861006
C24   C     C_R   0.080060 0.437542 0.443862 0.249127
C25   C     C_3   0.088591 0.302573 0.426382 -0.487496
C26   C     C_3   0.929460 0.301483 0.427930 -0.512620
C27   C     C_R   0.517953 0.502608 0.349994 0.775368
C28   C     C_R   0.473258 0.491785 0.734561 -0.088608
C29   C     C_R   0.595145 0.469436 0.773331 -0.223284
C30   C     C_R   0.589013 0.465760 0.853536 -0.157633
C31   C     C_R   0.461513 0.486920 0.896340 0.108639
C32   C     C_R   0.337686 0.505925 0.858199 0.506816
Cu1   Cu    Cu3+1 0.359330 0.500020 0.500000 0.942153
Cu2   Cu    Cu3+1 0.640670 0.499980 0.500000 1.005476
H1    H     H_    0.695423 0.454028 0.741749 0.171796
H2    H     H_    0.764495 0.515610 0.110426 0.153860
H3    H     H_    0.706476 0.116506 0.434998 0.160638
H4    H     H_    0.179580 0.111565 0.575481 0.050568
H5    H     H_    0.337685 0.887764 0.634659 0.207901
H6    H     H_    0.180417 0.888088 0.575006 0.149697
H7    H     H_    0.124558 0.631343 0.589092 0.154138
H8    H     H_    0.139755 0.283473 0.367933 0.194272
H9    H     H_    0.303214 0.549054 0.259214 0.152592
H10   H     H_    0.129874 0.248331 0.474076 0.204842
H11   H     H_    0.888239 0.279815 0.370661 0.196634
H12   H     H_    0.881318 0.248310 0.477618 0.208343
H13   H     H_    0.752372 0.488556 0.251248 0.150836
H14   H     H_    0.317022 0.578499 0.119592 0.137078
H15   H     H_    0.248213 0.520235 0.747760 0.161016
H16   H     H_    0.373873 0.438292 0.012205 0.146665
H17   H     H_    0.684151 0.446517 0.882233 0.185768
N1    N     N_R   0.852130 0.499070 0.499500 -0.224219
N2    N     N_R   0.148040 0.499110 0.499500 -0.206391
O1    O     O_R   0.381190 0.680360 0.500000 -0.591418
O2    O     O_R   0.618770 0.680320 0.499990 -0.500116
O3    O     O_R   0.367430 0.500040 0.613600 -0.595470
O4    O     O_R   0.605020 0.500000 0.613590 -0.545121
O5    O     O_R   0.381230 0.319680 0.500010 -0.586012
O6    O     O_R   0.618810 0.319640 0.500000 -0.595811
O7    O     O_R   0.394980 0.500000 0.386410 -0.591146
O8    O     O_R   0.632570 0.499960 0.386400 -0.582430
O9    O     O_3   0.737665 0.872529 0.430350 -0.566184
C33   C     C_3   0.854930 0.899803 0.473479 -0.260076
H18   H     H_    0.938296 0.830919 0.458067 0.183767
H19   H     H_    0.829413 0.893049 0.537144 0.177800
H20   H     H_    0.898753 0.992580 0.458587 0.139795
O10   O     O_3   0.355615 0.121035 0.647751 -0.557051
C34   C     C_3   0.257480 0.162219 0.706643 -0.306419
H21   H     H_    0.186095 0.085953 0.727250 0.151264
H22   H     H_    0.195965 0.241661 0.686407 0.163764
H23   H     H_    0.315360 0.194983 0.756590 0.195749
O11   O     O_3   0.836104 0.648692 0.600539 -0.547022
C35   C     C_3   0.889890 0.661874 0.674360 -0.391446
H24   H     H_    0.972266 0.734843 0.673370 0.150283
H25   H     H_    0.930086 0.572993 0.696369 0.153339
H26   H     H_    0.803330 0.692705 0.715941 0.210173
O12   O     O_3   0.654833 0.624090 0.979953 -0.581547
C36   C     C_3   0.661142 0.745650 0.009823 -0.317636
H27   H     H_    0.709671 0.747336 0.066536 0.171164
H28   H     H_    0.555590 0.789983 0.014979 0.156749
H29   H     H_    0.728923 0.801921 0.969026 0.182813
O13   O     O_3   0.210237 0.519075 0.900338 -0.589258
C37   C     C_3   0.171398 0.644824 0.900516 -0.338740
H30   H     H_    0.148759 0.675992 0.841425 0.155662
H31   H     H_    0.253518 0.704632 0.924744 0.160254
H32   H     H_    0.073609 0.656239 0.938224 0.201875

loop_
_geom_bond_atom_site_label_1
_geom_bond_atom_site_label_2
_ccdc_geom_bond_type
C10   C27   S    
C23   O5    A    
C30   H17   S    
C33   H19   S    
Cu1   O5    S    
C35   H24   S    
O12   C36   S    
C23   O6    A    
C5    H13   S    
C11   C19   S    
O9    C33   S    
C12   C28   S    
C28   C29   A    
C3    C7    A    
C27   O7    A    
C5    C6    A    
C36   H28   S    
C22   H7    S    
C15   C16   A    
C14   O9    S    
C3    H14   S    
C2    C32   A    
C18   C19   S    
C15   H3    S    
C27   O8    A    
C26   H11   S    
C34   H21   S    
C31   C32   A    
C8    C9    D    
Cu2   O4    S    
Cu1   O3    S    
C33   H20   S    
Cu2   O2    S    
C13   C14   A    
C35   H25   S    
C25   H10   S    
C25   C26   S    
C17   C18   S    
C22   N2    A    
Cu1   N2    S    
C21   O11   S    
O10   C34   S    
C20   C24   A    
C24   C25   S    
C18   O10   S    
C36   H27   S    
C16   C17   A    
C24   N2    A    
Cu2   O8    S    
C1    O1    A    
C29   C30   A    
C2    H15   S    
C37   H30   S    
Cu1   Cu2   S    
C9    O12   S    
C12   O3    A    
C19   H5    S    
C12   O4    A    
C37   H31   S    
C16   C23   S    
Cu2   O6    S    
C35   H26   S    
C1    C13   S    
C4    C10   A    
C3    C4    A    
C8    H16   S    
Cu1   O1    S    
C7    C9    S    
C11   C17   A    
C8    C31   S    
O11   C35   S    
C25   H8    S    
C6    C7    A    
C4    H9    S    
Cu1   O7    S    
C32   O13   S    
C29   H1    S    
Cu2   N1    S    
C1    O2    A    
C5    C10   A    
C20   N1    A    
C11   C13   A    
C36   H29   S    
C30   C31   A    
C20   C26   S    
C34   H23   S    
C6    H2    S    
C18   H4    S    
C19   H6    S    
C26   H12   S    
C33   H18   S    
C37   H32   S    
C34   H22   S    
O13   C37   S    
C14   C15   A    
C2    C28   A    
C21   C22   A    
C21   N1    A    
