data_mof_unit_21619.cif
_audit_creation_date              2012-12-11T14:07:47-0500
_audit_creation_method            fapswitch 2.2
_symmetry_space_group_name_H-M    P1
_symmetry_Int_Tables_number       1
_space_group_crystal_system       triclinic
_cell_length_a                    19.734041
_cell_length_b                    16.977259
_cell_length_c                    15.499254
_cell_angle_alpha                 90.225057
_cell_angle_beta                  53.63545
_cell_angle_gamma                 89.846366
_cell_volume                      4181.37576971

loop_
_atom_site_label
_atom_site_type_symbol
_atom_type_description
_atom_site_fract_x
_atom_site_fract_y
_atom_site_fract_z
_atom_type_partial_charge
C1    C     C_R   0.338970 0.173488 0.051154 -0.115561
C2    C     C_R   0.652429 0.816179 0.070710 0.159397
C3    C     C_3   0.974272 0.793483 0.085880 -0.388874
C4    C     C_R   0.210627 0.646158 0.980921 0.171039
C5    C     C_R   0.152418 0.316175 0.070725 0.159334
C6    C     C_R   0.690189 0.859811 0.681382 0.049812
C7    C     C_R   0.614548 0.183457 0.697682 0.129890
C8    C     C_R   0.190179 0.359803 0.681393 0.049906
C9    C     C_R   0.114567 0.683452 0.697680 0.129878
C10   C     C_3   0.345810 0.199366 0.491704 -0.509601
C11   C     C_3   0.244073 0.856639 0.521269 -0.514424
C12   C     C_3   0.846064 0.699535 0.491578 -0.509566
C13   C     C_R   0.374147 0.802850 0.995225 -0.058797
C14   C     C_3   0.743930 0.356713 0.521290 -0.514412
C15   C     C_3   0.292244 0.247330 0.595485 -0.395726
C16   C     C_3   0.185294 0.812463 0.625606 -0.391539
C17   C     C_3   0.792482 0.747503 0.595367 -0.395703
C18   C     C_3   0.685152 0.312529 0.625630 -0.391549
C19   C     C_3   0.367327 0.318705 0.385541 -0.378376
C20   C     C_3   0.304316 0.729459 0.421036 -0.411427
C21   C     C_3   0.867249 0.818798 0.385465 -0.378296
C22   C     C_3   0.804321 0.229545 0.421090 -0.411451
C23   C     C_3   0.740758 0.726592 0.452538 0.358290
C24   C     C_R   0.838963 0.673478 0.051167 -0.115551
C25   C     C_3   0.674829 0.292838 0.444997 0.355399
C26   C     C_3   0.240688 0.226748 0.452441 0.358242
C27   C     C_3   0.174848 0.792906 0.445051 0.355444
C28   C     C_3   0.335946 0.232335 0.405611 0.214097
C29   C     C_3   0.261866 0.807345 0.424283 0.233369
C30   C     C_3   0.836031 0.732369 0.405573 0.214030
C31   C     C_3   0.761815 0.307375 0.424286 0.233356
C32   C     C_3   0.744539 0.813462 0.582639 0.230183
C33   C     C_3   0.663503 0.231306 0.601772 0.228835
C34   C     C_3   0.244495 0.313441 0.582661 0.230111
C35   C     C_R   0.874143 0.302851 0.995230 -0.058808
C36   C     C_3   0.163540 0.731291 0.601769 0.228889
C37   C     C_3   0.811108 0.867340 0.489277 -0.552238
C38   C     C_3   0.746694 0.184821 0.524317 -0.544710
C39   C     C_3   0.311211 0.367263 0.489348 -0.552158
C40   C     C_3   0.246680 0.684744 0.524269 -0.544741
C41   C     C_R   0.360536 0.818490 0.220414 0.693706
C42   C     C_R   0.396969 0.198922 0.211370 0.690784
C43   C     C_R   0.860520 0.318502 0.220412 0.693650
C44   C     C_R   0.897014 0.698935 0.211345 0.690761
C45   C     C_3   0.686023 0.776172 0.556671 0.358685
C46   C     C_R   0.634294 0.894703 0.103872 -0.149312
C47   C     C_3   0.616326 0.243675 0.550277 0.347310
C48   C     C_3   0.185982 0.276340 0.556565 0.358773
C49   C     C_3   0.116325 0.743762 0.550343 0.347249
C50   C     C_2   0.284146 0.684948 0.960064 -0.196354
C51   C     C_2   0.192732 0.259471 0.096591 -0.197514
C52   C     C_2   0.784143 0.184950 0.960067 -0.196243
C53   C     C_2   0.692755 0.759481 0.096562 -0.197584
C54   C     C_2   0.810353 0.252900 0.905909 -0.234024
C55   C     C_2   0.711199 0.686586 0.053902 -0.190513
C56   C     C_2   0.310357 0.752898 0.905904 -0.233963
C57   C     C_R   0.669534 0.082492 0.050209 -0.152737
C58   C     C_2   0.211200 0.186586 0.053898 -0.190497
C59   C     C_R   0.365161 0.889032 0.897090 -0.168450
C60   C     C_R   0.329222 0.086346 0.952484 -0.136786
C61   C     C_R   0.865161 0.389033 0.897091 -0.168470
C62   C     C_R   0.829221 0.586344 0.952484 -0.136840
C63   C     C_R   0.404803 0.106064 0.304775 -0.283166
C64   C     C_R   0.364765 0.915895 0.315136 -0.266071
C65   C     C_R   0.904845 0.606083 0.304752 -0.283116
C66   C     C_R   0.864732 0.415918 0.315132 -0.266022
C67   C     C_R   0.286723 0.146904 0.026427 0.143100
C68   C     C_R   0.134288 0.394701 0.103881 -0.149305
C69   C     C_R   0.346403 0.812980 0.933516 0.132038
C70   C     C_R   0.786720 0.646898 0.026433 0.143125
C71   C     C_R   0.846400 0.312981 0.933520 0.132134
C72   C     C_R   0.321363 0.848977 0.323372 -0.083368
C73   C     C_R   0.383761 0.183527 0.307750 -0.077229
C74   C     C_R   0.821318 0.349007 0.323368 -0.083368
C75   C     C_R   0.883856 0.683561 0.307702 -0.077148
C76   C     C_R   0.660347 0.177165 0.954129 -0.150357
C77   C     C_R   0.625347 0.800222 0.008903 -0.162538
C78   C     C_R   0.160349 0.677163 0.954126 -0.150357
C79   C     C_R   0.169535 0.582490 0.050208 -0.152760
C80   C     C_R   0.125340 0.300221 0.008912 -0.162476
C81   C     C_R   0.649572 0.828083 0.782967 -0.038973
C82   C     C_R   0.603188 0.198586 0.792416 -0.159849
C83   C     C_R   0.149568 0.328083 0.782977 -0.039163
C84   C     C_R   0.103195 0.698584 0.792417 -0.159803
C85   C     C_R   0.593206 0.106482 0.697378 -0.165305
C86   C     C_R   0.642008 0.922105 0.687092 -0.157971
C87   C     C_R   0.093205 0.606483 0.697381 -0.165428
C88   C     C_R   0.142021 0.422117 0.687100 -0.157792
C89   C     C_3   0.706145 0.812111 0.359774 -0.188078
C90   C     C_R   0.710625 0.146160 0.980924 0.171008
C91   C     C_3   0.674326 0.187422 0.340973 -0.132359
C92   C     C_3   0.206363 0.312478 0.359552 -0.187839
C93   C     C_3   0.174185 0.687547 0.341080 -0.132527
C94   C     C_3   0.548976 0.727855 0.654722 -0.243774
C95   C     C_3   0.480598 0.270403 0.604260 -0.262779
C96   C     C_3   0.048830 0.228298 0.654483 -0.243733
C97   C     C_3   0.980571 0.770602 0.604498 -0.262853
C98   C     C_3   0.429997 0.703180 0.139970 -0.430336
C99   C     C_3   0.474306 0.293487 0.085972 -0.388906
C100  C     C_3   0.930010 0.203196 0.139977 -0.430274
H1    H     H_    0.327885 0.221427 0.103156 0.165147
H2    H     H_    0.627046 0.347902 0.681211 0.198896
H3    H     H_    0.975468 0.227079 0.058330 0.161499
H4    H     H_    0.919878 0.140313 0.131252 0.187673
H5    H     H_    0.990229 0.760427 0.014295 0.171280
H6    H     H_    0.023367 0.785446 0.099366 0.156293
H7    H     H_    0.973249 0.856880 0.069683 0.185556
H8    H     H_    0.304369 0.665682 0.008083 0.130313
H9    H     H_    0.220332 0.283284 0.133891 0.124798
H10   H     H_    0.804367 0.165683 0.008086 0.130299
H11   H     H_    0.720382 0.783309 0.133820 0.124712
H12   H     H_    0.670781 0.228036 0.906361 0.091027
H13   H     H_    0.248034 0.206247 0.660830 0.185721
H14   H     H_    0.620788 0.743849 0.980435 0.082983
H15   H     H_    0.170784 0.728034 0.906357 0.091021
H16   H     H_    0.120774 0.243847 0.980452 0.082961
H17   H     H_    0.127232 0.847880 0.681226 0.198876
H18   H     H_    0.332680 0.273461 0.615701 0.154722
H19   H     H_    0.217939 0.804872 0.664003 0.157106
H20   H     H_    0.832934 0.773785 0.615462 0.154749
H21   H     H_    0.717765 0.305016 0.664077 0.157096
H22   H     H_    0.433453 0.319688 0.359295 0.177826
H23   H     H_    0.364654 0.742141 0.409266 0.173720
H24   H     H_    0.933399 0.819924 0.359123 0.177854
H25   H     H_    0.383307 0.747071 0.018956 0.141190
H26   H     H_    0.864622 0.242306 0.409381 0.173740
H27   H     H_    0.850801 0.895650 0.509682 0.201814
H28   H     H_    0.779428 0.174759 0.562250 0.203117
H29   H     H_    0.350908 0.395433 0.509841 0.201796
H30   H     H_    0.279439 0.674611 0.562154 0.203130
H31   H     H_    0.724083 0.664031 0.477945 0.107883
H32   H     H_    0.645188 0.352319 0.463175 0.101818
H33   H     H_    0.223879 0.164199 0.477833 0.107860
H34   H     H_    0.145264 0.852415 0.463232 0.101857
H35   H     H_    0.654602 0.826080 0.546983 0.016792
H36   H     H_    0.827866 0.721403 0.103192 0.165128
H37   H     H_    0.602711 0.183900 0.535301 0.005260
H38   H     H_    0.154699 0.326340 0.546805 0.016705
H39   H     H_    0.102622 0.684015 0.535399 0.005273
H40   H     H_    0.368374 0.347595 0.321144 0.215047
H41   H     H_    0.319920 0.690180 0.354772 0.213835
H42   H     H_    0.868166 0.847624 0.321130 0.215136
H43   H     H_    0.820009 0.190245 0.354805 0.213761
H44   H     H_    0.780542 0.915511 0.475293 0.155584
H45   H     H_    0.734355 0.125782 0.504857 0.158524
H46   H     H_    0.280768 0.415535 0.475321 0.155624
H47   H     H_    0.883295 0.247074 0.018973 0.141188
H48   H     H_    0.234271 0.625734 0.504821 0.158491
H49   H     H_    0.792550 0.270839 0.854844 0.128314
H50   H     H_    0.681786 0.661878 0.019214 0.120415
H51   H     H_    0.292554 0.770836 0.854839 0.128324
H52   H     H_    0.181806 0.161885 0.019181 0.120405
H53   H     H_    0.361749 0.914583 0.835920 0.089623
H54   H     H_    0.308331 0.052413 0.913183 0.093705
H55   H     H_    0.861749 0.414582 0.835920 0.089600
H56   H     H_    0.808333 0.552414 0.913178 0.093709
H57   H     H_    0.412703 0.075527 0.359242 0.131301
H58   H     H_    0.324186 0.137287 0.511820 0.163835
H59   H     H_    0.355856 0.953058 0.377673 0.141997
H60   H     H_    0.912736 0.575539 0.359225 0.131247
H61   H     H_    0.855803 0.453095 0.377671 0.142013
H62   H     H_    0.667178 0.777240 0.807105 0.081829
H63   H     H_    0.605756 0.254688 0.823451 0.081156
H64   H     H_    0.167175 0.277245 0.807124 0.081728
H65   H     H_    0.105771 0.754685 0.823450 0.081157
H66   H     H_    0.588567 0.077355 0.638920 0.075315
H67   H     H_    0.652050 0.956203 0.621855 0.084835
H68   H     H_    0.088562 0.577363 0.638922 0.075321
H69   H     H_    0.215561 0.914799 0.526501 0.174402
H70   H     H_    0.152085 0.456221 0.621855 0.084757
H71   H     H_    0.638456 0.921586 0.163955 0.082998
H72   H     H_    0.690869 0.048957 0.089104 0.093589
H73   H     H_    0.138446 0.421584 0.163966 0.082988
H74   H     H_    0.190870 0.548955 0.089102 0.093594
H75   H     H_    0.412980 0.200542 0.461423 0.185281
H76   H     H_    0.303599 0.867624 0.512257 0.186533
H77   H     H_    0.913257 0.700838 0.461192 0.185297
H78   H     H_    0.803421 0.367765 0.512337 0.186524
H79   H     H_    0.738672 0.858736 0.371942 0.112127
H80   H     H_    0.824557 0.637430 0.511740 0.163787
H81   H     H_    0.637149 0.822763 0.412969 0.113020
H82   H     H_    0.726973 0.817221 0.276180 0.175210
H83   H     H_    0.606965 0.170749 0.387879 0.089910
H84   H     H_    0.708327 0.150724 0.363048 0.108591
H85   H     H_    0.702385 0.174389 0.255721 0.179648
H86   H     H_    0.238951 0.359000 0.371774 0.112141
H87   H     H_    0.137387 0.323248 0.412685 0.112883
H88   H     H_    0.227257 0.317639 0.275933 0.175251
H89   H     H_    0.106799 0.670962 0.387992 0.089981
H90   H     H_    0.208127 0.650782 0.363182 0.108507
H91   H     H_    0.715382 0.414842 0.526483 0.174431
H92   H     H_    0.202232 0.674513 0.255833 0.179669
H93   H     H_    0.558419 0.710870 0.578853 0.153143
H94   H     H_    0.518136 0.786714 0.682749 0.141692
H95   H     H_    0.505937 0.684363 0.716676 0.178106
H96   H     H_    0.460314 0.207830 0.620775 0.135348
H97   H     H_    0.504947 0.286106 0.520943 0.154214
H98   H     H_    0.424441 0.307693 0.659552 0.173043
H99   H     H_    0.058297 0.211406 0.578572 0.153082
H100  H     H_    0.018112 0.287207 0.682505 0.141629
H101  H     H_    0.005674 0.184840 0.716403 0.178178
H102  H     H_    0.748402 0.706394 0.660758 0.185633
H103  H     H_    0.960156 0.708070 0.621224 0.135469
H104  H     H_    0.004897 0.786180 0.521151 0.154142
H105  H     H_    0.924502 0.808013 0.659717 0.173076
H106  H     H_    0.457486 0.705586 0.185301 0.156827
H107  H     H_    0.475473 0.727074 0.058334 0.161507
H108  H     H_    0.419854 0.640306 0.131220 0.187686
H109  H     H_    0.490339 0.260424 0.014356 0.171254
H110  H     H_    0.523336 0.285460 0.099575 0.156322
H111  H     H_    0.473299 0.356882 0.069751 0.185535
H112  H     H_    0.957515 0.205636 0.185286 0.156831
N1    N     N_R   0.408680 0.130160 0.995800 -0.052253
N2    N     N_R   0.403730 0.078230 0.935950 -0.038590
N3    N     N_R   0.903730 0.421770 0.935950 -0.041617
N4    N     N_R   0.903730 0.578230 0.935950 -0.038592
N5    N     N_R   0.426630 0.075970 0.212960 -0.053198
N6    N     N_R   0.426630 0.924030 0.212960 -0.060165
N7    N     N_R   0.926630 0.575970 0.212960 -0.053182
N8    N     N_R   0.926630 0.424030 0.212960 -0.060176
N9    N     N_R   0.591320 0.134600 0.004200 -0.059282
N10   N     N_R   0.591320 0.865400 0.004200 -0.050826
N11   N     N_R   0.091320 0.634600 0.004200 -0.059292
N12   N     N_R   0.408680 0.869840 0.995800 -0.057983
N13   N     N_R   0.091320 0.365400 0.004200 -0.050819
N14   N     N_R   0.578320 0.867660 0.846880 -0.047696
N15   N     N_R   0.578320 0.132340 0.846880 -0.040136
N16   N     N_R   0.078320 0.367660 0.846880 -0.047643
N17   N     N_R   0.078320 0.632340 0.846880 -0.040141
N18   N     N_R   0.573370 0.074390 0.787040 -0.032392
N19   N     N_R   0.573370 0.925610 0.787040 -0.038467
N20   N     N_R   0.073370 0.574390 0.787040 -0.032388
N21   N     N_R   0.073370 0.425610 0.787040 -0.038451
N22   N     N_R   0.596270 0.927870 0.064040 -0.033483
N23   N     N_R   0.908680 0.630160 0.995800 -0.052259
N24   N     N_R   0.596270 0.072130 0.064040 -0.038815
N25   N     N_R   0.096270 0.427870 0.064040 -0.033482
N26   N     N_R   0.096270 0.572130 0.064040 -0.038823
N27   N     N_R   0.908680 0.369840 0.995800 -0.057997
N28   N     N_R   0.421680 0.867580 0.153120 -0.114009
N29   N     N_R   0.421680 0.132420 0.153120 -0.107356
N30   N     N_R   0.921680 0.367580 0.153120 -0.114016
N31   N     N_R   0.921680 0.632420 0.153120 -0.107303
N32   N     N_R   0.403730 0.921770 0.935950 -0.041622
Ni1   Ni    Ni4+2 0.500000 0.131190 0.000000 0.209498
Ni2   Ni    Ni4+2 0.500000 0.868810 0.000000 0.206102
Ni3   Ni    Ni4+2 1.000000 0.631190 0.000000 0.209487
Ni4   Ni    Ni4+2 0.000000 0.368810 0.000000 0.206114
Ni5   Ni    Ni4+2 0.488650 0.000000 0.862740 0.206535
Ni6   Ni    Ni4+2 0.988650 0.500000 0.862740 0.206523
Ni7   Ni    Ni4+2 0.511350 0.000000 0.137260 0.194307
Ni8   Ni    Ni4+2 0.011350 0.500000 0.137260 0.194311
O1    O     O_3   0.723758 0.734854 0.375162 -0.625667
O2    O     O_3   0.393935 0.272778 0.176600 -0.653884
O3    O     O_3   0.851803 0.243121 0.194488 -0.624401
O4    O     O_3   0.893935 0.772777 0.176582 -0.654031
O5    O     O_3   0.681620 0.268995 0.351526 -0.612391
O6    O     O_3   0.223801 0.235156 0.374973 -0.625639
O7    O     O_3   0.181592 0.769101 0.351600 -0.612393
O8    O     O_3   0.625619 0.727008 0.642841 -0.631408
O9    O     O_3   0.540312 0.285415 0.624299 -0.620603
O10   O     O_3   0.125432 0.227233 0.642699 -0.631338
O11   O     O_3   0.040372 0.785575 0.624396 -0.620595
O12   O     O_3   0.351801 0.743123 0.194475 -0.624416

loop_
_geom_bond_atom_site_label_1
_geom_bond_atom_site_label_2
_ccdc_geom_bond_type
C25   C31   S    
C96   H99   S    
C6    C32   S    
C83   H64   S    
C19   H22   S    
C95   H96   S    
C23   C45   S    
C37   H44   S    
C91   H83   S    
C27   C29   S    
C8    C83   A    
N13   N25   A    
C81   H62   S    
C14   C18   S    
C52   C90   S    
C78   H15   S    
N6    N28   A    
C14   C31   S    
C23   O1    S    
C64   H59   S    
C49   O11   S    
C92   H87   S    
C24   C70   A    
C96   H101  S    
C99   H111  S    
C93   H90   S    
C47   O9    S    
C88   N21   A    
C84   N17   A    
C11   H76   S    
N28   Ni2   S    
C13   C69   A    
C45   O8    S    
N29   Ni1   S    
C86   N19   A    
C46   N22   A    
C21   H42   S    
N17   N20   A    
C68   N25   A    
C65   H60   S    
C20   C40   S    
C92   H86   S    
C22   H26   S    
N15   Ni1   S    
C82   H63   S    
C42   O2    S    
C43   O3    S    
C87   N20   A    
C94   H93   S    
C21   C30   S    
C100  H4    S    
C46   H71   S    
C62   C70   A    
C21   C37   S    
C18   H2    S    
C60   N2    A    
C3    O4    S    
C20   H23   S    
C66   N8    A    
C84   H65   S    
C17   H20   S    
C93   O7    S    
C94   O8    S    
C54   C71   S    
C80   H16   S    
C60   C67   A    
N7    N31   A    
C19   H40   S    
C26   O6    S    
C22   H43   S    
N3    Ni6   S    
C15   H13   S    
N25   Ni8   S    
C80   N13   A    
N18   Ni5   S    
C50   C56   D    
C10   H58   S    
C15   C34   S    
C7    C85   A    
N19   Ni5   S    
C26   C48   S    
C78   N11   A    
C20   C29   S    
C57   H72   S    
C13   H25   S    
C53   H11   S    
C43   C74   A    
C89   H79   S    
C12   H77   S    
C91   H85   S    
C35   C71   A    
C43   N30   A    
C6    C81   A    
C89   O1    S    
C91   H84   S    
C50   H8    S    
C57   C90   A    
C7    C33   S    
C79   H74   S    
C98   H108  S    
C97   H103  S    
C5    C68   A    
C5    C80   A    
C28   C73   S    
C61   H55   S    
N23   Ni3   S    
C29   C72   S    
C58   H52   S    
N21   Ni6   S    
N14   Ni2   S    
C54   H49   S    
N5    N29   A    
C83   N16   A    
C53   C55   D    
N6    Ni7   S    
C59   H53   S    
C45   H35   S    
C88   H70   S    
C22   C31   S    
C40   H48   S    
C27   C49   S    
C94   H95   S    
C23   C30   S    
C36   C40   S    
C35   N27   A    
C4    C79   A    
N32   Ni5   S    
C16   H19   S    
C5    C51   S    
C17   C32   S    
C65   N7    A    
N12   N32   A    
C31   C74   S    
C8    C34   S    
C63   C73   A    
C3    H7    S    
N1    N2    A    
N8    N30   A    
C100  H112  S    
C100  H3    S    
C2    C46   A    
C34   C39   S    
C66   H61   S    
C4    C50   S    
C59   N32   A    
C8    C88   A    
C89   H81   S    
C12   C17   S    
C44   C75   A    
C38   H45   S    
C4    C78   A    
C91   O5    S    
C24   H36   S    
C9    C36   S    
N30   Ni4   S    
C11   C16   S    
C77   N10   A    
C64   N6    A    
C92   O6    S    
C87   H68   S    
C3    H5    S    
C18   H21   S    
C52   H10   S    
C76   H12   S    
C47   H37   S    
N2    Ni5   S    
C23   H31   S    
C51   C58   D    
C35   H47   S    
C32   C37   S    
C32   C45   S    
C56   H51   S    
N1    Ni1   S    
C19   C28   S    
N16   N21   A    
C14   H78   S    
C19   C39   S    
C59   C69   A    
C41   C72   A    
C14   H91   S    
N5    Ni7   S    
N12   Ni2   S    
C12   H80   S    
C11   H69   S    
N31   Ni3   S    
N7    Ni8   S    
N8    Ni8   S    
N9    N24   A    
C1    N1    A    
C33   C47   S    
C98   H107  S    
C34   C48   S    
N15   N18   A    
C85   H66   S    
C97   H104  S    
C77   H14   S    
C100  O3    S    
N4    Ni6   S    
C1    H1    S    
C57   N24   A    
C55   H50   S    
C99   H109  S    
C93   H92   S    
C10   C28   S    
C10   H75   S    
C96   H100  S    
C40   H30   S    
C25   C47   S    
N10   N22   A    
C42   C73   A    
C96   O10   S    
C12   C30   S    
C94   H94   S    
C27   H34   S    
C62   N4    A    
C20   H41   S    
C41   O12   S    
C44   O4    S    
C85   N18   A    
C95   H97   S    
C2    C53   S    
C65   C75   A    
N22   Ni7   S    
C38   H28   S    
C68   H73   S    
C92   H88   S    
N16   Ni4   S    
C93   H89   S    
C76   N9    A    
C99   O2    S    
C27   O7    S    
C82   N15   A    
N11   N26   A    
C42   N29   A    
C26   C28   S    
C33   C38   S    
C6    C86   A    
C15   H18   S    
C48   H38   S    
C10   C15   S    
N11   Ni3   S    
C89   H82   S    
C63   N5    A    
C21   H24   S    
C49   H39   S    
C3    H6    S    
C25   O5    S    
C30   C75   S    
C24   N23   A    
C16   H17   S    
C9    C87   A    
C13   N12   A    
N10   Ni2   S    
C61   C71   A    
C39   H29   S    
N9    Ni1   S    
N13   Ni4   S    
C95   H98   S    
C2    C77   A    
C39   H46   S    
C48   O10   S    
C81   N14   A    
C1    C67   A    
C62   H56   S    
C52   C54   D    
N20   Ni6   S    
C64   C72   A    
C22   C38   S    
C17   H102  S    
C18   C33   S    
C60   H54   S    
C86   H67   S    
C55   C70   S    
C97   O11   S    
C9    C84   A    
N26   Ni8   S    
N17   Ni3   S    
C98   O12   S    
C58   C67   S    
C95   O9    S    
C7    C82   A    
N3    N27   A    
C11   C29   S    
C51   H9    S    
C56   C69   S    
C98   H106  S    
C26   H33   S    
N4    N23   A    
C63   H57   S    
N27   Ni4   S    
C61   N3    A    
N24   Ni7   S    
C79   N26   A    
C97   H105  S    
C25   H32   S    
C99   H110  S    
C16   C36   S    
C36   C49   S    
N14   N19   A    
C44   N31   A    
C76   C90   A    
C37   H27   S    
C41   N28   A    
C66   C74   A    
