data_mof_unit_7244.cif
_audit_creation_date              2012-12-10T16:52:05-0500
_audit_creation_method            fapswitch 2.2
_symmetry_space_group_name_H-M    P1
_symmetry_Int_Tables_number       1
_space_group_crystal_system       triclinic
_cell_length_a                    7.785799
_cell_length_b                    8.576791
_cell_length_c                    14.860839
_cell_angle_alpha                 91.780732
_cell_angle_beta                  86.983895
_cell_angle_gamma                 93.132907
_cell_volume                      989.113282548

loop_
_atom_site_label
_atom_site_type_symbol
_atom_type_description
_atom_site_fract_x
_atom_site_fract_y
_atom_site_fract_z
_atom_type_partial_charge
C1    C     C_R   0.545299 0.794492 0.498335 0.967282
C2    C     C_R   0.454773 0.205538 0.502413 0.966387
C3    C     C_R   0.699920 0.727266 0.949838 -0.273745
C4    C     C_R   0.400129 0.219351 0.048347 -0.273943
C5    C     C_2   0.569422 0.957712 0.497802 -0.359249
C6    C     C_2   0.430770 0.042415 0.504350 -0.355006
C7    C     C_R   0.504042 0.500203 0.672762 0.882740
C8    C     C_R   0.496071 0.498218 0.327305 0.897039
C9    C     C_R   0.438422 0.364858 0.186704 -0.274879
C10   C     C_R   0.606883 0.606095 0.812359 -0.276475
C11   C     C_R   0.490784 0.501550 0.231816 -0.088782
C12   C     C_R   0.514122 0.487826 0.767802 -0.087482
C13   C     C_R   0.560402 0.632695 0.186559 -0.066710
C14   C     C_R   0.442555 0.355398 0.811885 -0.074168
C15   C     C_R   0.597195 0.619932 0.092923 0.032674
C16   C     C_R   0.464639 0.343067 0.905087 0.038997
C17   C     C_R   0.529963 0.484179 0.046194 0.019483
C18   C     C_R   0.537212 0.476385 0.952007 0.018679
C19   C     C_R   0.452488 0.356931 0.093689 0.118297
C20   C     C_R   0.614421 0.603854 0.904717 0.110397
C21   C     C_R   0.698502 0.734555 0.043712 0.092924
C22   C     C_R   0.414649 0.206958 0.954448 0.091992
H1    H     H_    0.387956 0.264531 0.224474 0.144671
H2    H     H_    0.665759 0.703956 0.775171 0.139262
H3    H     H_    0.770247 0.817997 0.911587 0.147195
H4    H     H_    0.355130 0.118081 0.086633 0.144122
H5    H     H_    0.700813 0.007647 0.491293 0.181609
H6    H     H_    0.299380 0.992484 0.510886 0.183764
H7    H     H_    0.012895 0.382410 0.431645 0.192438
H8    H     H_    0.987103 0.617563 0.568372 0.192402
N1    N     N_2   0.950330 0.457950 0.475660 -0.172036
N2    N     N_2   0.049670 0.542050 0.524340 -0.171006
O1    O     O_R   0.389250 0.738570 0.505970 -0.614938
O2    O     O_R   0.610750 0.261430 0.494030 -0.615515
O3    O     O_R   0.678390 0.711620 0.490370 -0.631586
O4    O     O_R   0.321610 0.288380 0.509630 -0.625352
O5    O     O_R   0.355420 0.513510 0.639950 -0.611200
O6    O     O_R   0.644580 0.486490 0.360050 -0.612058
O7    O     O_R   0.644560 0.486560 0.624350 -0.624578
O8    O     O_R   0.355440 0.513440 0.375650 -0.625903
Zn1   Zn    Zn3+2 0.306940 0.517990 0.510420 0.957161
Zn2   Zn    Zn3+2 0.693060 0.482010 0.489580 0.953950
C23   C     C_1   0.570943 0.781111 0.236252 0.141409
N3    N     N_1   0.577991 0.898835 0.276485 -0.224829
C24   C     C_1   0.336198 0.243542 0.761145 0.162677
N4    N     N_1   0.251913 0.155885 0.719410 -0.211596
C25   C     C_3   0.826760 0.850722 0.085805 -0.409285
C26   C     C_3   0.770588 0.018984 0.081715 -0.344414
C27   C     C_3   0.889288 0.133708 0.132848 -0.838876
H9    H     H_    0.887784 0.103696 0.205064 0.268195
H10   H     H_    0.023046 0.131672 0.103353 0.249918
H11   H     H_    0.844314 0.253770 0.128263 0.260121
H12   H     H_    0.771151 0.054465 0.010408 0.215833
H13   H     H_    0.637904 0.025959 0.111803 0.240404
H14   H     H_    0.854249 0.820903 0.155358 0.214425
H15   H     H_    0.952122 0.840039 0.048410 0.194532
C28   C     C_3   0.403086 0.043005 0.913138 -0.416898
C29   C     C_3   0.216962 0.975963 0.913563 -0.339987
C30   C     C_3   0.206780 0.810887 0.872037 -0.844232
H16   H     H_    0.263670 0.810311 0.801890 0.272257
H17   H     H_    0.276425 0.731062 0.912880 0.267571
H18   H     H_    0.070297 0.766985 0.870604 0.244425
H19   H     H_    0.135301 0.051675 0.876707 0.239260
H20   H     H_    0.165558 0.972528 0.984158 0.212301
H21   H     H_    0.467111 0.036278 0.844865 0.204455
H22   H     H_    0.477433 0.966978 0.953994 0.203481

loop_
_geom_bond_atom_site_label_1
_geom_bond_atom_site_label_2
_ccdc_geom_bond_type
C26   H13   S    
C4    H4    S    
N2    Zn1   S    
O8    Zn1   S    
N1    Zn2   S    
O7    Zn2   S    
C4    C22   A    
C21   C25   S    
C18   C20   A    
N1    N2    D    
O2    Zn2   S    
C13   C23   S    
C28   H22   S    
C23   N3    T    
C27   H11   S    
O1    Zn1   S    
C2    O2    A    
C22   C28   S    
C13   C15   A    
C17   C18   A    
C7    O5    A    
C1    O1    A    
C30   H16   S    
H7    N1    S    
C3    C20   A    
C24   N4    T    
H8    N2    S    
C9    C11   A    
O4    Zn1   S    
C2    C6    S    
C10   C12   A    
C8    C11   S    
C1    C5    S    
C5    C6    D    
C16   C18   A    
C26   C27   S    
C17   C19   A    
C12   C14   A    
O6    Zn2   S    
C14   C24   S    
C28   C29   S    
C8    O6    A    
O5    Zn1   S    
C26   H12   S    
C14   C16   A    
C7    C12   S    
C30   H17   S    
C11   C13   A    
C3    C21   A    
C15   C21   A    
C3    H3    S    
C1    O3    A    
C25   H14   S    
C27   H9    S    
C2    O4    A    
C29   H19   S    
C15   C17   A    
O3    Zn2   S    
C7    O7    A    
C9    H1    S    
C30   H18   S    
C16   C22   A    
C8    O8    A    
C29   H20   S    
C10   H2    S    
C29   C30   S    
C5    H5    S    
C4    C19   A    
C10   C20   A    
C9    C19   A    
C6    H6    S    
C25   C26   S    
C28   H21   S    
C25   H15   S    
C27   H10   S    
