data_mof_unit_14702.cif
_audit_creation_date              2012-10-26T20:33:19-0400
_audit_creation_method            fapswitch 2.2
_symmetry_space_group_name_H-M    P1
_symmetry_Int_Tables_number       1
_space_group_crystal_system       triclinic
_cell_length_a                    17.659495
_cell_length_b                    10.908823
_cell_length_c                    9.534439
_cell_angle_alpha                 90.891107
_cell_angle_beta                  90.413742
_cell_angle_gamma                 93.316279
_cell_volume                      1833.39714311

loop_
_atom_site_label
_atom_site_type_symbol
_atom_type_description
_atom_site_fract_x
_atom_site_fract_y
_atom_site_fract_z
_atom_type_partial_charge
C1    C     C_R   0.499533 0.262450 0.498529 0.544157
C2    C     C_R   0.116943 0.553858 0.503834 -0.012014
C3    C     C_R   0.519953 0.067426 0.613510 -0.105844
C4    C     C_R   0.355398 0.502122 0.499671 0.558475
C5    C     C_R   0.500887 0.129486 0.493502 -0.035012
C6    C     C_R   0.482713 0.061100 0.368882 0.239818
C7    C     C_R   0.478698 0.930834 0.370447 0.242611
C8    C     C_R   0.495423 0.870756 0.497123 -0.026447
C9    C     C_R   0.516888 0.941212 0.615503 -0.055682
C10   C     C_3   0.489279 0.942331 0.764892 0.162368
C11   C     C_3   0.493851 0.081918 0.761331 -0.203751
C12   C     C_R   0.887198 0.527673 0.511480 -0.057832
C13   C     C_R   0.564139 0.535730 0.075297 0.115211
C14   C     C_R   0.441562 0.444663 0.073431 0.008036
C15   C     C_R   0.441294 0.443202 0.923325 0.356521
C16   C     C_R   0.497114 0.737374 0.500222 0.554493
C17   C     C_R   0.563744 0.538082 0.928178 0.195310
C18   C     C_3   0.604788 0.661637 0.929051 0.126860
C19   C     C_3   0.608882 0.654893 0.088355 -0.242994
C20   C     C_R   0.644682 0.494867 0.500393 0.544064
C21   C     C_R   0.847277 0.504508 0.634737 -0.171982
C22   C     C_R   0.768671 0.481855 0.630883 0.230650
C23   C     C_1   0.968129 0.546160 0.516991 0.021388
C24   C     C_R   0.728608 0.489689 0.502219 -0.057379
C25   C     C_R   0.770640 0.495123 0.375999 0.209560
C26   C     C_R   0.849367 0.522114 0.381455 0.288705
C27   C     C_3   0.475358 0.889032 0.128826 -0.056041
C28   C     C_3   0.359356 0.904445 0.691384 -0.102822
C29   C     C_3   0.312397 0.398779 0.881561 -0.003672
C30   C     C_3   0.269021 0.285365 0.939032 -0.279115
C31   C     C_3   0.183495 0.297944 0.933140 -0.455804
C32   C     C_3   0.709740 0.778235 0.851419 0.016648
C33   C     C_3   0.699823 0.818447 0.699649 -0.248988
C34   C     C_1   0.036164 0.555052 0.515277 0.010363
C35   C     C_3   0.723400 0.954172 0.682445 -0.500773
C36   C     C_3   0.719397 0.325969 0.762608 -0.096696
C37   C     C_3   0.716565 0.351847 0.221052 0.051505
C38   C     C_3   0.781499 0.289530 0.148157 -0.254569
C39   C     C_3   0.758751 0.155978 0.109542 -0.511365
C40   C     C_3   0.886653 0.653080 0.209703 -0.111299
C41   C     C_3   0.227397 0.257666 0.348248 -0.135718
C42   C     C_3   0.090955 0.528665 0.185996 -0.099049
C43   C     C_3   0.389773 0.136123 0.234902 -0.127409
C44   C     C_R   0.164329 0.607194 0.608499 -0.202819
C45   C     C_R   0.242208 0.592269 0.603993 -0.226435
C46   C     C_R   0.272990 0.517820 0.499624 -0.024643
C47   C     C_R   0.224479 0.461064 0.396544 0.285472
C48   C     C_R   0.147514 0.487694 0.392480 0.294435
Cu1   Cu    Cu3+1 0.500000 0.499980 0.640670 1.022448
Cu2   Cu    Cu3+1 0.500000 0.500020 0.359330 0.984276
H1    H     H_    0.877190 0.502375 0.734293 0.141672
H2    H     H_    0.278308 0.636313 0.684559 0.140069
H3    H     H_    0.471493 0.804031 0.063372 0.137834
H4    H     H_    0.535845 0.924285 0.134068 0.096061
H5    H     H_    0.440531 0.954298 0.073097 0.189886
H6    H     H_    0.357721 0.828020 0.613194 0.139898
H7    H     H_    0.365662 0.993624 0.637090 0.099307
H8    H     H_    0.303437 0.901112 0.743829 0.120921
H9    H     H_    0.284336 0.422598 0.782513 0.172959
H10   H     H_    0.307617 0.478924 0.954584 0.115072
H11   H     H_    0.282972 0.202326 0.877512 0.166179
H12   H     H_    0.532494 0.910707 0.838225 0.093498
H13   H     H_    0.286040 0.273602 0.049437 0.171846
H14   H     H_    0.168561 0.381781 0.991249 0.179504
H15   H     H_    0.154012 0.216875 0.981968 0.153320
H16   H     H_    0.163862 0.303418 0.822557 0.135861
H17   H     H_    0.771392 0.776643 0.874795 0.145445
H18   H     H_    0.686994 0.846768 0.926114 0.088210
H19   H     H_    0.734567 0.762275 0.629521 0.162790
H20   H     H_    0.639640 0.802382 0.667335 0.175894
H21   H     H_    0.687544 0.011951 0.748555 0.137032
H22   H     H_    0.715984 0.979858 0.571148 0.142766
H23   H     H_    0.438713 0.125373 0.770719 0.180092
H24   H     H_    0.783879 0.972377 0.712918 0.141564
H25   H     H_    0.774059 0.280867 0.772663 0.095626
H26   H     H_    0.686356 0.286735 0.670886 0.103869
H27   H     H_    0.685483 0.304801 0.857514 0.134099
H28   H     H_    0.666234 0.345127 0.150188 0.167605
H29   H     H_    0.699571 0.301149 0.317770 0.106435
H30   H     H_    0.797423 0.340163 0.051480 0.202582
H31   H     H_    0.831767 0.291628 0.219060 0.189381
H32   H     H_    0.745138 0.103000 0.205594 0.145285
H33   H     H_    0.806425 0.113885 0.055108 0.142449
H34   H     H_    0.539568 0.124470 0.830112 0.104550
H35   H     H_    0.708523 0.150409 0.038481 0.133662
H36   H     H_    0.911235 0.721446 0.287833 0.091978
H37   H     H_    0.827481 0.674118 0.182271 0.149456
H38   H     H_    0.920801 0.662043 0.112817 0.119657
H39   H     H_    0.165416 0.246888 0.368529 0.160369
H40   H     H_    0.259457 0.234131 0.444090 0.090593
H41   H     H_    0.238674 0.189816 0.264546 0.105467
H42   H     H_    0.060878 0.606891 0.230839 0.127074
H43   H     H_    0.055296 0.488039 0.098948 0.146295
H44   H     H_    0.146171 0.562554 0.141014 0.104645
H45   H     H_    0.395252 0.399659 0.129664 0.145427
H46   H     H_    0.376834 0.154993 0.123946 0.127132
H47   H     H_    0.374671 0.216008 0.299766 0.158464
H48   H     H_    0.354171 0.052804 0.264001 0.120353
H49   H     H_    0.568190 0.731448 0.886859 0.091785
H50   H     H_    0.667078 0.643990 0.128914 0.195220
H51   H     H_    0.578919 0.725697 0.145456 0.107930
H52   H     H_    0.141071 0.659170 0.694104 0.121244
N1    N     N_R   0.500470 0.500930 0.147930 -0.270671
N2    N     N_R   0.500480 0.500890 0.852020 -0.245560
O1    O     O_R   0.500000 0.319640 0.618810 -0.487232
O2    O     O_3   0.415919 0.886849 0.794046 -0.575974
O3    O     O_3   0.387622 0.370601 0.848465 -0.553705
O4    O     O_3   0.677039 0.657793 0.867464 -0.494406
O5    O     O_3   0.731822 0.454578 0.754757 -0.483899
O6    O     O_3   0.735920 0.478372 0.245888 -0.555416
O7    O     O_3   0.890301 0.532263 0.258613 -0.542621
O8    O     O_3   0.251161 0.376440 0.302531 -0.571579
O9    O     O_3   0.101030 0.437389 0.286513 -0.551740
O10   O     O_3   0.468141 0.120697 0.245725 -0.566067
O11   O     O_R   0.500010 0.319680 0.381230 -0.470243
O12   O     O_R   0.391250 0.499990 0.618840 -0.476658
O13   O     O_R   0.391260 0.500020 0.381250 -0.475729
O14   O     O_R   0.499990 0.680320 0.618770 -0.505547
O15   O     O_R   0.500000 0.680360 0.381190 -0.462418
O16   O     O_R   0.608740 0.499980 0.618750 -0.439170
O17   O     O_R   0.608750 0.500010 0.381160 -0.487351
O18   O     O_3   0.444023 0.861308 0.261238 -0.557543

loop_
_geom_bond_atom_site_label_1
_geom_bond_atom_site_label_2
_ccdc_geom_bond_type
C31   H16   S    
C41   H39   S    
C35   H24   S    
C42   H43   S    
C43   H48   S    
C21   H1    S    
Cu1   N2    S    
C28   H6    S    
C27   H4    S    
C7    C8    A    
C4    C46   S    
C28   H7    S    
C37   H29   S    
C12   C23   S    
C29   C30   S    
C1    C5    S    
C40   H37   S    
C17   N2    A    
C18   C19   S    
C36   H27   S    
C43   O10   S    
C30   C31   S    
C27   H5    S    
Cu1   O16   S    
C40   H36   S    
C47   O8    S    
Cu2   O13   S    
Cu2   O11   S    
C15   O3    S    
C6    O10   S    
C36   H26   S    
C20   C24   S    
C28   O2    S    
C8    C9    A    
C41   O8    S    
C15   N2    A    
C13   N1    A    
C9    C10   S    
C33   H19   S    
C32   H18   S    
C2    C34   S    
C41   H40   S    
C35   H21   S    
Cu2   N1    S    
C8    C16   S    
C30   H13   S    
C10   H12   S    
Cu2   O17   S    
C27   O18   S    
C17   C18   S    
C40   O7    S    
C38   C39   S    
C13   C19   S    
Cu2   O15   S    
C29   H9    S    
C24   C25   A    
C11   H23   S    
C16   O15   A    
C2    C44   A    
C44   H52   S    
Cu1   O1    S    
C45   H2    S    
C2    C48   A    
C25   C26   A    
C45   C46   A    
C12   C21   A    
C12   C26   A    
C37   C38   S    
C3    C9    A    
C36   H25   S    
C16   O14   A    
C42   O9    S    
C47   C48   A    
C29   H10   S    
C22   O5    S    
C43   H46   S    
C37   O6    S    
C20   O17   A    
C25   O6    S    
C32   H17   S    
C33   H20   S    
C41   H41   S    
C35   H22   S    
C38   H31   S    
C22   C24   A    
C4    O13   A    
C10   O2    S    
C18   H49   S    
C39   H35   S    
C7    O18   S    
C14   H45   S    
C20   O16   A    
C44   C45   A    
C31   H15   S    
C46   C47   A    
C23   C34   T    
C42   H44   S    
C31   H14   S    
C4    O12   A    
C43   H47   S    
C39   H32   S    
C3    C5    A    
C19   H50   S    
C27   H3    S    
C6    C7    A    
C28   H8    S    
C11   H34   S    
C37   H28   S    
C13   C17   A    
C32   C33   S    
C40   H38   S    
C39   H33   S    
C19   H51   S    
C14   N1    A    
C5    C6    A    
C38   H30   S    
C33   C35   S    
C42   H42   S    
C18   O4    S    
C3    C11   S    
C10   C11   S    
Cu1   O14   S    
Cu1   O12   S    
Cu1   Cu2   S    
C32   O4    S    
C30   H11   S    
C36   O5    S    
C14   C15   A    
C29   O3    S    
C1    O11   A    
C21   C22   A    
C26   O7    S    
C1    O1    A    
C48   O9    S    
