data_mof_unit_47053.cif
_audit_creation_date              2012-12-11T14:33:08-0500
_audit_creation_method            fapswitch 2.2
_symmetry_space_group_name_H-M    P1
_symmetry_Int_Tables_number       1
_space_group_crystal_system       triclinic
_cell_length_a                    6.945592
_cell_length_b                    14.020148
_cell_length_c                    17.814328
_cell_angle_alpha                 112.921855
_cell_angle_beta                  95.618021
_cell_angle_gamma                 90.126251
_cell_volume                      1588.53372077

loop_
_atom_site_label
_atom_site_type_symbol
_atom_type_description
_atom_site_fract_x
_atom_site_fract_y
_atom_site_fract_z
_atom_type_partial_charge
O1    O     O_R   0.484560 0.544530 0.414330 -0.541868
O2    O     O_R   0.197040 0.638810 0.585080 -0.549301
O3    O     O_R   0.026800 0.455470 0.585670 -0.548810
C1    C     C_R   0.373279 0.680438 0.608036 0.748621
O4    O     O_R   0.155000 0.556150 0.414940 -0.542686
O5    O     O_R   0.984450 0.372220 0.414320 -0.495133
C2    C     C_R   0.317646 0.564955 0.386521 0.803077
O6    O     O_R   0.526900 0.627780 0.585680 -0.545088
O7    O     O_3   0.339170 0.439750 0.499990 -0.356766
V1    V     V_3+5 0.064350 0.511180 0.500000 1.475689
O8    O     O_R   0.654880 0.361190 0.414920 -0.527195
C3    C     C_R   0.818002 0.323601 0.387767 0.815698
O9    O     O_R   0.696930 0.443850 0.585060 -0.549143
C4    C     C_R   0.873521 0.429152 0.610024 0.703825
V2    V     V_3+5 0.564340 0.488820 0.500000 1.484426
O10   O     O_3   0.839390 0.560250 0.500010 -0.390413
C5    C     C_R   0.040492 0.863297 0.822903 -0.066768
C6    C     C_R   0.907860 0.390904 0.676935 -0.123724
C7    C     C_R   0.923084 0.823251 0.680856 -0.130283
C8    C     C_R   0.978772 0.791042 0.744207 -0.117838
C9    C     C_R   0.046602 0.969752 0.837385 -0.222240
C10   C     C_R   0.991108 0.004913 0.773146 0.085954
C11   C     C_R   0.928805 0.928740 0.694372 0.097128
C12   C     C_R   0.992866 0.112296 0.784094 0.079799
C13   C     C_R   0.934839 0.141061 0.716059 0.088720
C14   C     C_R   0.873795 0.061292 0.639586 -0.186919
C15   C     C_R   0.871191 0.957756 0.629234 -0.141248
C16   C     C_R   0.047805 0.191991 0.861159 -0.220523
C17   C     C_R   0.047817 0.295303 0.871910 -0.171173
C18   C     C_R   0.001978 0.324464 0.806027 0.005549
C19   C     C_R   0.941126 0.248593 0.726892 0.034101
C20   C     C_R   0.020304 0.429572 0.819015 0.599369
C21   C     C_R   0.976091 0.462023 0.755098 -0.219741
C22   C     C_R   0.892365 0.284339 0.662442 -0.219525
H1    H     H_    0.822607 0.899360 0.569151 0.147758
H2    H     H_    0.845644 0.231811 0.600523 0.114639
H3    H     H_    0.994628 0.543521 0.766792 0.132685
H4    H     H_    0.087054 0.353258 0.933069 0.185251
H5    H     H_    0.874319 0.765143 0.620759 0.144148
H6    H     H_    0.971967 0.709041 0.731815 0.123716
H7    H     H_    0.092218 0.022510 0.899305 0.097740
H8    H     H_    0.825997 0.076451 0.586109 0.131911
H9    H     H_    0.089477 0.177347 0.915346 0.132449
H10   H     H_    0.849036 0.024419 0.206515 0.095775
C23   C     C_2   0.136254 0.040560 0.180621 -0.161492
C24   C     C_2   0.980497 0.073612 0.223495 -0.249908
H11   H     H_    0.678674 0.186451 0.285071 0.120905
C25   C     C_2   0.816149 0.220446 0.319692 -0.446999
C26   C     C_2   0.981404 0.171439 0.297114 0.683919
C27   C     C_R   0.405923 0.787909 0.675244 -0.207315
C28   C     C_R   0.540980 0.468966 0.828439 -0.071149
C29   C     C_R   0.528088 0.892826 0.816466 -0.146124
C30   C     C_R   0.472569 0.797636 0.754571 -0.075599
C31   C     C_R   0.392371 0.880198 0.659977 0.523806
C32   C     C_R   0.442651 0.981597 0.725022 -0.021328
C33   C     C_R   0.514625 0.983408 0.802849 0.033701
C34   C     C_R   0.430422 0.080956 0.717610 0.094152
C35   C     C_R   0.493517 0.176615 0.786919 0.060021
C36   C     C_R   0.579940 0.168084 0.858384 -0.196292
C37   C     C_R   0.582492 0.074961 0.867309 -0.165060
C38   C     C_R   0.360489 0.088567 0.643625 -0.150049
C39   C     C_R   0.363503 0.182168 0.635010 -0.234056
C40   C     C_R   0.425957 0.274017 0.700674 0.135450
C41   C     C_R   0.481688 0.276390 0.780124 0.003112
C42   C     C_R   0.434075 0.363563 0.685503 -0.145770
C43   C     C_R   0.500283 0.456778 0.746726 -0.212965
C44   C     C_R   0.523373 0.378382 0.846669 -0.052312
H12   H     H_    0.648036 0.074024 0.924853 0.117911
H13   H     H_    0.518122 0.518323 0.727230 0.152329
H14   H     H_    0.314334 0.182675 0.575457 0.140081
H15   H     H_    0.583495 0.896005 0.876582 0.154098
H16   H     H_    0.660131 0.230840 0.907319 0.145045
H17   H     H_    0.302086 0.023951 0.590071 0.221268
H18   H     H_    0.395503 0.360901 0.624247 0.149828
H19   H     H_    0.334056 0.667105 0.194494 0.153290
H20   H     H_    0.614977 0.590716 0.307921 0.150645
C45   C     C_2   0.314182 0.602136 0.318860 -0.306113
C46   C     C_2   0.476499 0.610810 0.285253 -0.112233
H21   H     H_    0.773167 0.636392 0.206922 0.126040
C47   C     C_2   0.634957 0.656154 0.183768 -0.288148
C48   C     C_2   0.472594 0.647142 0.217219 -0.118708
H22   H     H_    0.176044 0.621993 0.295719 0.124062
O11   O     O_R   0.421600 0.630430 0.917010 -0.519101
O12   O     O_R   0.793840 0.702190 0.087630 -0.536976
O13   O     O_R   0.964010 0.886170 0.088190 -0.544862
C49   C     C_R   0.631351 0.693560 0.116232 0.788425
O14   O     O_R   0.751460 0.619510 0.917500 -0.486960
O15   O     O_R   0.921330 0.802900 0.916840 -0.511631
C50   C     C_R   0.574587 0.578278 0.893313 0.872034
O16   O     O_R   0.464290 0.713700 0.088350 -0.543252
O17   O     O_3   0.609200 0.818520 0.002630 -0.395605
V3    V     V_3+5 0.884140 0.747190 0.002530 1.566123
O18   O     O_R   0.251150 0.814630 0.917340 -0.558090
C51   C     C_R   0.074527 0.826738 0.890836 0.694930
O19   O     O_R   0.293530 0.897310 0.087470 -0.561416
C52   C     C_R   0.131292 0.934511 0.115432 0.621488
V4    V     V_3+5 0.384070 0.769710 0.002370 1.468555
O20   O     O_3   0.109180 0.698190 0.002460 -0.314488
F1    F     F_    0.085998 0.501152 0.893992 -0.679829
F2    F     F_    0.152286 0.208041 0.344951 -0.648778
C53   C     C_2   0.311352 0.108405 0.192491 0.478321
H23   H     H_    0.449007 0.073886 0.176592 -0.000706
O21   O     O_2   0.301774 0.202222 0.214700 -0.503122
C54   C     C_2   0.523170 0.394652 0.934113 0.336433
H24   H     H_    0.426680 0.347872 0.951520 0.065428
O22   O     O_2   0.634462 0.458257 0.987492 -0.539259
C55   C     C_2   0.493246 0.707950 0.774620 0.363707
H25   H     H_    0.365752 0.660566 0.770321 -0.003572
O23   O     O_2   0.654253 0.686834 0.795326 -0.558694
F3    F     F_    0.338943 0.866884 0.581334 -0.738784

loop_
_geom_bond_atom_site_label_1
_geom_bond_atom_site_label_2
_ccdc_geom_bond_type
C13   C19   A    
C32   C33   A    
C40   C42   A    
O18   C51   A    
C4    C6    S    
O2    C1    A    
O19   C52   A    
C1    O6    A    
C54   O22   D    
V4    O20   S    
V3    O20   S    
C45   C46   D    
C24   C26   S    
C31   F3    S    
C14   C15   A    
C39   C40   A    
C16   C17   A    
O12   C49   A    
O5    C3    A    
C18   C19   A    
C8    H6    S    
O13   C52   A    
C43   H13   S    
V2    O10   S    
C5    C8    A    
C39   H14   S    
C47   C49   S    
O8    V2    S    
O15   V3    S    
C17   H4    S    
C55   H25   S    
O1    V2    S    
C11   C15   A    
O7    V1    S    
O16   V4    S    
C3    C25   S    
C36   H16   S    
C2    C45   S    
C36   C37   A    
C53   O21   D    
O9    C4    A    
C55   O23   D    
C54   H24   S    
O13   V3    S    
H10   C24   S    
C44   C54   S    
C35   C41   A    
O11   C50   A    
O15   C51   A    
C27   C30   A    
C53   H23   S    
C12   C13   A    
C49   O16   A    
O17   V3    S    
O4    C2    A    
C23   C53   S    
C15   H1    S    
C35   C36   A    
C23   C24   D    
C21   H3    S    
C42   H18   S    
C33   C37   A    
C1    C27   S    
C28   C43   A    
C7    C11   A    
C41   C44   A    
C17   C18   A    
C30   C55   S    
H11   C25   S    
O9    V2    S    
C19   C22   A    
C28   C44   A    
O17   V4    S    
C6    C22   A    
O3    C4    A    
C7    H5    S    
C9    H7    S    
C25   C26   D    
O6    V2    S    
C32   C34   A    
C10   C12   A    
H21   C47   S    
O2    V1    S    
O18   V4    S    
O14   V3    S    
C29   C30   A    
C14   H8    S    
C31   C32   A    
O1    C2    A    
H19   C48   S    
C12   C16   A    
H20   C46   S    
C47   C48   D    
O5    V1    S    
O8    C3    A    
O19   V4    S    
C34   C38   A    
C16   H9    S    
C20   F1    S    
C38   H17   S    
C20   C21   A    
C7    C8    A    
O14   C50   A    
C13   C14   A    
O4    V1    S    
C27   C31   A    
C29   H15   S    
V1    O10   S    
C28   C50   S    
C26   F2    S    
C18   C20   A    
C46   C48   S    
C34   C35   A    
C45   H22   S    
C22   H2    S    
O7    V2    S    
C38   C39   A    
C6    C21   A    
C5    C9    A    
C40   C41   A    
C37   H12   S    
C42   C43   A    
O11   V4    S    
O3    V1    S    
C10   C11   A    
C5    C51   S    
O12   V3    S    
C9    C10   A    
C23   C52   S    
C29   C33   A    
