data_mof_unit_65336.cif
_audit_creation_date              2013-03-05T16:38:40-0500
_audit_creation_method            fapswitch 2.2
_symmetry_space_group_name_H-M    P1
_symmetry_Int_Tables_number       1
_space_group_crystal_system       triclinic
_cell_length_a                    19.268158
_cell_length_b                    19.04121
_cell_length_c                    19.48427
_cell_angle_alpha                 111.206027
_cell_angle_beta                  111.578186
_cell_angle_gamma                 104.138076
_cell_volume                      5579.77788504

loop_
_atom_site_label
_atom_site_type_symbol
_atom_site_description
_atom_site_fract_x
_atom_site_fract_y
_atom_site_fract_z
_atom_type_partial_charge
O1    O     O_R   0.916810 0.468940 0.051330 -0.597356
O2    O     O_R   0.917640 0.365500 0.948670 -0.572456
C1    C     C_R   0.890275 0.390752 0.999591 0.870803
O3    O     O_R   0.907960 0.551720 0.959710 -0.625002
O4    O     O_R   0.908790 0.448280 0.857050 -0.562882
C2    C     C_R   0.877818 0.499311 0.881373 0.921468
Zn1   Zn    Zn3+2 0.999450 0.569070 0.068540 1.154225
Zn2   Zn    Zn3+2 0.000550 0.430930 0.931460 1.193047
O5    O     O_R   0.082360 0.634500 0.051330 -0.586410
O6    O     O_R   0.083190 0.531060 0.948670 -0.597786
O7    O     O_R   0.091210 0.551720 0.142950 -0.581052
O8    O     O_R   0.092040 0.448280 0.040290 -0.572250
C3    C     C_R   0.108717 0.609245 0.999335 0.874316
C4    C     C_R   0.117326 0.497179 0.118914 0.883098
C5    C     C_R   0.861165 0.734053 0.054126 0.124311
C6    C     C_R   0.819595 0.658576 0.975765 0.242201
C7    C     C_R   0.845971 0.650582 0.915690 -0.107107
C8    C     C_R   0.911787 0.718479 0.932777 0.101971
C9    C     C_R   0.947883 0.796731 0.007008 0.185066
C10   C     C_R   0.923704 0.803885 0.068593 0.099590
C11   C     C_R   0.740957 0.572191 0.761711 0.279450
C12   C     C_R   0.681676 0.495242 0.687825 -0.224418
C13   C     C_R   0.674783 0.418832 0.687810 -0.019807
C14   C     C_R   0.739060 0.420698 0.753687 0.336495
C15   C     C_R   0.805612 0.497729 0.819950 -0.205472
C16   C     C_R   0.798616 0.572689 0.831092 -0.047728
C17   C     C_R   0.527172 0.317912 0.623202 0.134294
C18   C     C_R   0.456860 0.241424 0.559732 0.143268
C19   C     C_R   0.462541 0.180410 0.497069 0.182987
C20   C     C_R   0.539044 0.195474 0.500933 -0.198428
H1    H     H_    0.544037 0.147120 0.454819 0.269571
C21   C     C_R   0.609044 0.272054 0.562405 0.252432
C22   C     C_R   0.601721 0.336525 0.620775 -0.121707
C23   C     C_1   0.828509 0.330614 0.998113 -0.078287
C24   C     C_1   0.776848 0.279898 0.997296 0.082078
C25   C     C_1   0.717686 0.220658 0.997545 0.096878
C26   C     C_1   0.667754 0.169846 0.998420 -0.058217
H2    H     H_    0.866791 0.329675 0.195848 0.222460
C27   C     C_R   0.971714 0.443913 0.248739 0.136758
C28   C     C_R   0.049526 0.481399 0.257678 0.251277
C29   C     C_R   0.081546 0.429947 0.219083 -0.214020
C30   C     C_R   0.034270 0.341871 0.169901 0.206840
C31   C     C_R   0.956071 0.305543 0.161240 0.222227
C32   C     C_R   0.926527 0.357139 0.201958 -0.334121
C33   C     C_R   0.232891 0.471833 0.300725 0.317850
C34   C     C_R   0.313190 0.499923 0.310737 -0.165335
C35   C     C_R   0.327286 0.526922 0.255567 0.097442
C36   C     C_R   0.262206 0.529548 0.195340 0.143428
C37   C     C_R   0.183050 0.496788 0.183331 -0.101868
C38   C     C_R   0.167158 0.467085 0.234503 -0.005176
C39   C     C_R   0.468750 0.632637 0.307813 0.230379
C40   C     C_R   0.537461 0.658240 0.297595 0.046577
C41   C     C_R   0.539832 0.604752 0.227079 0.129618
C42   C     C_R   0.474349 0.523653 0.168946 0.141256
C43   C     C_R   0.409239 0.494611 0.183671 0.141218
C44   C     C_R   0.406737 0.549145 0.254411 -0.150938
C45   C     C_1   0.170301 0.668832 0.999997 -0.046713
C46   C     C_1   0.222401 0.718230 0.999971 0.150481
C47   C     C_1   0.282343 0.776466 0.999443 0.095615
C48   C     C_1   0.332504 0.827678 0.999208 -0.128418
O9    O     O_R   0.547440 0.455060 0.409050 -0.633881
O10   O     O_R   0.453980 0.361630 0.409070 -0.585657
C49   C     C_R   0.503792 0.379578 0.382745 0.892762
O11   O     O_R   0.638350 0.546700 0.591580 -0.570719
O12   O     O_R   0.544890 0.453260 0.591610 -0.625092
C50   C     C_R   0.619647 0.496249 0.618133 0.907269
Zn3   Zn    Zn3+2 0.562400 0.562360 0.499960 1.137680
Zn4   Zn    Zn3+2 0.437600 0.437590 0.500000 1.217307
O13   O     O_R   0.546020 0.638330 0.590880 -0.593997
O14   O     O_R   0.452560 0.544900 0.590910 -0.566783
O15   O     O_R   0.455110 0.546690 0.408340 -0.619213
O16   O     O_R   0.361650 0.453260 0.408370 -0.552742
C51   C     C_R   0.497793 0.621230 0.617999 0.973328
C52   C     C_R   0.379658 0.499188 0.377709 0.978723
O17   O     O_R   0.446640 0.909720 0.856320 -0.580206
O18   O     O_R   0.550070 0.907030 0.957060 -0.610309
C53   C     C_R   0.497209 0.878530 0.879050 0.890272
O19   O     O_R   0.531060 0.084080 0.949590 -0.589743
O20   O     O_R   0.634490 0.081390 0.050330 -0.566106
C54   C     C_R   0.608765 0.109447 0.999616 0.901953
Zn5   Zn    Zn3+2 0.430940 0.001750 0.932690 1.131778
Zn6   Zn    Zn3+2 0.569060 0.998160 0.067220 1.144197
O21   O     O_R   0.449930 0.092880 0.042850 -0.635017
O22   O     O_R   0.553360 0.090200 0.143600 -0.557978
O23   O     O_R   0.365510 0.918520 0.949590 -0.623373
O24   O     O_R   0.468940 0.915840 0.050330 -0.602535
C55   C     C_R   0.501934 0.120613 0.120914 0.896785
C56   C     C_R   0.391315 0.889576 0.999432 0.850550
C57   C     C_R   0.769927 0.532175 0.467944 0.189912
C58   C     C_R   0.691939 0.468945 0.398314 0.099856
C59   C     C_R   0.662180 0.388101 0.387426 -0.126377
C60   C     C_R   0.717387 0.367020 0.438657 0.257390
C61   C     C_R   0.796499 0.429569 0.505591 -0.231806
H3    H     H_    0.838229 0.413468 0.545208 0.263923
C62   C     C_R   0.821951 0.512680 0.523516 0.174590
C63   C     C_R   0.575963 0.260559 0.245192 0.159875
C64   C     C_R   0.501808 0.188281 0.184947 -0.143705
C65   C     C_R   0.427333 0.180921 0.184849 -0.022282
C66   C     C_R   0.427725 0.245332 0.248718 0.297745
C67   C     C_R   0.503903 0.314648 0.314827 -0.216082
C68   C     C_R   0.578904 0.321985 0.313901 0.050773
C69   C     C_R   0.301718 0.104891 0.040110 0.128252
C70   C     C_R   0.235998 0.029874 0.969013 0.180397
C71   C     C_R   0.213058 0.957475 0.975194 0.069895
C72   C     C_R   0.250967 0.961973 0.055463 0.134916
C73   C     C_R   0.324039 0.034760 0.123755 0.201710
C74   C     C_R   0.348205 0.106407 0.116097 -0.137571
C75   C     C_R   0.628367 0.877734 0.611894 0.025986
C76   C     C_R   0.608886 0.824853 0.643844 0.204120
C77   C     C_R   0.527391 0.789502 0.628506 -0.161312
C78   C     C_R   0.464137 0.801412 0.574579 0.198862
C79   C     C_R   0.484026 0.854364 0.542409 0.191425
C80   C     C_R   0.566718 0.894245 0.563194 0.134400
C81   C     C_R   0.516510 0.831180 0.757117 0.147776
C82   C     C_R   0.500208 0.814168 0.814761 -0.118384
C83   C     C_R   0.493410 0.739080 0.815073 -0.030527
C84   C     C_R   0.495195 0.676780 0.751356 0.305942
C85   C     C_R   0.501636 0.689348 0.686585 -0.178128
C86   C     C_R   0.514863 0.768022 0.690677 0.053030
C87   C     C_R   0.563665 0.762597 0.963634 0.247199
C88   C     C_R   0.558083 0.765853 0.034627 0.085811
C89   C     C_R   0.480995 0.721859 0.023828 0.083993
C90   C     C_R   0.409988 0.674496 0.941836 0.089858
C91   C     C_R   0.412900 0.684268 0.874665 0.109609
C92   C     C_R   0.489935 0.728071 0.885419 -0.125613
N1    N     N_R   0.962684 0.882239 0.145906 0.289248
O25   O     O_R   0.005521 0.888486 0.219100 -0.224044
O26   O     O_R   0.955520 0.947546 0.143273 -0.200788
N2    N     N_R   0.391593 0.102421 0.430181 0.286447
O27   O     O_R   0.318401 0.100046 0.395491 -0.203902
O28   O     O_R   0.401081 0.035061 0.397412 -0.205010
N3    N     N_R   0.687672 0.280137 0.568368 0.268791
O29   O     O_R   0.747053 0.352718 0.600171 -0.408743
O30   O     O_R   0.701329 0.214123 0.544272 -0.214079
I1    I     I_    0.920394 0.514011 0.309080 0.020420
N4    N     N_R   0.095618 0.570967 0.305827 0.243337
O31   O     O_R   0.172953 0.606296 0.365277 -0.253435
O32   O     O_R   0.061005 0.617699 0.288483 -0.286603
N5    N     N_R   0.067897 0.289383 0.133332 0.259547
O33   O     O_R   0.096102 0.302495 0.085681 -0.304431
O34   O     O_R   0.071430 0.228826 0.148561 -0.189805
N6    N     N_R   0.905237 0.216645 0.109888 0.246401
O35   O     O_R   0.854307 0.180216 0.128687 -0.311666
O36   O     O_R   0.901955 0.173496 0.038582 -0.277755
N7    N     N_R   0.217890 0.451006 0.359477 0.223090
O37   O     O_R   0.248124 0.509322 0.437410 -0.274030
O38   O     O_R   0.174961 0.373737 0.335542 -0.282282
I2    I     I_    0.283627 0.586584 0.123552 -0.156201
N8    N     N_R   0.839057 0.739584 0.118331 0.278060
O39   O     O_R   0.835028 0.806603 0.163329 -0.223036
O40   O     O_R   0.823888 0.677676 0.133001 -0.251883
N9    N     N_R   0.455811 0.694848 0.363369 0.213017
O41   O     O_R   0.453348 0.757661 0.352139 -0.287318
O42   O     O_R   0.430277 0.680963 0.412290 -0.409559
I3    I     I_    0.639561 0.777079 0.393943 0.063223
N10   N     N_R   0.608791 0.631814 0.214641 0.272125
O43   O     O_R   0.638291 0.705928 0.224269 -0.279067
O44   O     O_R   0.639080 0.580689 0.187963 -0.237762
N11   N     N_R   0.473086 0.471212 0.093527 0.288274
O45   O     O_R   0.470533 0.397930 0.077894 -0.286594
O46   O     O_R   0.476406 0.497472 0.041228 -0.249329
N12   N     N_R   0.339396 0.414592 0.119838 0.246751
O47   O     O_R   0.307020 0.392675 0.039535 -0.261628
O48   O     O_R   0.301452 0.368160 0.141853 -0.301719
N13   N     N_R   0.900768 0.576066 0.597455 0.255909
O49   O     O_R   0.911659 0.652808 0.637535 -0.244764
O50   O     O_R   0.959140 0.555693 0.630697 -0.315799
N14   N     N_R   0.798003 0.614428 0.478677 0.263670
O51   O     O_R   0.866581 0.647183 0.480128 -0.239870
O52   O     O_R   0.754987 0.656772 0.486844 -0.309953
I4    I     I_    0.626240 0.490643 0.300253 -0.130581
N15   N     N_R   0.697065 0.281610 0.419392 0.257181
O53   O     O_R   0.621502 0.229003 0.388594 -0.369984
O54   O     O_R   0.755143 0.256314 0.434372 -0.256240
N16   N     N_R   0.747713 0.591674 0.955408 0.256282
O55   O     O_R   0.748034 0.520243 0.944460 -0.333752
O56   O     O_R   0.684566 0.604641 0.955635 -0.228342
I5    I     I_    0.683398 0.279468 0.230527 -0.205669
N17   N     N_R   0.350685 0.240738 0.245410 0.232491
O57   O     O_R   0.302207 0.177418 0.242545 -0.251547
O58   O     O_R   0.328794 0.300121 0.245392 -0.319333
I6    I     I_    0.336753 0.213096 0.028302 0.082045
N18   N     N_R   0.194063 0.026380 0.889168 0.245014
O59   O     O_R   0.115454 0.008197 0.854193 -0.233951
O60   O     O_R   0.232911 0.035692 0.848503 -0.308848
I7    I     I_    0.137399 0.841646 0.857351 0.067993
N19   N     N_R   0.214035 0.896136 0.069241 0.238929
O61   O     O_R   0.143479 0.832639 0.009178 -0.371735
O62   O     O_R   0.241370 0.906576 0.145694 -0.227885
N20   N     N_R   0.377518 0.033712 0.197570 0.268044
O63   O     O_R   0.405908 0.093878 0.274029 -0.292960
O64   O     O_R   0.403681 0.975900 0.188250 -0.321859
N21   N     N_R   0.588578 0.953210 0.536552 0.260086
O65   O     O_R   0.552747 0.930822 0.456054 -0.227568
O66   O     O_R   0.637839 0.031642 0.593286 -0.272010
I8    I     I_    0.753850 0.940600 0.645413 0.125103
N22   N     N_R   0.673473 0.812262 0.697095 0.252403
O67   O     O_R   0.692683 0.835632 0.775750 -0.264474
O68   O     O_R   0.714999 0.779322 0.667406 -0.258883
I9    I     I_    0.958843 0.697508 0.847638 -0.005900
N23   N     N_R   0.381627 0.766899 0.560366 0.261170
O69   O     O_R   0.347556 0.690415 0.543709 -0.294767
O70   O     O_R   0.343441 0.813973 0.571896 -0.251681
N24   N     N_R   0.420756 0.870074 0.491344 0.291774
O71   O     O_R   0.350268 0.808276 0.427542 -0.196724
O72   O     O_R   0.432316 0.946395 0.510041 -0.238959
I10   I     I_    0.554525 0.957307 0.777807 -0.163187
N25   N     N_R   0.497498 0.603926 0.756483 0.224591
O73   O     O_R   0.435313 0.551528 0.751136 -0.300506
O74   O     O_R   0.562475 0.590209 0.766926 -0.327394
N26   N     N_R   0.643863 0.794424 0.971554 0.249866
O75   O     O_R   0.698299 0.769717 0.003873 -0.276450
O76   O     O_R   0.661956 0.844109 0.942937 -0.295561
I11   I     I_    0.665701 0.845742 0.158461 0.117735
I12   I     I_    0.469859 0.732665 0.131576 -0.084871
I13   I     I_    0.301154 0.582187 0.916957 -0.097411
I14   I     I_    0.301028 0.636272 0.757832 -0.064655
N27   N     N_R   0.008425 0.868887 0.019725 0.275858
O77   O     O_R   0.073521 0.922256 0.094616 -0.225230
O78   O     O_R   0.994694 0.885877 0.958369 -0.239713
N28   N     N_R   0.740437 0.649615 0.767914 0.220943
O79   O     O_R   0.722824 0.694594 0.821424 -0.278603
O80   O     O_R   0.772622 0.682292 0.732381 -0.250426
N29   N     N_R   0.731489 0.346043 0.758975 0.198980
O81   O     O_R   0.772700 0.305627 0.738500 -0.273022
O82   O     O_R   0.679815 0.316134 0.780423 -0.340384
I15   I     I_    0.524246 0.398581 0.731029 0.123566
N30   N     N_R   0.381265 0.224040 0.561989 0.253851
O83   O     O_R   0.347165 0.157811 0.564669 -0.227534
O84   O     O_R   0.345063 0.273150 0.558996 -0.285296

loop_
_geom_bond_atom_site_label_1
_geom_bond_atom_site_label_2
_geom_bond_distance
_ccdc_geom_bond_type
O21   C55   1.278986 A    
C11   C16   1.393817 A    
C28   C29   1.417562 A    
N20   O63   1.300302 A    
N25   O74   1.299208 A    
N23   O69   1.300589 A    
C42   C43   1.415145 A    
C76   N22   1.434815 S    
C78   C79   1.414736 A    
O22   C55   1.286829 A    
C34   C52   1.461476 S    
C43   C44   1.420642 A    
C84   N25   1.436471 S    
N29   O81   1.300510 A    
C78   N23   1.438817 S    
N30   O84   1.301001 A    
C64   C65   1.406565 A    
C48   C56   1.418958 S    
N8    O39   1.300867 A    
C90   C91   1.405615 A    
N16   O56   1.300524 A    
N13   O49   1.301252 A    
C27   I1    2.122795 S    
C41   C42   1.411086 A    
C83   C84   1.391243 A    
C40   I3    2.133184 S    
Zn1   O7    2.020773 S    
N21   O65   1.301693 A    
C28   N4    1.437796 S    
C61   H3    1.082342 S    
C11   N28   1.437809 S    
C33   N7    1.437716 S    
C7    C16   1.487723 S    
C17   C18   1.409502 A    
C18   C19   1.409493 A    
C5    N8    1.440859 S    
C8    C9    1.410855 A    
N8    O40   1.301389 A    
N11   O45   1.300095 A    
C20   H1    1.082871 S    
O7    C4    1.275861 A    
O24   C56   1.286646 A    
C4    C37   1.421746 S    
C3    C45   1.419843 S    
C73   C74   1.410050 A    
C82   C83   1.405977 A    
C75   C76   1.408183 A    
N22   O68   1.300514 A    
C23   C24   1.196375 T    
C29   C30   1.417619 A    
O9    C49   1.263030 A    
O5    C3    1.288725 A    
C85   C86   1.423934 A    
C79   C80   1.411098 A    
O15   C52   1.271525 A    
Zn5   O21   2.041953 S    
C42   N11   1.434348 S    
C77   C78   1.416464 A    
C19   N2    1.438828 S    
C35   C36   1.393807 A    
N25   O73   1.300341 A    
N21   O66   1.301792 A    
C58   I4    2.114549 S    
C25   C26   1.196363 T    
N20   O64   1.301035 A    
C13   C14   1.399609 A    
N11   O46   1.301321 A    
O13   C51   1.259564 A    
C75   I8    2.136444 S    
Zn3   O15   2.036742 S    
C81   C86   1.395688 A    
C59   C60   1.416518 A    
Zn4   O16   2.023612 S    
C87   N26   1.441671 S    
N14   O52   1.301162 A    
C47   C48   1.196300 T    
C61   C62   1.400686 A    
C90   I13   2.134772 S    
N17   O58   1.299857 A    
N23   O70   1.301293 A    
C18   N30   1.433606 S    
N13   O50   1.301584 A    
C69   C70   1.399089 A    
C59   C68   1.493140 S    
O3    Zn1   2.042639 S    
C62   N13   1.440800 S    
C12   C13   1.428186 A    
N30   O83   1.301088 A    
N7    O38   1.300670 A    
N15   O54   1.301642 A    
H2    C32   1.082853 S    
N7    O37   1.300631 A    
N12   O48   1.299782 A    
C14   N29   1.438175 S    
C5    C10   1.412737 A    
C26   C54   1.419629 S    
N6    O35   1.301525 A    
C39   C40   1.406722 A    
C69   I6    2.128721 S    
O11   Zn3   2.023363 S    
C63   C68   1.393737 A    
O18   C53   1.279351 A    
O16   C52   1.274468 A    
O18   Zn6   2.041955 S    
C27   C28   1.408156 A    
C87   C92   1.413988 A    
O17   Zn5   2.019932 S    
C55   C64   1.434419 S    
C49   C67   1.448974 S    
C13   C22   1.494266 S    
C15   C16   1.412068 A    
Zn6   O24   1.992347 S    
O14   C51   1.280030 A    
C17   C22   1.415828 A    
C65   C74   1.482594 S    
O20   C54   1.287834 A    
O1    C1    1.287408 A    
C24   C25   1.397044 S    
O11   C50   1.283722 A    
C75   C80   1.406918 A    
C57   C62   1.410409 A    
N18   O59   1.300889 A    
C57   N14   1.433629 S    
C66   N17   1.441320 S    
C19   C20   1.398956 A    
O4    Zn2   2.020774 S    
N28   O79   1.300747 A    
O9    Zn3   2.028197 S    
N27   O78   1.301066 A    
N26   O75   1.299060 A    
O8    C4    1.283994 A    
Zn2   O8    2.042634 S    
O12   Zn4   2.036655 S    
N27   O77   1.301344 A    
C63   C64   1.396606 A    
O10   C49   1.276619 A    
C7    C8    1.402702 A    
C69   C74   1.405771 A    
C9    N27   1.438071 S    
C34   C35   1.428247 A    
C40   C41   1.408439 A    
C14   C15   1.398588 A    
O17   C53   1.286012 A    
C88   C89   1.409599 A    
C71   C72   1.420957 A    
C6    N16   1.437657 S    
O3    C2    1.275062 A    
N14   O51   1.301146 A    
N26   O76   1.300367 A    
N24   O72   1.301333 A    
C39   N9    1.432564 S    
O12   C50   1.257928 A    
Zn6   O22   2.020147 S    
C83   C92   1.481760 S    
C31   C32   1.400090 A    
C8    I9    2.130115 S    
C37   C38   1.398463 A    
C70   N18   1.432436 S    
C12   C50   1.452250 S    
C30   C31   1.413013 A    
C79   N24   1.437663 S    
C57   C58   1.408255 A    
C29   C38   1.491088 S    
C21   N3    1.440889 S    
N6    O36   1.301348 A    
N15   O53   1.301293 A    
N4    O32   1.300956 A    
N12   O47   1.301526 A    
O23   C56   1.288393 A    
Zn1   O5    1.985111 S    
C91   I14   2.141718 S    
N10   O43   1.299247 A    
N1    O26   1.301100 A    
C51   C85   1.449141 S    
C30   N5    1.437744 S    
O1    Zn1   1.986122 S    
C80   N21   1.434898 S    
Zn2   O6    1.986124 S    
O2    Zn2   1.985109 S    
C39   C44   1.413730 A    
C43   N12   1.440725 S    
N9    O42   1.297768 A    
N4    O31   1.300652 A    
O6    C3    1.286350 A    
N29   O82   1.300583 A    
C77   C86   1.489368 S    
O20   Zn6   1.978817 S    
N5    O33   1.300867 A    
C81   C82   1.392148 A    
C27   C32   1.393870 A    
C71   I7    2.136634 S    
C72   C73   1.417155 A    
N2    O27   1.301305 A    
C1    C23   1.419027 S    
C66   C67   1.410203 A    
O10   Zn4   2.027554 S    
C63   I5    2.154509 S    
C21   C22   1.418790 A    
C72   N19   1.448524 S    
C9    C10   1.414008 A    
N18   O60   1.300982 A    
O2    C1    1.287288 A    
C46   C47   1.398219 S    
N19   O61   1.297206 A    
N28   O80   1.300015 A    
N16   O55   1.300273 A    
C53   C82   1.432336 S    
C84   C85   1.408747 A    
C88   I11   2.135227 S    
C20   C21   1.402671 A    
N5    O34   1.301251 A    
O19   Zn5   1.992350 S    
C17   I15   2.138046 S    
C58   C59   1.409442 A    
O4    C2    1.297328 A    
C33   C38   1.390974 A    
C60   N15   1.441619 S    
N1    O25   1.301061 A    
C36   C37   1.391847 A    
C36   I2    2.147302 S    
N10   O44   1.301179 A    
C60   C61   1.403601 A    
C10   N1    1.433085 S    
N3    O29   1.299831 A    
O19   C54   1.287538 A    
N22   O67   1.301004 A    
N19   O62   1.301330 A    
C89   I12   2.129863 S    
N17   O57   1.300824 A    
C2    C15   1.448306 S    
C33   C34   1.419947 A    
C81   I10   2.165593 S    
N24   O71   1.301458 A    
C41   N10   1.443057 S    
N3    O30   1.302012 A    
C65   C66   1.391863 A    
C76   C77   1.414594 A    
C70   C71   1.404249 A    
C89   C90   1.408770 A    
Zn4   O14   2.028320 S    
C73   N20   1.439262 S    
C87   C88   1.406927 A    
C35   C44   1.496318 S    
C31   N6    1.438659 S    
C67   C68   1.424995 A    
N9    O41   1.300038 A    
Zn3   O13   2.027503 S    
C45   C46   1.196637 T    
C11   C12   1.403907 A    
Zn5   O23   1.978949 S    
C5    C6    1.410259 A    
C6    C7    1.413531 A    
C91   C92   1.408114 A    
N2    O28   1.301580 A    
