data_mof_unit_51355.cif
_audit_creation_date              2012-12-10T17:51:29-0500
_audit_creation_method            fapswitch 2.2
_symmetry_space_group_name_H-M    P1
_symmetry_Int_Tables_number       1
_space_group_crystal_system       triclinic
_cell_length_a                    9.878779
_cell_length_b                    10.674744
_cell_length_c                    16.928609
_cell_angle_alpha                 91.689131
_cell_angle_beta                  85.111365
_cell_angle_gamma                 88.903243
_cell_volume                      1777.49276821

loop_
_atom_site_label
_atom_site_type_symbol
_atom_type_description
_atom_site_fract_x
_atom_site_fract_y
_atom_site_fract_z
_atom_type_partial_charge
C1    C     C_R   0.498546 0.740360 0.494687 0.875835
C2    C     C_R   0.341733 0.522786 0.781736 -0.226787
C3    C     C_R   0.433420 0.406481 0.144161 -0.114583
C4    C     C_R   0.426697 0.418674 0.225766 -0.155452
C5    C     C_R   0.646066 0.519286 0.216952 -0.272204
C6    C     C_R   0.652831 0.509011 0.134494 0.521400
C7    C     C_R   0.542587 0.456562 0.098708 0.070871
C8    C     C_2   0.448838 0.555520 0.986807 0.433457
C9    C     C_2   0.530612 0.468191 0.014859 -0.320539
C10   C     C_R   0.530913 0.478476 0.262152 -0.113989
C11   C     C_R   0.240165 0.898846 0.491476 -0.149468
C12   C     C_R   0.480974 0.504364 0.652743 0.834087
C13   C     C_R   0.121859 0.964176 0.520221 -0.192575
C14   C     C_R   0.130111 0.071863 0.567539 -0.155690
C15   C     C_R   0.257209 0.121776 0.580125 0.192209
C16   C     C_R   0.376179 0.066480 0.538157 0.049861
C17   C     C_R   0.369431 0.944477 0.506597 0.071238
C18   C     C_R   0.493492 0.874993 0.491158 -0.106641
C19   C     C_R   0.617881 0.935416 0.486335 -0.219403
C20   C     C_R   0.620657 0.062355 0.498702 -0.203811
C21   C     C_R   0.500004 0.128930 0.521575 -0.129562
C22   C     C_R   0.842240 0.664611 0.605114 -0.202158
C23   C     C_R   0.499857 0.261137 0.508456 0.879520
C24   C     C_R   0.904061 0.745137 0.657451 0.167924
C25   C     C_R   0.044911 0.742992 0.656754 -0.223873
C26   C     C_R   0.123056 0.662556 0.604607 -0.207480
C27   C     C_R   0.063599 0.580583 0.551603 0.145501
C28   C     C_R   0.918896 0.581027 0.551664 0.135703
C29   C     C_R   0.937165 0.422329 0.450909 -0.105127
C30   C     C_R   0.080507 0.422383 0.450919 -0.101301
C31   C     C_R   0.518990 0.495804 0.347428 0.918721
C32   C     C_R   0.469131 0.523939 0.738170 -0.017105
C33   C     C_R   0.586115 0.550348 0.776309 -0.208699
C34   C     C_R   0.576877 0.571615 0.857295 -0.179036
C35   C     C_R   0.451264 0.562811 0.901337 0.093476
C36   C     C_R   0.332977 0.541584 0.863583 -0.101259
H1    H     H_    0.685287 0.553010 0.743934 0.160068
H2    H     H_    0.713556 0.884838 0.472467 0.179336
H3    H     H_    0.228275 0.816033 0.454763 0.185849
H4    H     H_    0.023506 0.927936 0.508828 0.157524
H5    H     H_    0.037401 0.115869 0.594938 0.141381
H6    H     H_    0.717043 0.108432 0.488121 0.170175
H7    H     H_    0.890241 0.358963 0.410876 0.150010
H8    H     H_    0.734434 0.669953 0.608369 0.214085
H9    H     H_    0.339025 0.383300 0.260331 0.165523
H10   H     H_    0.095295 0.804506 0.696457 0.163325
H11   H     H_    0.229907 0.668140 0.607233 0.222941
H12   H     H_    0.141755 0.359005 0.410896 0.152220
H13   H     H_    0.727231 0.563554 0.245832 0.198919
H14   H     H_    0.595046 0.406645 0.974714 0.169976
H15   H     H_    0.235735 0.533680 0.897630 0.181846
H16   H     H_    0.349843 0.364546 0.116176 0.181621
H17   H     H_    0.249982 0.504325 0.752992 0.165483
H18   H     H_    0.668780 0.588396 0.886287 0.183215
N1    N     N_R   0.857140 0.501200 0.500750 -0.116017
N2    N     N_R   0.142740 0.501280 0.500770 -0.126471
O1    O     O_R   0.385310 0.683220 0.500000 -0.646769
O2    O     O_R   0.614640 0.683250 0.500010 -0.636018
O3    O     O_R   0.371780 0.500010 0.615800 -0.655289
O4    O     O_R   0.601110 0.500030 0.615800 -0.638562
O5    O     O_R   0.385360 0.316750 0.499990 -0.625343
O6    O     O_R   0.614690 0.316780 0.500000 -0.618145
O7    O     O_R   0.398890 0.499970 0.384200 -0.608448
O8    O     O_R   0.628220 0.499990 0.384200 -0.613071
Zn1   Zn    Zn3+2 0.346870 0.499980 0.499990 0.926196
Zn2   Zn    Zn3+2 0.653130 0.500020 0.500010 0.940504
S1    S     S_3+6 0.793039 0.571266 0.077597 0.032365
O9    O     O_2   0.902273 0.608355 0.129784 -0.250748
O10   O     O_2   0.849497 0.474520 0.016635 -0.326690
O11   O     O_3   0.739918 0.698113 0.031356 -0.534591
H19   H     H_    0.818570 0.720940 0.994751 0.378296
C37   C     C_3   0.263342 0.223669 0.644016 -0.383319
C38   C     C_3   0.211140 0.178135 0.725578 -0.877869
H20   H     H_    0.101349 0.156945 0.727498 0.259931
H21   H     H_    0.268986 0.092712 0.740007 0.271391
H22   H     H_    0.224858 0.252359 0.771381 0.260390
H23   H     H_    0.369171 0.253314 0.649238 0.200947
H24   H     H_    0.201343 0.306370 0.629293 0.231922
C39   C     C_3   0.819853 0.831431 0.715499 -0.413680
C40   C     C_3   0.740749 0.929539 0.673282 -0.841547
H25   H     H_    0.809831 0.979667 0.630274 0.255470
H26   H     H_    0.659570 0.884323 0.641942 0.260240
H27   H     H_    0.691942 0.998892 0.717490 0.258865
H28   H     H_    0.747708 0.775596 0.753191 0.213515
H29   H     H_    0.885684 0.881115 0.755780 0.216953
S2    S     S_3+6 0.341069 0.660599 0.047543 0.055991
O12   O     O_2   0.221287 0.590760 0.083158 -0.266820
O13   O     O_2   0.417015 0.716460 0.112825 -0.255317
O14   O     O_3   0.285532 0.776076 0.992188 -0.547262
H30   H     H_    0.220249 0.826190 0.028573 0.392445

loop_
_geom_bond_atom_site_label_1
_geom_bond_atom_site_label_2
_ccdc_geom_bond_type
O7    Zn1   S    
C16   C21   A    
C38   H20   S    
C35   C36   A    
C15   C37   S    
C26   C27   A    
C37   H23   S    
C30   H12   S    
C34   C35   A    
C3    C7    A    
C5    C6    A    
C40   H25   S    
S2    O13   D    
C15   C16   A    
C2    C32   A    
C18   C19   A    
C13   H4    S    
C37   H24   S    
C12   O3    A    
C10   C31   S    
O2    Zn2   S    
C23   O6    A    
C22   H8    S    
C19   C20   A    
C8    C9    D    
O11   H19   S    
O4    Zn2   S    
C22   C28   A    
C13   C14   A    
C12   C32   S    
C38   H21   S    
C5    H13   S    
C40   H27   S    
C28   N1    A    
C33   C34   A    
C4    H9    S    
O6    Zn2   S    
S1    O9    D    
C31   O7    A    
C24   C25   A    
C40   H26   S    
S2    O12   D    
C16   C17   A    
C29   N1    A    
C25   C26   A    
C30   N2    A    
C2    H17   S    
C33   H1    S    
S1    O10   D    
C8    C35   S    
O8    Zn2   S    
C29   C30   A    
C19   H2    S    
C1    O1    A    
C24   C39   S    
C17   C18   A    
C1    C18   S    
C11   H3    S    
C36   H15   S    
C26   H11   S    
C14   H5    S    
C6    S1    S    
C34   H18   S    
C21   C23   S    
C38   H22   S    
C22   C24   A    
C4    C10   A    
C3    C4    A    
C39   H29   S    
N1    Zn2   S    
C2    C36   A    
C7    C9    S    
C11   C17   A    
C27   N2    A    
C31   O8    A    
C9    H14   S    
O1    Zn1   S    
C37   C38   S    
S2    O14   S    
C20   H6    S    
C3    H16   S    
C6    C7    A    
S1    O11   S    
C32   C33   A    
C5    C10   A    
C1    O2    A    
O3    Zn1   S    
C11   C13   A    
C39   H28   S    
C8    S2    S    
C39   C40   S    
C12   O4    A    
O5    Zn1   S    
C23   O5    A    
C20   C21   A    
C27   C28   A    
C14   C15   A    
O14   H30   S    
C25   H10   S    
C29   H7    S    
N2    Zn1   S    
