data_mof_unit_5806.cif
_audit_creation_date              2012-10-26T19:59:15-0400
_audit_creation_method            fapswitch 2.2
_symmetry_space_group_name_H-M    P1
_symmetry_Int_Tables_number       1
_space_group_crystal_system       triclinic
_cell_length_a                    7.413277
_cell_length_b                    8.697999
_cell_length_c                    15.835286
_cell_angle_alpha                 94.226707
_cell_angle_beta                  74.259935
_cell_angle_gamma                 103.288861
_cell_volume                      956.39658235

loop_
_atom_site_label
_atom_site_type_symbol
_atom_type_description
_atom_site_fract_x
_atom_site_fract_y
_atom_site_fract_z
_atom_type_partial_charge
C1    C     C_R   0.545199 0.800251 0.502592 0.558014
C2    C     C_R   0.618738 0.512369 0.333076 0.539418
C3    C     C_R   0.304724 0.470155 0.763541 -0.040123
C4    C     C_R   0.695275 0.529837 0.236459 -0.040126
C5    C     C_R   0.065646 0.358483 0.894531 -0.094784
C6    C     C_R   0.934362 0.641491 0.105467 -0.094785
C7    C     C_R   0.111813 0.397681 0.805785 -0.004256
C8    C     C_R   0.888190 0.602296 0.194214 -0.004253
C9    C     C_R   0.438677 0.514249 0.813773 -0.118300
C10   C     C_R   0.561324 0.485749 0.186227 -0.118294
C11   C     C_R   0.391645 0.480495 0.903684 0.037640
C12   C     C_R   0.454801 0.199749 0.497407 0.558011
C13   C     C_R   0.608362 0.519493 0.096314 0.037642
C14   C     C_R   0.203068 0.396716 0.942722 0.015346
C15   C     C_R   0.796942 0.603263 0.057276 0.015345
C16   C     C_R   0.527548 0.523416 0.955188 0.050701
C17   C     C_R   0.472461 0.476568 0.044809 0.050703
C18   C     C_2   0.045458 0.638406 0.238986 0.230587
C19   C     C_2   0.954541 0.361552 0.761012 0.230585
C20   C     C_R   0.283790 0.387826 0.079642 -0.114322
C21   C     C_R   0.716223 0.612152 0.920354 -0.114323
C22   C     C_R   0.152010 0.350722 0.029786 -0.131402
C23   C     C_R   0.848004 0.649252 0.970211 -0.131402
C24   C     C_2   0.570638 0.968153 0.503880 -0.143582
C25   C     C_2   0.429362 0.031847 0.496120 -0.143582
C26   C     C_R   0.381262 0.487629 0.666923 0.539420
Cu1   Cu    Cu3+1 0.322120 0.483240 0.490330 0.967094
Cu2   Cu    Cu3+1 0.677880 0.516760 0.509670 0.967094
H1    H     H_    0.008220 0.284686 0.059869 0.119732
H2    H     H_    0.293271 0.960301 0.488769 0.141496
H3    H     H_    0.003765 0.614848 0.568695 0.233132
H4    H     H_    0.996234 0.385151 0.431305 0.233129
H5    H     H_    0.045107 0.565495 0.291465 0.134874
H6    H     H_    0.954878 0.434457 0.708532 0.134879
H7    H     H_    0.991797 0.715281 0.940127 0.119734
H8    H     H_    0.417837 0.428919 0.220192 0.128713
H9    H     H_    0.582159 0.571093 0.779808 0.128708
H10   H     H_    0.919904 0.299499 0.927026 0.161776
H11   H     H_    0.080107 0.700466 0.072972 0.161777
H12   H     H_    0.231393 0.343706 0.145486 0.103834
H13   H     H_    0.768626 0.656266 0.854509 0.103835
H14   H     H_    0.706729 0.039699 0.511231 0.141495
N1    N     N_2   0.945180 0.542040 0.524240 -0.259935
N2    N     N_2   0.054820 0.457960 0.475760 -0.259935
O1    O     O_R   0.384450 0.714270 0.493720 -0.500748
O2    O     O_2   0.816820 0.251837 0.784961 -0.507437
O3    O     O_R   0.615550 0.285730 0.506280 -0.500751
O4    O     O_R   0.684880 0.742590 0.510050 -0.490169
O5    O     O_R   0.315120 0.257410 0.489950 -0.490172
O6    O     O_R   0.265540 0.477900 0.617090 -0.524028
O7    O     O_R   0.734460 0.522100 0.382910 -0.524026
O8    O     O_R   0.565970 0.506210 0.633420 -0.493270
O9    O     O_R   0.434030 0.493790 0.366580 -0.493268
O10   O     O_2   0.183190 0.748109 0.215037 -0.507440

loop_
_geom_bond_atom_site_label_1
_geom_bond_atom_site_label_2
_ccdc_geom_bond_type
C2    C4    S    
N1    N2    D    
Cu1   O9    S    
C1    O4    A    
C16   C21   A    
C3    C9    A    
C22   H1    S    
C26   O8    A    
C18   H5    S    
C24   H14   S    
C11   C16   A    
Cu2   N1    S    
C23   H7    S    
Cu1   O6    S    
C13   C17   A    
C12   C25   S    
C4    C8    A    
C14   C22   A    
C26   O6    A    
C12   O5    A    
H4    N2    S    
C19   O2    D    
Cu2   O3    S    
C10   C13   A    
C5    H10   S    
C9    C11   A    
C1    O1    A    
C5    C14   A    
H3    N1    S    
C12   O3    A    
C21   H13   S    
C6    C8    A    
C15   C23   A    
C11   C14   A    
C20   C22   A    
C3    C7    A    
C13   C15   A    
C21   C23   A    
C20   H12   S    
Cu2   O7    S    
Cu1   O1    S    
C18   O10   D    
C4    C10   A    
Cu1   Cu2   S    
C17   C20   A    
C24   C25   D    
C1    C24   S    
C9    H9    S    
C2    O7    A    
C25   H2    S    
C5    C7    A    
C6    H11   S    
Cu2   O4    S    
C7    C19   S    
Cu2   O8    S    
C6    C15   A    
Cu1   N2    S    
C2    O9    A    
C3    C26   S    
C8    C18   S    
Cu1   O5    S    
C16   C17   A    
C10   H8    S    
C19   H6    S    
