data_mof_unit_68074.cif
_audit_creation_date              2012-12-11T14:49:40-0500
_audit_creation_method            fapswitch 2.2
_symmetry_space_group_name_H-M    P1
_symmetry_Int_Tables_number       1
_space_group_crystal_system       triclinic
_cell_length_a                    16.97172
_cell_length_b                    7.111031
_cell_length_c                    16.792977
_cell_angle_alpha                 90.000707
_cell_angle_beta                  100.538015
_cell_angle_gamma                 90.000192
_cell_volume                      1992.50188905

loop_
_atom_site_label
_atom_site_type_symbol
_atom_type_description
_atom_site_fract_x
_atom_site_fract_y
_atom_site_fract_z
_atom_type_partial_charge
O1    O     O_R   0.579510 0.506290 0.439030 -0.537517
O2    O     O_R   0.420490 0.006290 0.560970 -0.537524
O3    O     O_R   0.412540 0.170090 0.405290 -0.524332
O4    O     O_R   0.587460 0.670090 0.594710 -0.524346
C1    C     C_R   0.387023 0.346014 0.380526 0.715955
C2    C     C_R   0.612976 0.846014 0.619476 0.715948
O5    O     O_R   0.578390 0.176230 0.429330 -0.542048
O6    O     O_R   0.421610 0.676230 0.570670 -0.542055
O7    O     O_R   0.587530 0.011250 0.585190 -0.552825
O8    O     O_R   0.412470 0.511250 0.414810 -0.552838
C3    C     C_R   0.603539 0.345018 0.412903 0.691373
C4    C     C_R   0.396463 0.845021 0.587098 0.691365
O9    O     O_3   0.502800 0.340940 0.551110 -0.377290
O10   O     O_3   0.497200 0.840940 0.448890 -0.377284
V1    V     V_3+5 0.499480 0.064020 0.490520 1.389571
V2    V     V_3+5 0.500520 0.564020 0.509480 1.389545
C5    C     C_R   0.166198 0.904363 0.860631 -0.189258
C6    C     C_R   0.833792 0.404367 0.139358 -0.189283
C7    C     C_R   0.330147 0.852874 0.633828 -0.152917
C8    C     C_R   0.669853 0.352860 0.366170 -0.152952
C9    C     C_R   0.186736 0.847549 0.641649 0.333510
C10   C     C_R   0.813262 0.347396 0.358335 0.333532
C11   C     C_R   0.248728 0.838549 0.594916 0.211382
C12   C     C_R   0.751272 0.338440 0.405074 0.211445
C13   C     C_R   0.348401 0.874023 0.718243 -0.263567
C14   C     C_R   0.651598 0.374060 0.281758 -0.263559
C15   C     C_R   0.287492 0.879164 0.764945 0.041476
C16   C     C_R   0.712503 0.379173 0.235051 0.041447
C17   C     C_R   0.206068 0.864110 0.727272 -0.019163
C18   C     C_R   0.793927 0.364036 0.272716 -0.019178
C19   C     C_R   0.146031 0.862852 0.776842 0.394674
C20   C     C_R   0.853959 0.362783 0.223140 0.394796
C21   C     C_R   0.247184 0.906865 0.896448 -0.259194
C22   C     C_R   0.752805 0.406922 0.103546 -0.259187
C23   C     C_R   0.307225 0.894540 0.849537 -0.143794
C24   C     C_R   0.692767 0.394605 0.150461 -0.143778
H1    H     H_    0.263952 0.917772 0.961359 0.141683
H2    H     H_    0.736034 0.417861 0.038636 0.141682
H3    H     H_    0.369390 0.899200 0.879562 0.116945
H4    H     H_    0.630601 0.399316 0.120442 0.116951
H5    H     H_    0.410667 0.884695 0.747791 0.119283
H6    H     H_    0.589333 0.384793 0.252215 0.119291
C25   C     C_3   0.745549 0.756087 0.837451 0.170565
C26   C     C_3   0.254436 0.256071 0.162565 0.170539
H7    H     H_    0.779327 0.623992 0.856012 0.170287
H8    H     H_    0.220655 0.123974 0.144009 0.170245
C27   C     C_3   0.682494 0.711966 0.758582 0.210937
C28   C     C_3   0.317495 0.211959 0.241430 0.210969
H9    H     H_    0.621230 0.708054 0.774124 0.076687
H10   H     H_    0.378758 0.208051 0.225881 0.076676
C29   C     C_3   0.834404 0.854101 0.737853 0.512367
C30   C     C_3   0.165589 0.354121 0.262171 0.512366
C31   C     C_3   0.753522 0.104558 0.801625 0.737770
C32   C     C_3   0.246473 0.604548 0.198383 0.737782
C33   C     C_3   0.804776 0.915485 0.818607 -0.202300
C34   C     C_3   0.195214 0.415478 0.181410 -0.202308
C35   C     C_3   0.682566 0.866512 0.692488 -0.196308
C36   C     C_3   0.317429 0.366515 0.307521 -0.196291
C37   C     C_3   0.763885 0.863551 0.663286 0.350674
C38   C     C_3   0.236113 0.363584 0.336732 0.350724
C39   C     C_3   0.677072 0.061426 0.734579 -0.513695
C40   C     C_3   0.322926 0.561422 0.265425 -0.513710
H11   H     H_    0.618359 0.066755 0.753437 0.128637
H12   H     H_    0.381639 0.566745 0.246563 0.128626
H13   H     H_    0.672893 0.173984 0.688361 0.208998
H14   H     H_    0.327108 0.673986 0.311642 0.208997
H15   H     H_    0.767481 0.000780 0.631374 0.092182
H16   H     H_    0.232525 0.500830 0.368637 0.092156
O11   O     O_R   0.087500 0.266000 0.085220 -0.541480
O12   O     O_R   0.912500 0.766000 0.914780 -0.541448
O13   O     O_R   0.921600 0.589950 0.070670 -0.549773
O14   O     O_R   0.078400 0.089950 0.929330 -0.549735
C41   C     C_R   0.896135 0.420345 0.087255 0.724274
C42   C     C_R   0.103856 0.920342 0.912735 0.724338
O15   O     O_R   0.087460 0.596020 0.094710 -0.530070
O16   O     O_R   0.912540 0.096020 0.905290 -0.530102
O17   O     O_R   0.079520 0.760970 0.939020 -0.540445
O18   O     O_R   0.920480 0.260970 0.060980 -0.540464
C43   C     C_R   0.120064 0.428264 0.113163 0.684081
C44   C     C_R   0.879928 0.928267 0.886850 0.684052
O19   O     O_3   0.997180 0.425140 0.948910 -0.381288
O20   O     O_3   0.002820 0.925140 0.051090 -0.381302
V3    V     V_3+5 0.000520 0.702080 0.009480 1.390721
V4    V     V_3+5 0.999480 0.202080 0.990520 1.390712
O21   O     O_3   0.069269 0.803976 0.744970 -0.559821
C45   C     C_3   0.059019 0.615320 0.768912 0.101099
H17   H     H_    0.007419 0.610862 0.800688 0.179319
H18   H     H_    0.110654 0.554920 0.812280 0.095497
C46   C     C_3   0.043080 0.488660 0.694548 -0.349912
H19   H     H_    0.997677 0.552288 0.646011 0.224421
H20   H     H_    0.099400 0.473672 0.671644 0.209176
C47   C     C_3   0.015461 0.294453 0.715538 -0.721712
H21   H     H_    0.061561 0.227434 0.762371 0.221708
H22   H     H_    0.005546 0.204631 0.660512 0.271454
H23   H     H_    0.958541 0.306488 0.738780 0.270486
O22   O     O_3   0.930721 0.303884 0.254998 -0.559856
C48   C     C_3   0.940976 0.115273 0.230999 0.101084
H24   H     H_    0.992645 0.110846 0.199324 0.179424
H25   H     H_    0.889394 0.055010 0.187518 0.095547
C49   C     C_3   0.956750 0.988429 0.305306 -0.350250
H26   H     H_    0.002025 0.052003 0.353971 0.224730
H27   H     H_    0.900332 0.973253 0.328001 0.209128
C50   C     C_3   0.984498 0.794351 0.284323 -0.722071
H28   H     H_    0.938608 0.727517 0.237231 0.221769
H29   H     H_    0.994129 0.704265 0.339271 0.271498
H30   H     H_    0.041594 0.806562 0.261434 0.270702
O23   O     O_3   0.700531 0.536058 0.728561 -0.587916
H31   H     H_    0.649486 0.478891 0.701705 0.300331
O24   O     O_3   0.299466 0.036052 0.271458 -0.587894
H32   H     H_    0.350520 0.978859 0.298275 0.300295
O25   O     O_3   0.863829 0.668427 0.747660 -0.633030
H33   H     H_    0.890058 0.639588 0.701094 0.330259
O26   O     O_3   0.136160 0.168443 0.252384 -0.633030
H34   H     H_    0.109901 0.139666 0.298941 0.330260
O27   O     O_3   0.766647 0.708572 0.610307 -0.538689
C51   C     C_3   0.804237 0.758030 0.544764 0.054294
H35   H     H_    0.834855 0.631475 0.526792 0.185606
H36   H     H_    0.852198 0.866033 0.560962 0.146625
C52   C     C_3   0.740902 0.823073 0.473340 -0.287453
H37   H     H_    0.696193 0.710636 0.456549 0.223858
H38   H     H_    0.709558 0.949348 0.490671 0.199909
C53   C     C_3   0.778340 0.870040 0.400511 -0.828645
H39   H     H_    0.823541 0.981553 0.418370 0.252674
H40   H     H_    0.731699 0.921684 0.350081 0.234858
H41   H     H_    0.807657 0.744331 0.379795 0.236282
O28   O     O_3   0.233347 0.208627 0.389721 -0.538658
C54   C     C_3   0.195786 0.258143 0.455281 0.054406
H42   H     H_    0.165147 0.131627 0.473259 0.185605
H43   H     H_    0.147845 0.366200 0.439100 0.146612
C55   C     C_3   0.259155 0.323123 0.526691 -0.287510
H44   H     H_    0.303837 0.210625 0.543472 0.223887
H45   H     H_    0.290524 0.449349 0.509348 0.199893
C56   C     C_3   0.221753 0.370176 0.599537 -0.828632
H46   H     H_    0.176608 0.481807 0.581689 0.252626
H47   H     H_    0.268426 0.421710 0.649965 0.234889
H48   H     H_    0.192378 0.244544 0.620249 0.236299
O29   O     O_3   0.799614 0.234156 0.765803 -0.607412
H49   H     H_    0.832805 0.310397 0.808775 0.345643
O30   O     O_3   0.200387 0.734165 0.234206 -0.607433
H50   H     H_    0.167194 0.810400 0.191234 0.345631
O31   O     O_3   0.738902 0.189385 0.875847 -0.580768
C57   C     C_3   0.660521 0.187423 0.895495 0.083732
H51   H     H_    0.669574 0.184868 0.962307 0.142998
H52   H     H_    0.623374 0.063101 0.875972 0.162385
C58   C     C_3   0.612457 0.364685 0.869061 -0.347094
H53   H     H_    0.649528 0.487653 0.890963 0.244737
H54   H     H_    0.595318 0.368127 0.802414 0.192257
C59   C     C_3   0.535695 0.372747 0.904437 -0.873156
H55   H     H_    0.496837 0.249843 0.883835 0.233676
H56   H     H_    0.502155 0.503289 0.883795 0.240726
H57   H     H_    0.550118 0.373814 0.971680 0.226403
O32   O     O_3   0.261084 0.689348 0.124153 -0.580769
C60   C     C_3   0.339464 0.687391 0.104500 0.083707
H58   H     H_    0.330405 0.684801 0.037687 0.143021
H59   H     H_    0.376619 0.563082 0.124029 0.162343
C61   C     C_3   0.387520 0.864682 0.130920 -0.347014
H60   H     H_    0.350410 0.987620 0.109061 0.244749
H61   H     H_    0.404719 0.868093 0.197571 0.192143
C62   C     C_3   0.464240 0.872864 0.095458 -0.872978
H62   H     H_    0.503132 0.749980 0.116004 0.233644
H63   H     H_    0.497777 0.003420 0.116093 0.240694
H64   H     H_    0.449748 0.873988 0.028210 0.226341
O33   O     O_3   0.895457 0.974177 0.721470 -0.654975
H65   H     H_    0.944136 0.949353 0.762349 0.318449
O34   O     O_3   0.104541 0.474216 0.278552 -0.654988
H66   H     H_    0.055860 0.449380 0.237675 0.318427
O35   O     O_3   0.106752 0.845051 0.604888 -0.627479
H67   H     H_    0.101387 0.838525 0.545311 0.324320
O36   O     O_3   0.893246 0.344789 0.395089 -0.627511
H68   H     H_    0.898615 0.338225 0.454665 0.324308
O37   O     O_3   0.227027 0.812264 0.512027 -0.659115
H69   H     H_    0.274498 0.815064 0.485647 0.303528
O38   O     O_3   0.772974 0.312124 0.487959 -0.659143
H70   H     H_    0.725508 0.314996 0.514345 0.303501
O39   O     O_3   0.701222 0.806369 0.898123 -0.609237
C63   C     C_3   0.745648 0.808778 0.977770 0.052616
H71   H     H_    0.783440 0.936828 0.987476 0.155563
H72   H     H_    0.784181 0.682865 0.990364 0.120465
C64   C     C_3   0.686373 0.816602 0.036793 -0.298484
H73   H     H_    0.638350 0.920644 0.016521 0.190020
H74   H     H_    0.654926 0.680379 0.036759 0.194205
C65   C     C_3   0.727667 0.869284 0.122496 -0.807469
H75   H     H_    0.780362 0.778398 0.143677 0.239122
H76   H     H_    0.684790 0.854849 0.164776 0.235820
H77   H     H_    0.748274 0.017119 0.123626 0.231054
O40   O     O_3   0.298762 0.306351 0.101892 -0.609234
C66   C     C_3   0.254342 0.308713 0.022243 0.052670
H78   H     H_    0.216543 0.436751 0.012526 0.155581
H79   H     H_    0.215818 0.182783 0.009655 0.120457
C67   C     C_3   0.313624 0.316527 0.963226 -0.298494
H80   H     H_    0.361652 0.420551 0.983506 0.190023
H81   H     H_    0.345062 0.180294 0.963257 0.194217
C68   C     C_3   0.272339 0.369232 0.877524 -0.807448
H82   H     H_    0.219644 0.278352 0.856332 0.239098
H83   H     H_    0.315221 0.354806 0.835248 0.235822
H84   H     H_    0.251733 0.517067 0.876400 0.231063

loop_
_geom_bond_atom_site_label_1
_geom_bond_atom_site_label_2
_ccdc_geom_bond_type
C36   C40   S    
C25   O39   S    
O37   H69   S    
C67   H80   S    
C19   O21   S    
O19   V4    S    
C15   C17   A    
O36   H68   S    
C23   H3    S    
O33   H65   S    
O1    C3    A    
C59   H57   S    
O2    C4    A    
O16   V4    S    
C2    O7    A    
C48   H24   S    
C6    C20   A    
C27   H9    S    
O21   C45   S    
O5    C3    A    
O34   H66   S    
C34   C43   S    
C1    C36   S    
C31   O29   S    
C61   H60   S    
C59   H56   S    
C28   H10   S    
C1    O8    A    
C45   H18   S    
C35   C37   S    
O17   V3    S    
C36   C38   S    
O27   C51   S    
C51   H35   S    
C57   H51   S    
C39   H11   S    
C65   H75   S    
C49   H26   S    
C66   C67   S    
C40   H12   S    
C30   C38   S    
C67   C68   S    
C58   H54   S    
C30   C34   S    
C31   C39   S    
C63   C64   S    
C62   H62   S    
C68   H83   S    
C42   O17   A    
C56   H48   S    
C67   H81   S    
C41   O18   A    
C62   H63   S    
C29   O33   S    
C60   H59   S    
C31   O31   S    
C29   C33   S    
C64   C65   S    
C37   H15   S    
C31   C33   S    
C28   O24   S    
O6    V2    S    
C2    C35   S    
O15   C43   A    
C5    C21   A    
C12   O38   S    
C49   H27   S    
O19   V3    S    
C26   H8    S    
C58   H53   S    
O13   V3    S    
C52   H38   S    
O30   H50   S    
C32   C34   S    
C3    C8    S    
C57   C58   S    
C40   H14   S    
O12   C44   A    
C8    C12   A    
C24   H4    S    
C59   H55   S    
O14   C42   A    
C48   H25   S    
C13   H5    S    
O35   H67   S    
O13   C41   A    
C45   H17   S    
C32   O32   S    
O5    V1    S    
C32   C40   S    
C15   C23   A    
O38   H70   S    
C9    C17   A    
C49   C50   S    
C21   H1    S    
C60   C61   S    
C65   H77   S    
O4    V2    S    
C55   H45   S    
C54   H43   S    
O12   V3    S    
C39   H13   S    
C30   O34   S    
C27   C35   S    
C25   H7    S    
C26   C34   S    
C32   O30   S    
O20   V4    S    
O6    C4    A    
C68   H84   S    
O22   C48   S    
C47   H22   S    
C62   H64   S    
C11   O37   S    
C50   H29   S    
O1    V2    S    
C46   C47   S    
C35   C39   S    
O2    V1    S    
C6    C22   A    
C16   C24   A    
O14   V4    S    
O40   C66   S    
O4    C2    A    
C63   H71   S    
C20   O22   S    
O20   V3    S    
C6    C41   S    
C27   O23   S    
C9    C11   A    
C56   H46   S    
C5    C19   A    
C10   C12   A    
O11   C43   A    
C55   C56   S    
C46   H20   S    
O23   H31   S    
C53   H40   S    
C54   H42   S    
C48   C49   S    
O3    V1    S    
C58   C59   S    
C14   H6    S    
O11   V4    S    
C56   H47   S    
O26   H34   S    
C52   C53   S    
C25   C33   S    
C29   O25   S    
C10   C18   A    
O25   H33   S    
C22   H2    S    
C61   C62   S    
O16   C44   A    
O3    C1    A    
C45   C46   S    
C52   H37   S    
C28   C36   S    
C13   C15   A    
O29   H49   S    
C14   C16   A    
C9    O35   S    
C51   C52   S    
C53   H41   S    
C38   O28   S    
C55   H44   S    
C46   H19   S    
C54   C55   S    
C16   C18   A    
C17   C19   A    
O39   C63   S    
O8    V2    S    
O24   H32   S    
C18   C20   A    
C33   C44   S    
O15   V3    S    
C5    C42   S    
C8    C14   A    
O28   C54   S    
C30   O26   S    
C4    C7    S    
C61   H61   S    
C47   H21   S    
C21   C23   A    
C51   H36   S    
C50   H30   S    
C22   C24   A    
C47   H23   S    
O7    V1    S    
C7    C13   A    
C65   H76   S    
C66   H79   S    
C10   O36   S    
C64   H73   S    
O18   V4    S    
C7    C11   A    
C66   H78   S    
C29   C37   S    
O32   C60   S    
C38   H16   S    
C37   O27   S    
C68   H82   S    
O9    V2    S    
C50   H28   S    
C53   H39   S    
O10   V1    S    
C60   H58   S    
O31   C57   S    
C25   C27   S    
C57   H52   S    
C26   C28   S    
C26   O40   S    
C63   H72   S    
C64   H74   S    
