data_mof_unit_12346.cif
_audit_creation_date              2012-12-10T17:46:13-0500
_audit_creation_method            fapswitch 2.2
_symmetry_space_group_name_H-M    P1
_symmetry_Int_Tables_number       1
_space_group_crystal_system       triclinic
_cell_length_a                    14.149222
_cell_length_b                    10.641362
_cell_length_c                    9.929136
_cell_angle_alpha                 89.815179
_cell_angle_beta                  89.951753
_cell_angle_gamma                 91.603454
_cell_volume                      1494.40633161

loop_
_atom_site_label
_atom_site_type_symbol
_atom_type_description
_atom_site_fract_x
_atom_site_fract_y
_atom_site_fract_z
_atom_type_partial_charge
C1    C     C_R   0.501278 0.260812 0.500254 0.859295
C2    C     C_R   0.427123 0.063946 0.449195 -0.216248
C3    C     C_R   0.424808 0.934661 0.448485 0.180670
C4    C     C_R   0.329296 0.499680 0.500083 0.871337
C5    C     C_R   0.503585 0.872129 0.499055 -0.120645
C6    C     C_R   0.377229 0.333811 0.140372 -0.202409
C7    C     C_R   0.317616 0.250708 0.070847 -0.194577
C8    C     C_R   0.317424 0.249976 0.930839 0.218914
C9    C     C_R   0.377463 0.333557 0.860862 -0.165659
C10   C     C_R   0.439698 0.417927 0.928143 0.121954
C11   C     C_R   0.439661 0.418016 0.072545 0.171573
C12   C     C_1   0.772201 0.500181 0.499933 -0.213938
C13   C     C_R   0.557737 0.578559 0.071085 -0.108033
C14   C     C_R   0.557713 0.578536 0.928088 -0.099835
C15   C     C_R   0.500387 0.739343 0.499716 0.885893
C16   C     C_R   0.670713 0.500409 0.499928 0.862776
C17   C     C_1   0.227815 0.499520 0.500214 -0.210226
C18   C     C_1   0.142549 0.499463 0.500290 -0.011932
C19   C     C_1   0.042639 0.499515 0.500305 0.004751
C20   C     C_1   0.957369 0.499662 0.500237 0.003298
C21   C     C_1   0.857462 0.499929 0.500077 -0.013439
C22   C     C_3   0.253337 0.160799 0.854431 -0.917490
C23   C     C_R   0.666208 0.135510 0.598343 -0.155671
C24   C     C_3   0.337463 0.865267 0.397010 -0.875490
C25   C     C_R   0.744707 0.071952 0.644619 -0.134420
C26   C     C_R   0.744374 0.941245 0.643001 -0.135055
C27   C     C_R   0.665491 0.873744 0.595288 -0.172203
C28   C     C_R   0.584693 0.936778 0.549116 0.049973
C29   C     C_R   0.585345 0.068340 0.550477 0.096142
C30   C     C_R   0.505440 0.128862 0.500689 -0.133211
H1    H     H_    0.367160 0.114940 0.411542 0.133697
H2    H     H_    0.271179 0.187034 0.127034 0.148849
H3    H     H_    0.210029 0.100183 0.923339 0.243843
H4    H     H_    0.204932 0.214883 0.789738 0.240629
H5    H     H_    0.296297 0.099406 0.789686 0.248236
H6    H     H_    0.355241 0.809442 0.306705 0.259112
H7    H     H_    0.308511 0.801466 0.476576 0.228952
H8    H     H_    0.281089 0.930719 0.368028 0.229039
H9    H     H_    0.373082 0.329742 0.754041 0.208832
H10   H     H_    0.604830 0.642819 0.874164 0.145115
H11   H     H_    0.669936 0.237086 0.599338 0.141141
H12   H     H_    0.806200 0.124305 0.680897 0.139856
H13   H     H_    0.805632 0.891959 0.678005 0.138016
H14   H     H_    0.669031 0.772401 0.593892 0.133168
H15   H     H_    0.604882 0.642840 0.124373 0.147545
H16   H     H_    0.371910 0.329177 0.247137 0.205974
N1    N     N_R   0.499190 0.498800 0.142780 -0.109376
N2    N     N_R   0.499160 0.498720 0.857170 -0.108171
O1    O     O_R   0.500000 0.316780 0.614690 -0.631352
O2    O     O_R   0.499990 0.316750 0.385360 -0.620871
O3    O     O_R   0.373720 0.500010 0.614690 -0.610974
O4    O     O_R   0.373710 0.499990 0.385360 -0.612820
O5    O     O_R   0.500010 0.683250 0.614640 -0.610224
O6    O     O_R   0.500000 0.683220 0.385310 -0.606631
O7    O     O_R   0.626290 0.500010 0.614640 -0.604530
O8    O     O_R   0.626280 0.499990 0.385310 -0.587402
Zn1   Zn    Zn3+2 0.500010 0.500020 0.653130 0.929389
Zn2   Zn    Zn3+2 0.499990 0.499980 0.346870 0.934863

loop_
_geom_bond_atom_site_label_1
_geom_bond_atom_site_label_2
_ccdc_geom_bond_type
C25   H12   S    
C8    C9    A    
C8    C22   S    
C16   O8    A    
C6    C7    A    
O3    Zn1   S    
C5    C28   A    
C9    C10   A    
C11   N1    A    
C19   C20   T    
C23   H11   S    
C9    H9    S    
C2    C30   A    
C23   C25   A    
C17   C18   T    
C26   C27   A    
C16   O7    A    
N2    Zn1   S    
C13   C14   A    
N1    Zn2   S    
C13   H15   S    
C22   H5    S    
C3    C24   S    
C24   H6    S    
O4    Zn2   S    
C4    O4    A    
C4    C17   S    
C23   C29   A    
C28   C29   A    
O8    Zn2   S    
C26   H13   S    
C24   H7    S    
C2    C3    A    
O7    Zn1   S    
C10   N2    A    
C22   H4    S    
C5    C15   S    
C10   C11   A    
C4    O3    A    
C29   C30   A    
C24   H8    S    
O2    Zn2   S    
C15   O6    A    
C15   O5    A    
C7    C8    A    
O1    Zn1   S    
C20   C21   S    
C18   C19   S    
C1    O2    A    
O6    Zn2   S    
C6    C11   A    
C13   N1    A    
C22   H3    S    
O5    Zn1   S    
C1    C30   S    
C14   N2    A    
C7    H2    S    
C6    H16   S    
C3    C5    A    
C25   C26   A    
C27   H14   S    
C14   H10   S    
C12   C21   T    
C12   C16   S    
C2    H1    S    
C27   C28   A    
C1    O1    A    
