data_mof_unit_15414.cif
_audit_creation_date              2012-12-11T15:34:14-0500
_audit_creation_method            fapswitch 2.2
_symmetry_space_group_name_H-M    P1
_symmetry_Int_Tables_number       1
_space_group_crystal_system       triclinic
_cell_length_a                    15.012579
_cell_length_b                    15.009413
_cell_length_c                    34.921285
_cell_angle_alpha                 90.60565
_cell_angle_beta                  89.746653
_cell_angle_gamma                 60.190204
_cell_volume                      6826.80939787

loop_
_atom_site_label
_atom_site_type_symbol
_atom_type_description
_atom_site_fract_x
_atom_site_fract_y
_atom_site_fract_z
_atom_type_partial_charge
C1    C     C_R   0.301094 0.609187 0.555865 0.561997
C2    C     C_R   0.656070 0.668765 0.668327 0.102410
C3    C     C_R   0.217969 0.672927 0.273129 0.165512
C4    C     C_R   0.135440 0.688119 0.296935 0.075143
C5    C     C_R   0.041541 0.709619 0.281130 -0.067633
C6    C     C_R   0.029299 0.714581 0.241376 0.165058
C7    C     C_R   0.113387 0.694284 0.217388 0.069848
C8    C     C_R   0.171358 0.583546 0.356376 0.064919
C9    C     C_R   0.212430 0.564286 0.393790 0.066948
C10   C     C_R   0.200790 0.732059 0.395011 -0.136706
C11   C     C_R   0.160068 0.751247 0.358569 -0.115564
C12   C     C_R   0.150579 0.675784 0.338381 -0.020940
C13   C     C_R   0.565628 0.734653 0.648585 0.070960
C14   C     C_R   0.233295 0.636603 0.412082 0.033849
C15   C     C_R   0.735548 0.027350 0.943628 0.564255
C16   C     C_R   0.745101 0.722306 0.945196 0.570832
C17   C     C_R   0.041230 0.732259 0.949045 0.563745
C18   C     C_R   0.723044 0.038385 0.053265 0.587174
C19   C     C_R   0.732583 0.734014 0.054570 0.572426
C20   C     C_R   0.027829 0.744759 0.057950 0.566632
C21   C     C_R   0.554039 0.712408 0.610522 -0.120690
C22   C     C_R   0.671305 0.681249 0.787474 0.414375
C23   C     C_R   0.659601 0.679168 0.710164 0.399214
C24   C     C_R   0.768378 0.604267 0.847428 0.016110
C25   C     C_R   0.784313 0.616075 0.886118 -0.149994
C26   C     C_R   0.615288 0.768372 0.891699 0.025706
C27   C     C_R   0.600173 0.760863 0.852051 0.008260
C28   C     C_R   0.679103 0.681214 0.829573 -0.041220
C29   C     C_R   0.610571 0.588688 0.555310 0.555243
C30   C     C_R   0.711743 0.699896 0.908016 -0.044511
C31   C     C_R   0.720074 0.080620 0.906557 -0.037553
C32   C     C_R   0.628373 0.108536 0.887190 -0.129755
C33   C     C_R   0.617625 0.132261 0.848372 0.036461
C34   C     C_R   0.701816 0.127499 0.828248 -0.012371
C35   C     C_R   0.790518 0.111617 0.848099 0.041862
C36   C     C_R   0.799250 0.089476 0.887673 0.021917
C37   C     C_R   0.685907 0.224234 0.769987 -0.060405
C38   C     C_R   0.675130 0.239196 0.730621 0.047938
C39   C     C_R   0.683104 0.158737 0.706613 0.037971
C40   C     C_R   0.590457 0.298970 0.553259 0.573303
C41   C     C_R   0.699191 0.065748 0.722519 0.089800
C42   C     C_R   0.706106 0.052992 0.762712 0.118594
C43   C     C_R   0.699665 0.133639 0.786114 0.029342
C44   C     C_R   0.583360 0.178909 0.647219 0.152027
C45   C     C_R   0.563384 0.207906 0.608590 0.108177
C46   C     C_R   0.716132 0.225345 0.606186 -0.139898
C47   C     C_R   0.738809 0.190883 0.643632 -0.119040
C48   C     C_R   0.670057 0.172987 0.664860 0.109507
C49   C     C_R   0.625995 0.239096 0.588886 0.047796
C50   C     C_R   0.104499 0.688679 0.913842 -0.061558
C51   C     C_R   0.298243 0.611041 0.446512 0.563788
C52   C     C_R   0.168857 0.724927 0.899072 0.085035
C53   C     C_R   0.201580 0.703544 0.860376 0.092442
C54   C     C_R   0.173334 0.643598 0.837484 0.048504
C55   C     C_R   0.121556 0.596833 0.854036 0.104195
C56   C     C_R   0.087863 0.619543 0.891832 -0.094900
C57   C     C_R   0.272159 0.565099 0.775818 0.026602
C58   C     C_R   0.274227 0.566547 0.735663 -0.144127
C59   C     C_R   0.191962 0.641800 0.714968 -0.023752
C60   C     C_R   0.104118 0.718487 0.734444 0.138696
C61   C     C_R   0.100841 0.718916 0.774642 0.051103
C62   C     C_R   0.609119 0.591012 0.445558 0.581683
C63   C     C_R   0.183980 0.641923 0.795386 -0.044873
C64   C     C_R   0.206018 0.724485 0.655034 0.099603
C65   C     C_R   0.221844 0.721383 0.615039 0.039916
C66   C     C_R   0.235485 0.551871 0.611748 0.078009
C67   C     C_R   0.214828 0.558845 0.651160 -0.106601
C68   C     C_R   0.203779 0.642306 0.672936 0.055380
C69   C     C_R   0.246547 0.630110 0.593696 0.006594
C70   C     C_R   0.691794 0.718370 0.091159 -0.044727
C71   C     C_R   0.589065 0.783391 0.103992 0.006608
C72   C     C_R   0.564029 0.782808 0.143305 0.014244
C73   C     C_R   0.589883 0.299785 0.444281 0.557492
C74   C     C_R   0.640713 0.714243 0.168462 0.003076
C75   C     C_R   0.738446 0.642016 0.154105 0.088834
C76   C     C_R   0.762907 0.644894 0.116026 -0.084032
C77   C     C_R   0.577222 0.661904 0.225819 0.132895
C78   C     C_R   0.575065 0.653645 0.265742 -0.005244
C79   C     C_R   0.618154 0.697890 0.289439 0.049264
C80   C     C_R   0.658447 0.755682 0.273588 -0.094131
C81   C     C_R   0.659579 0.765633 0.234032 -0.112166
C82   C     C_R   0.621586 0.716929 0.210009 0.084318
C83   C     C_R   0.556427 0.753888 0.356842 0.014673
C84   C     C_R   0.631614 0.624666 0.591851 -0.013419
C85   C     C_R   0.559179 0.730335 0.396106 -0.003563
C86   C     C_R   0.707223 0.559885 0.383468 0.058847
C87   C     C_R   0.705512 0.584035 0.344510 0.057394
C88   C     C_R   0.625891 0.678122 0.330889 -0.077562
C89   C     C_R   0.628633 0.629287 0.408784 -0.007337
C90   C     C_R   0.700998 0.096832 0.090013 0.012606
C91   C     C_R   0.760603 0.142283 0.101524 0.057943
C92   C     C_R   0.759552 0.170187 0.140405 0.083009
C93   C     C_R   0.695658 0.157693 0.166788 0.011426
C94   C     C_R   0.629880 0.123238 0.154530 -0.109633
C95   C     C_R   0.724877 0.564108 0.610578 -0.107375
C96   C     C_R   0.632231 0.091996 0.116733 0.050597
C97   C     C_R   0.623325 0.263161 0.226360 0.108253
C98   C     C_R   0.619813 0.268407 0.266879 0.101256
C99   C     C_R   0.692298 0.183241 0.288203 0.001346
C100  C     C_R   0.770926 0.095143 0.269276 0.066798
C101  C     C_R   0.773729 0.092172 0.229269 -0.148901
C102  C     C_R   0.699860 0.173670 0.208098 0.000023
C103  C     C_R   0.746654 0.211370 0.353449 0.096430
C104  C     C_R   0.720271 0.235336 0.392174 -0.138183
C105  C     C_R   0.577541 0.202709 0.385888 0.046307
C106  C     C_R   0.737950 0.585310 0.648694 0.072083
C107  C     C_R   0.603138 0.179795 0.347039 -0.087584
C108  C     C_R   0.683383 0.188788 0.330371 0.037213
C109  C     C_R   0.631358 0.240031 0.407998 -0.027244
C110  C     C_R   0.075795 0.713720 0.095942 -0.022527
C111  C     C_R   0.059949 0.642517 0.116482 -0.125677
C112  C     C_R   0.075637 0.631922 0.156003 0.130843
C113  C     C_R   0.105192 0.695551 0.175398 0.052436
C114  C     C_R   0.130056 0.759698 0.154629 -0.145975
C115  C     C_R   0.118918 0.767254 0.114899 0.034124
C116  C     C_R   0.206466 0.675046 0.233448 -0.099029
Cr1   Cr    Cr6+3 0.421670 0.426920 0.499620 1.107361
Cr2   Cr    Cr6+3 0.427030 0.651190 0.500980 1.092397
Cr3   Cr    Cr6+3 0.651280 0.421870 0.499380 1.050593
Cr4   Cr    Cr6+3 0.910810 0.908010 0.001130 1.130044
Cr5   Cr    Cr6+3 0.682800 0.909890 0.998370 1.112925
Cr6   Cr    Cr6+3 0.908370 0.682300 0.002180 1.050267
H1    H     H_    0.785940 0.496986 0.596228 0.138417
H2    H     H_    0.806241 0.185400 0.657069 0.125174
H3    H     H_    0.678898 0.285544 0.788735 0.185538
H4    H     H_    0.482102 0.761150 0.596342 0.171323
H5    H     H_    0.766452 0.246575 0.591545 0.142623
H6    H     H_    0.041501 0.588578 0.902974 0.175191
H7    H     H_    0.209661 0.497581 0.665284 0.115417
H8    H     H_    0.341319 0.509208 0.720040 0.180662
H9    H     H_    0.855909 0.560542 0.899012 0.186871
H10   H     H_    0.840871 0.592334 0.106558 0.167793
H11   H     H_    0.544084 0.609090 0.278418 0.139266
H12   H     H_    0.691724 0.790173 0.291766 0.131862
H13   H     H_    0.694332 0.807457 0.221931 0.117798
H14   H     H_    0.558767 0.157037 0.329142 0.169854
H15   H     H_    0.831148 0.023737 0.214260 0.151118
H16   H     H_    0.765307 0.258706 0.409318 0.169773
H17   H     H_    0.580016 0.115136 0.175063 0.147751
H18   H     H_    0.029950 0.598724 0.102182 0.137686
H19   H     H_    0.142844 0.822498 0.344906 0.181144
H20   H     H_    0.270515 0.660767 0.214930 0.104162
H21   H     H_    0.977944 0.722689 0.299669 0.118650
H22   H     H_    0.157928 0.804474 0.169657 0.159059
H23   H     H_    0.213089 0.790044 0.408742 0.180208
H24   H     H_    0.565603 0.107184 0.902091 0.197657
N1    N     N_R   0.587714 0.686938 0.770400 -0.168492
N2    N     N_R   0.581996 0.685991 0.732410 -0.183724
N3    N     N_R   0.743056 0.673791 0.727243 -0.180904
N4    N     N_R   0.748566 0.675304 0.765241 -0.172629
O1    O     O_R   0.502070 0.323090 0.541280 -0.445829
O2    O     O_R   0.520720 0.641670 0.461580 -0.483025
O3    O     O_R   0.674120 0.502090 0.457500 -0.467347
O4    O     O_R   0.640110 0.338380 0.459630 -0.509952
O5    O     O_3   0.499990 0.499990 0.499990 -0.276486
O6    O     O_R   0.017640 0.822070 0.960410 -0.459460
O7    O     O_R   0.822000 0.989470 0.960340 -0.467006
O8    O     O_R   0.666920 0.007430 0.955290 -0.509380
O9    O     O_R   0.694410 0.812480 0.959650 -0.467174
O10   O     O_R   0.831550 0.656950 0.958960 -0.512697
O11   O     O_R   0.998590 0.685540 0.963930 -0.508211
O12   O     O_R   0.338340 0.520690 0.539540 -0.467758
O13   O     O_R   0.008220 0.831200 0.045060 -0.463760
O14   O     O_R   0.813270 0.997930 0.038810 -0.488896
O15   O     O_R   0.657500 0.016560 0.039940 -0.459243
O16   O     O_R   0.685680 0.820940 0.038120 -0.462996
O17   O     O_R   0.822130 0.666070 0.043610 -0.517976
O18   O     O_R   0.989860 0.694000 0.042400 -0.511630
O19   O     O_3   0.833990 0.833400 0.000560 -0.286202
O20   O     O_R   0.324760 0.674070 0.543580 -0.484948
O21   O     O_R   0.522400 0.640310 0.540110 -0.490733
O22   O     O_R   0.675940 0.500630 0.542210 -0.515353
O23   O     O_R   0.641790 0.337020 0.538150 -0.515178
O24   O     O_R   0.500260 0.324550 0.456580 -0.461655
O25   O     O_R   0.336660 0.522040 0.461020 -0.464520
O26   O     O_R   0.322940 0.675540 0.458880 -0.510408
C117  C     C_2   0.892705 0.071453 0.908466 0.638290
O27   O     O_2   0.977660 0.006590 0.896696 -0.464690
O28   O     O_R   0.883038 0.128879 0.941577 -0.661538
H25   H     H_    0.951856 0.109280 0.953380 0.344790
C118  C     C_2   0.651100 0.341665 0.716156 0.594603
O29   O     O_2   0.595621 0.378693 0.688469 -0.513162
O30   O     O_R   0.689500 0.397662 0.735249 -0.654028
H26   H     H_    0.667950 0.466169 0.722907 0.367845
C119  C     C_2   0.518912 0.157728 0.829412 0.595581
O31   O     O_2   0.462694 0.129087 0.843397 -0.446028
O32   O     O_R   0.488781 0.215895 0.796082 -0.674191
H27   H     H_    0.420169 0.228182 0.786280 0.358839
N5    N     N_3   0.710432 0.984600 0.697159 -0.599755
H28   H     H_    0.647721 0.973314 0.700990 0.290936
H29   H     H_    0.777488 0.916852 0.703827 0.276761
C120  C     C_2   0.719347 0.956850 0.780260 0.611247
O33   O     O_2   0.674940 0.914011 0.767046 -0.475067
O34   O     O_R   0.780833 0.916366 0.812494 -0.685163
H30   H     H_    0.781546 0.852567 0.822198 0.334923
N6    N     N_3   0.512488 0.162181 0.669489 -0.603974
H31   H     H_    0.504133 0.103757 0.656499 0.231613
H32   H     H_    0.441295 0.229707 0.670054 0.234543
N7    N     N_3   0.478280 0.208472 0.589772 -0.575475
H33   H     H_    0.410739 0.257723 0.604752 0.237727
H34   H     H_    0.488820 0.134218 0.590116 0.232306
C121  C     C_2   0.874944 0.115889 0.827166 0.599026
O35   O     O_2   0.907651 0.170847 0.839212 -0.458504
O36   O     O_R   0.916728 0.057182 0.793740 -0.652272
H35   H     H_    0.973359 0.066761 0.782132 0.358225
C122  C     C_2   0.203145 0.783563 0.923686 0.663880
O37   O     O_2   0.224459 0.760163 0.957207 -0.459145
O38   O     O_R   0.212629 0.864384 0.908541 -0.595024
H36   H     H_    0.237332 0.897423 0.928103 0.361964
C123  C     C_2   0.363609 0.483581 0.796008 0.585338
O39   O     O_2   0.444456 0.432422 0.778415 -0.482237
O40   O     O_R   0.358536 0.464193 0.834799 -0.687125
H37   H     H_    0.425985 0.406940 0.844728 0.358544
N8    N     N_3   0.262647 0.743509 0.844384 -0.526072
H38   H     H_    0.331010 0.682094 0.833631 0.265099
H39   H     H_    0.222848 0.791445 0.821674 0.250451
C124  C     C_2   0.015838 0.799317 0.713181 0.624592
O41   O     O_2   0.984006 0.776780 0.684616 -0.528320
O42   O     O_R   0.971222 0.901826 0.725331 -0.639930
H40   H     H_    0.917700 0.950874 0.706957 0.332445
N9    N     N_3   0.011054 0.797098 0.794262 -0.524669
H41   H     H_    0.978641 0.762061 0.810437 0.239480
H42   H     H_    0.032730 0.838020 0.812751 0.278369
N10   N     N_3   0.193285 0.809979 0.678076 -0.596127
H43   H     H_    0.132499 0.877693 0.667424 0.265922
H44   H     H_    0.260754 0.813796 0.676639 0.266984
C125  C     C_2   0.208639 0.815098 0.595921 0.592902
O43   O     O_2   0.149982 0.850176 0.568962 -0.487190
O44   O     O_R   0.263294 0.862696 0.608421 -0.741619
H45   H     H_    0.247836 0.925387 0.592905 0.342474
N11   N     N_3   0.096872 0.530690 0.832230 -0.558844
H46   H     H_    0.049997 0.571880 0.809467 0.240107
H47   H     H_    0.164999 0.470123 0.820930 0.274042
N12   N     N_3   0.247022 0.464484 0.590220 -0.579035
H48   H     H_    0.238898 0.413377 0.608045 0.212076
H49   H     H_    0.186423 0.491278 0.570875 0.238653
C126  C     C_2   0.509141 0.850714 0.076411 0.640079
O45   O     O_2   0.448424 0.940298 0.084791 -0.483409
O46   O     O_R   0.503742 0.810995 0.040645 -0.628614
H50   H     H_    0.446358 0.863786 0.024380 0.369292
C127  C     C_2   0.787019 0.509456 0.318063 0.576123
O47   O     O_2   0.764695 0.472453 0.290951 -0.485997
O48   O     O_R   0.889468 0.481329 0.324430 -0.670975
H51   H     H_    0.937916 0.429950 0.304640 0.356059
N13   N     N_3   0.540022 0.610390 0.201265 -0.620630
H52   H     H_    0.518391 0.565912 0.217455 0.216485
H53   H     H_    0.473267 0.666710 0.188366 0.252978
C128  C     C_2   0.458165 0.851584 0.158117 0.593760
O49   O     O_2   0.444176 0.905641 0.186484 -0.492151
O50   O     O_R   0.374654 0.853304 0.139867 -0.654188
H54   H     H_    0.306892 0.902118 0.152925 0.363888
N14   N     N_3   0.830987 0.517855 0.668391 -0.595750
H55   H     H_    0.875193 0.450540 0.652342 0.229623
H56   H     H_    0.874041 0.555064 0.670312 0.256288
C129  C     C_2   0.482165 0.858202 0.342907 0.623552
O51   O     O_2   0.426717 0.868224 0.315819 -0.472089
O52   O     O_R   0.476204 0.944821 0.360796 -0.649849
H57   H     H_    0.423180 0.011233 0.348733 0.362627
C130  C     C_2   0.487798 0.810926 0.423603 0.641038
O53   O     O_2   0.521044 0.827208 0.453178 -0.483330
O54   O     O_R   0.382813 0.867164 0.415850 -0.664980
H58   H     H_    0.342350 0.919245 0.436810 0.346361
N15   N     N_3   0.815609 0.565937 0.178031 -0.608915
H59   H     H_    0.786064 0.522735 0.190373 0.273017
H60   H     H_    0.832636 0.602889 0.199909 0.245808
N16   N     N_3   0.785523 0.462147 0.396998 -0.564635
H61   H     H_    0.784573 0.404146 0.380531 0.260816
H62   H     H_    0.856958 0.457469 0.393849 0.290751
C131  C     C_2   0.822675 0.162090 0.073105 0.623375
O55   O     O_2   0.907886 0.147660 0.081381 -0.451719
O56   O     O_R   0.783022 0.197816 0.036763 -0.670912
H63   H     H_    0.832097 0.208469 0.019967 0.359007
N17   N     N_3   0.569194 0.048752 0.106498 -0.549059
H64   H     H_    0.492676 0.103582 0.112372 0.270091
H65   H     H_    0.588768 0.985571 0.123956 0.235691
C132  C     C_2   0.541937 0.361952 0.287557 0.546153
O57   O     O_2   0.450742 0.389497 0.284702 -0.510880
O58   O     O_R   0.573976 0.415475 0.311602 -0.684498
H66   H     H_    0.514865 0.475411 0.325511 0.322738
N18   N     N_3   0.551167 0.346162 0.202935 -0.598637
H67   H     H_    0.496045 0.408155 0.218982 0.256200
H68   H     H_    0.592154 0.374005 0.187735 0.239321
N19   N     N_3   0.484318 0.823006 0.667554 -0.585466
H69   H     H_    0.418411 0.816181 0.666828 0.261844
H70   H     H_    0.469704 0.887851 0.651924 0.238685
N20   N     N_3   0.822773 0.211681 0.152780 -0.548973
H71   H     H_    0.873161 0.163501 0.173539 0.259725
H72   H     H_    0.775641 0.283835 0.165384 0.242581
C133  C     C_2   0.850494 0.004876 0.290207 0.569594
O59   O     O_2   0.935676 0.952036 0.275767 -0.524486
O60   O     O_R   0.828626 0.978999 0.326009 -0.702046
H73   H     H_    0.889438 0.915962 0.337011 0.339880
C134  C     C_2   0.836551 0.216658 0.337923 0.596646
O61   O     O_2   0.907408 0.201283 0.359072 -0.507765
O62   O     O_R   0.840332 0.240700 0.299597 -0.651980
H74   H     H_    0.905370 0.242171 0.292916 0.360949
C135  C     C_2   0.495380 0.185961 0.401840 0.610466
O63   O     O_2   0.501585 0.154666 0.434457 -0.457127
O64   O     O_R   0.413178 0.201025 0.378813 -0.696974
H75   H     H_    0.362704 0.186058 0.392695 0.356594
C136  C     C_2   0.153036 0.831486 0.094507 0.625473
O65   O     O_2   0.194399 0.804634 0.062976 -0.434903
O66   O     O_R   0.140552 0.921382 0.111903 -0.674112
H76   H     H_    0.167193 0.958293 0.095302 0.372949
C137  C     C_2   0.845791 0.509798 0.826579 0.608108
O67   O     O_2   0.934765 0.463812 0.837364 -0.481283
O68   O     O_R   0.816465 0.470871 0.795531 -0.641583
H77   H     H_    0.875780 0.405910 0.784117 0.367535
N21   N     N_3   0.313199 0.654614 0.289517 -0.597536
H78   H     H_    0.344353 0.585152 0.303979 0.265907
H79   H     H_    0.365895 0.645236 0.267995 0.222978
N22   N     N_3   0.059614 0.558621 0.176677 -0.590681
H80   H     H_    0.034269 0.520510 0.158330 0.243781
H81   H     H_    0.130823 0.502935 0.187007 0.245998
N23   N     N_3   0.931215 0.742266 0.225486 -0.599371
H82   H     H_    0.909211 0.690587 0.235503 0.235439
H83   H     H_    0.877952 0.815195 0.236084 0.231795
C138  C     C_2   0.157912 0.504475 0.335265 0.578145
O69   O     O_2   0.111281 0.466263 0.350230 -0.492282
O70   O     O_R   0.198551 0.473698 0.298263 -0.662308
H84   H     H_    0.183786 0.420040 0.286865 0.355042
N24   N     N_3   0.239646 0.469131 0.412185 -0.576575
H85   H     H_    0.289844 0.408313 0.394270 0.277025
H86   H     H_    0.173154 0.464766 0.416860 0.269355
C139  C     C_2   0.531386 0.849520 0.915559 0.636298
O71   O     O_2   0.504504 0.826380 0.945160 -0.477588
O72   O     O_R   0.483839 0.952054 0.904313 -0.643376
H87   H     H_    0.428292 0.999915 0.923014 0.349063
C140  C     C_2   0.502367 0.837452 0.834220 0.640418
O73   O     O_2   0.503472 0.888877 0.807486 -0.424878
O74   O     O_R   0.409060 0.851289 0.848451 -0.634685
H88   H     H_    0.347823 0.905623 0.834127 0.366593

loop_
_geom_bond_atom_site_label_1
_geom_bond_atom_site_label_2
_ccdc_geom_bond_type
N24   H86   S    
C22   N4    A    
C53   N8    S    
C135  O64   S    
O60   H73   S    
C87   C88   A    
C129  O52   S    
C114  C115  A    
C39   C41   A    
C136  O65   D    
C128  O49   D    
Cr5   O16   S    
Cr6   O11   S    
C62   O2    A    
C66   N12   S    
C97   N18   S    
C5    C6    A    
C5    H21   S    
C54   C63   S    
O56   H63   S    
C34   C35   A    
C106  N14   S    
C61   C63   A    
C110  C111  A    
Cr4   O13   S    
C46   C47   A    
C6    N23   S    
C35   C36   A    
C50   C52   A    
C4    C12   S    
C17   O11   A    
C83   C88   A    
C23   N3    A    
N7    H33   S    
Cr3   O3    S    
N13   H52   S    
C94   H17   S    
C29   O21   A    
C67   H7    S    
N12   H49   S    
C128  O50   S    
C118  O30   S    
C75   N15   S    
C44   N6    S    
C121  O35   D    
C101  H15   S    
C122  O37   D    
N6    H31   S    
C118  O29   D    
C20   O13   A    
O30   H26   S    
C37   C38   A    
O66   H76   S    
C13   C21   A    
C94   C96   A    
C38   C118  S    
C121  O36   S    
C29   C84   S    
C116  H20   S    
N11   H46   S    
C1    O12   A    
C131  O56   S    
C86   N16   S    
C90   C91   A    
N15   H60   S    
C9    N24   S    
Cr6   O17   S    
N8    H38   S    
C4    C5    A    
C130  O54   S    
C6    C7    A    
C23   N2    A    
C41   N5    S    
C72   C128  S    
C64   C65   A    
N20   H72   S    
C77   C82   A    
C56   H6    S    
C51   O26   A    
C87   C127  S    
O72   H87   S    
O40   H37   S    
C98   C99   A    
O54   H58   S    
C31   C36   A    
C21   H4    S    
C44   C48   A    
N14   H55   S    
C26   C30   A    
C16   O10   A    
N1    N2    A    
C97   C98   A    
C119  O31   D    
C53   C54   A    
C99   C108  S    
C105  C107  A    
N9    H41   S    
C64   C68   A    
C3    C116  A    
C38   C39   A    
N8    H39   S    
Cr4   O19   S    
C119  O32   S    
C16   C30   S    
C40   C49   S    
N22   H80   S    
C65   C125  S    
C127  O47   D    
C24   C137  S    
C139  O72   S    
C40   O23   A    
C138  O70   S    
C99   C100  A    
C137  O68   S    
Cr1   O5    S    
C107  C108  A    
Cr1   O25   S    
C66   C67   A    
Cr2   O26   S    
C126  O45   D    
C140  O74   S    
N5    H28   S    
O44   H45   S    
C57   C63   A    
N21   H79   S    
C46   H5    S    
N18   H67   S    
C15   O8    A    
C10   C14   A    
C91   C92   A    
C9    C14   A    
C124  O41   D    
C2    C106  A    
C50   C56   A    
C84   C95   A    
C120  O34   S    
C7    C116  A    
C134  O61   D    
C95   C106  A    
C31   C32   A    
C8    C12   A    
C133  O59   D    
Cr1   O1    S    
C85   C130  S    
Cr2   O2    S    
C11   H19   S    
N16   H62   S    
C20   C110  S    
C125  O44   S    
C117  O27   D    
C123  O40   S    
Cr5   O8    S    
C3    C4    A    
O52   H57   S    
C52   C53   A    
C95   H1    S    
C105  C109  A    
C54   C55   A    
C34   C43   S    
C24   C28   A    
C90   C96   A    
Cr1   O12   S    
C45   N7    S    
Cr5   O15   S    
C62   O3    A    
C71   C72   A    
C76   H10   S    
C57   C58   A    
C100  C101  A    
N17   H65   S    
O34   H30   S    
C10   C11   A    
Cr4   O14   S    
C59   C60   A    
O36   H35   S    
N19   H69   S    
O58   H66   S    
C129  O51   D    
C55   C56   A    
C101  C102  A    
C41   C42   A    
O46   H50   S    
C120  O33   D    
N10   H43   S    
N15   H59   S    
C77   C78   A    
C46   C49   A    
C26   C27   A    
C19   O17   A    
C122  O38   S    
C32   H24   S    
O48   H51   S    
C62   C89   S    
C1    O20   A    
Cr4   O6    S    
C80   H12   S    
C64   N10   S    
C140  O73   D    
C73   O24   A    
C18   O14   A    
C111  C112  A    
O38   H36   S    
C73   O4    A    
C103  C134  S    
C70   C71   A    
C42   C43   A    
C97   C102  A    
N24   H85   S    
N23   H82   S    
C22   C28   S    
C131  O55   D    
C74   C82   S    
C79   C88   S    
C18   O15   A    
C111  H18   S    
C81   H13   S    
C136  O66   S    
Cr6   O18   S    
C67   C68   A    
C18   C90   S    
C55   N11   S    
C72   C74   A    
O42   H40   S    
C26   C139  S    
C85   C89   A    
C86   C87   A    
C13   N19   S    
C58   C59   A    
C27   C140  S    
C15   C31   S    
C1    C69   S    
O68   H77   S    
C8    C138  S    
C60   C61   A    
C114  H22   S    
C37   C43   A    
O64   H75   S    
C100  C133  S    
C14   C51   S    
C21   C84   A    
C45   C49   A    
Cr6   O19   S    
N11   H47   S    
C51   O25   A    
C92   N20   S    
C83   C85   A    
Cr3   O4    S    
N13   H53   S    
Cr4   O7    S    
N12   H48   S    
O62   H74   S    
C44   C45   A    
N14   H56   S    
C113  C114  A    
C25   C30   A    
C57   C123  S    
C86   C89   A    
C93   C102  S    
C35   C121  S    
C73   C109  S    
C32   C33   A    
O50   H54   S    
O32   H27   S    
O74   H88   S    
N3    N4    A    
Cr3   O23   S    
C47   H2    S    
C104  C109  A    
C58   H8    S    
C65   C69   A    
C92   C93   A    
N22   H81   S    
C139  O71   D    
C78   H11   S    
C61   N9    S    
O28   H25   S    
C22   N1    A    
N9    H42   S    
C137  O67   D    
C83   C129  S    
C103  C104  A    
N7    H34   S    
C33   C119  S    
C17   O6    A    
C110  C115  A    
C39   C48   S    
Cr1   O24   S    
Cr5   O19   S    
C93   C94   A    
N19   H70   S    
C135  O63   D    
C75   C76   A    
C81   C82   A    
N21   H78   S    
C107  H14   S    
C52   C122  S    
C71   C126  S    
N18   H68   S    
C15   O7    A    
N20   H71   S    
C66   C69   A    
Cr2   O20   S    
N5    H29   S    
C2    C13   A    
C125  O43   D    
C8    C9    A    
C103  C108  A    
C19   O16   A    
Cr3   O22   S    
C112  N22   S    
C16   O9    A    
Cr2   O21   S    
C96   N17   S    
C3    N21   S    
C105  C135  S    
C112  C113  A    
C37   H3    S    
C20   O18   A    
N23   H83   S    
C74   C75   A    
C24   C25   A    
C78   C79   A    
C117  O28   S    
C40   O1    A    
C127  O48   S    
C138  O69   D    
C59   C68   S    
C47   C48   A    
C33   C34   A    
Cr2   O5    S    
C115  C136  S    
C132  O57   D    
C98   C132  S    
C132  O58   S    
C126  O46   S    
C70   C76   A    
C130  O53   D    
C25   H9    S    
C2    C23   S    
Cr3   O5    S    
C36   C117  S    
C80   C81   A    
C91   C131  S    
N10   H44   S    
C17   C50   S    
C11   C12   A    
C124  O42   S    
O70   H84   S    
C7    C113  S    
C134  O62   S    
C60   C124  S    
C133  O60   S    
C104  H16   S    
C77   N13   S    
C29   O22   A    
N6    H32   S    
N16   H61   S    
C10   H23   S    
C79   C80   A    
C42   C120  S    
C123  O39   D    
Cr5   O9    S    
C27   C28   A    
Cr6   O10   S    
C19   C70   S    
N17   H64   S    
