data_mof_unit_45861.cif
_audit_creation_date              2012-12-10T17:51:30-0500
_audit_creation_method            fapswitch 2.2
_symmetry_space_group_name_H-M    P1
_symmetry_Int_Tables_number       1
_space_group_crystal_system       triclinic
_cell_length_a                    9.969964
_cell_length_b                    10.657916
_cell_length_c                    16.852862
_cell_angle_alpha                 94.489644
_cell_angle_beta                  85.90431
_cell_angle_gamma                 89.66816
_cell_volume                      1780.59796729

loop_
_atom_site_label
_atom_site_type_symbol
_atom_type_description
_atom_site_fract_x
_atom_site_fract_y
_atom_site_fract_z
_atom_type_partial_charge
Br1   Br    Br    0.780242 0.860600 0.421072 -0.579888
Br2   Br    Br    0.768721 0.872039 0.718689 -0.539605
Br3   Br    Br    0.280991 0.738173 0.650912 -0.486613
Br4   Br    Br    0.234499 0.380126 0.936187 -0.474176
Br5   Br    Br    0.514032 0.352289 0.039170 -0.446266
C1    C     C_R   0.500336 0.737669 0.488774 0.975846
C2    C     C_R   0.526380 0.547991 0.267448 -0.046479
C3    C     C_R   0.251745 0.884069 0.462286 -0.092496
C4    C     C_R   0.482389 0.496029 0.652670 0.906214
C5    C     C_R   0.129840 0.943962 0.486886 -0.124672
C6    C     C_R   0.128500 0.058972 0.531585 -0.165952
C7    C     C_R   0.248869 0.118335 0.546009 -0.119202
C8    C     C_R   0.373764 0.062465 0.516677 0.072841
C9    C     C_R   0.374601 0.937718 0.484370 0.079977
C10   C     C_R   0.498009 0.870807 0.475726 -0.223523
C11   C     C_R   0.619706 0.934703 0.477598 0.219348
C12   C     C_R   0.375829 0.435629 0.785589 0.081210
C13   C     C_R   0.620706 0.058373 0.510299 0.127624
C14   C     C_R   0.497621 0.126570 0.518999 -0.203006
C15   C     C_R   0.836986 0.669619 0.601293 -0.165861
C16   C     C_R   0.499234 0.260984 0.508673 0.874916
C17   C     C_R   0.887251 0.763137 0.650252 0.198719
C18   C     C_R   0.022784 0.774821 0.652374 -0.212502
C19   C     C_R   0.112786 0.689463 0.608340 0.240021
C20   C     C_R   0.064069 0.589552 0.552162 0.027744
C21   C     C_R   0.918941 0.585875 0.550602 0.095326
C22   C     C_R   0.933597 0.418655 0.451501 -0.108644
C23   C     C_R   0.418317 0.642289 0.162991 -0.135951
C24   C     C_R   0.076069 0.419129 0.449622 0.189034
C25   C     C_R   0.517846 0.507599 0.348003 0.866776
C26   C     C_R   0.476468 0.497560 0.739559 -0.098694
C27   C     C_R   0.580483 0.560828 0.776728 -0.152683
C28   C     C_R   0.588187 0.562477 0.857723 -0.214499
C29   C     C_R   0.488910 0.505333 0.904371 0.019498
C30   C     C_R   0.380005 0.444558 0.869397 0.306345
C31   C     C_3   0.789044 0.575391 0.094285 -0.408414
C32   C     C_3   0.842438 0.705369 0.077694 -0.806201
C33   C     C_3   0.750607 0.109533 0.542133 -0.352450
C34   C     C_R   0.412719 0.602645 0.239134 -0.201605
C35   C     C_3   0.730166 0.168772 0.628070 -0.778810
C36   C     C_3   0.149193 0.327062 0.388522 -0.397798
C37   C     C_3   0.126397 0.357840 0.303369 -0.823235
C38   C     C_3   0.275226 0.349068 0.746548 -0.372066
C39   C     C_3   0.140338 0.414626 0.739822 -0.736931
C40   C     C_R   0.649644 0.544891 0.221729 -0.186120
C41   C     C_R   0.656792 0.585319 0.144658 0.225653
C42   C     C_R   0.537308 0.627506 0.114454 0.185272
C43   C     C_2   0.504046 0.509747 0.989748 0.313737
C44   C     C_2   0.523243 0.621617 0.029429 -0.340834
H1    H     H_    0.658498 0.607910 0.742786 0.194314
H2    H     H_    0.739070 0.508357 0.245270 0.156372
H3    H     H_    0.516781 0.708947 0.000569 0.170112
H4    H     H_    0.326906 0.674955 0.139642 0.161785
H5    H     H_    0.672513 0.608858 0.884322 0.176605
H6    H     H_    0.771904 0.755882 0.042874 0.263253
H7    H     H_    0.856442 0.761825 0.134709 0.271437
H8    H     H_    0.941013 0.695230 0.042597 0.267880
H9    H     H_    0.866224 0.525699 0.125043 0.219831
H10   H     H_    0.776577 0.519404 0.036949 0.240422
H11   H     H_    0.678561 0.261340 0.631212 0.257874
H12   H     H_    0.248647 0.796167 0.425758 0.152108
H13   H     H_    0.669222 0.106439 0.665776 0.296877
H14   H     H_    0.829349 0.183290 0.653270 0.245663
H15   H     H_    0.823150 0.031001 0.544447 0.234762
H16   H     H_    0.799892 0.176020 0.502163 0.215960
H17   H     H_    0.151350 0.457478 0.295092 0.263325
H18   H     H_    0.191845 0.296432 0.260327 0.272351
H19   H     H_    0.020253 0.341437 0.289896 0.249413
H20   H     H_    0.257574 0.325644 0.393922 0.278640
H21   H     H_    0.113274 0.230320 0.397525 0.196706
H22   H     H_    0.154355 0.501168 0.708255 0.279529
H23   H     H_    0.036901 0.899208 0.473101 0.190457
H24   H     H_    0.073793 0.350467 0.705866 0.223824
H25   H     H_    0.089914 0.440383 0.799717 0.281969
H26   H     H_    0.316964 0.311329 0.686948 0.179263
H27   H     H_    0.258806 0.264429 0.780315 0.244577
H28   H     H_    0.034889 0.104546 0.553692 0.140313
H29   H     H_    0.241977 0.207135 0.581180 0.154704
H30   H     H_    0.883114 0.352112 0.412277 0.147493
H31   H     H_    0.731306 0.666099 0.605259 0.241765
H32   H     H_    0.318527 0.613074 0.275237 0.158741
H33   H     H_    0.056121 0.850805 0.692794 0.224847
N1    N     N_R   0.857140 0.501200 0.500750 -0.116133
N2    N     N_R   0.142740 0.501280 0.500770 -0.128815
O1    O     O_R   0.385310 0.683220 0.500000 -0.596584
O2    O     O_R   0.614640 0.683250 0.500010 -0.586550
O3    O     O_R   0.371780 0.500010 0.615800 -0.570087
O4    O     O_R   0.601110 0.500030 0.615800 -0.664575
O5    O     O_R   0.385360 0.316750 0.499990 -0.656266
O6    O     O_R   0.614690 0.316780 0.500000 -0.611307
O7    O     O_R   0.398890 0.499970 0.384200 -0.640248
O8    O     O_R   0.628220 0.499990 0.384200 -0.603377
Zn1   Zn    Zn3+2 0.346870 0.499980 0.499990 0.949449
Zn2   Zn    Zn3+2 0.653130 0.500020 0.500010 0.960396

loop_
_geom_bond_atom_site_label_1
_geom_bond_atom_site_label_2
_ccdc_geom_bond_type
C23   C42   A    
C21   N1    A    
C35   H11   S    
C18   H33   S    
C22   C24   A    
C36   C37   S    
C31   H10   S    
C42   C44   S    
C16   O5    A    
C40   C41   A    
C1    O1    A    
C2    C40   A    
C31   C32   S    
C14   C16   S    
C13   C14   A    
C22   H30   S    
C4    O4    A    
C40   H2    S    
C10   C11   A    
C28   H5    S    
C35   H13   S    
C39   H22   S    
C29   C30   A    
O2    Zn2   S    
C1    C10   S    
C32   H7    S    
O1    Zn1   S    
C7    H29   S    
Br2   C17   S    
C20   N2    A    
C18   C19   A    
C31   C41   S    
C6    H28   S    
C3    H12   S    
Br4   C30   S    
C2    C25   S    
C8    C9    A    
C37   H19   S    
Br3   C19   S    
O6    Zn2   S    
C33   H15   S    
C16   O6    A    
C38   H26   S    
Br5   C43   S    
O4    Zn2   S    
C15   H31   S    
C19   C20   A    
C34   H32   S    
C24   N2    A    
C25   O8    A    
C8    C14   A    
C23   C34   A    
C20   C21   A    
N1    Zn2   S    
C38   C39   S    
C12   C38   S    
O7    Zn1   S    
C26   C27   A    
C33   H16   S    
C6    C7    A    
C44   H3    S    
O8    Zn2   S    
C28   C29   A    
Br1   C11   S    
C39   H25   S    
C35   H14   S    
C27   H1    S    
C11   C13   A    
C43   C44   D    
C15   C17   A    
C37   H18   S    
C12   C26   A    
C29   C43   S    
C36   H20   S    
C38   H27   S    
C41   C42   A    
C3    C9    A    
C24   C36   S    
C9    C10   A    
C25   O7    A    
C23   H4    S    
C31   H9    S    
C1    O2    A    
C27   C28   A    
C22   N1    A    
C13   C33   S    
C4    O3    A    
C33   C35   S    
C15   C21   A    
O3    Zn1   S    
N2    Zn1   S    
O5    Zn1   S    
C39   H24   S    
C5    C6    A    
C4    C26   S    
C32   H6    S    
C7    C8    A    
C3    C5    A    
C37   H17   S    
C2    C34   A    
C17   C18   A    
C12   C30   A    
C32   H8    S    
C36   H21   S    
C5    H23   S    
