data_mof_unit_17283.cif
_audit_creation_date              2012-12-10T16:39:34-0500
_audit_creation_method            fapswitch 2.2
_symmetry_space_group_name_H-M    P1
_symmetry_Int_Tables_number       1
_space_group_crystal_system       triclinic
_cell_length_a                    16.93721
_cell_length_b                    17.008982
_cell_length_c                    16.935818
_cell_angle_alpha                 67.204271
_cell_angle_beta                  67.143168
_cell_angle_gamma                 66.70124
_cell_volume                      3968.52931378

loop_
_atom_site_label
_atom_site_type_symbol
_atom_type_description
_atom_site_fract_x
_atom_site_fract_y
_atom_site_fract_z
_atom_type_partial_charge
Br1   Br    Br    0.222597 0.048032 0.226703 -0.361997
Br2   Br    Br    0.780241 0.956682 0.776843 -0.351915
Br3   Br    Br    0.041789 0.221979 0.224851 -0.358614
Br4   Br    Br    0.957017 0.778186 0.775403 -0.354534
Br5   Br    Br    0.223467 0.226763 0.052615 -0.363691
Br6   Br    Br    0.761293 0.760300 0.927098 -0.392475
C1    C     C_R   0.328054 0.954122 0.448947 0.007927
C2    C     C_R   0.321567 0.445477 0.978672 0.013158
C3    C     C_R   0.528591 0.399153 0.041095 0.030626
C4    C     C_R   0.970424 0.474584 0.593381 0.027668
C5    C     C_R   0.030923 0.524951 0.406228 0.027593
C6    C     C_R   0.040752 0.672937 0.553680 0.008684
C7    C     C_R   0.959895 0.326956 0.446091 0.007887
C8    C     C_R   0.454575 0.986477 0.454548 -0.034861
C9    C     C_R   0.548666 0.999659 0.552902 -0.034548
C10   C     C_R   0.994770 0.452214 0.450718 -0.035024
C11   C     C_R   0.006438 0.547406 0.548912 -0.034775
C12   C     C_R   0.446867 0.444474 0.018998 -0.039196
C13   C     C_R   0.533507 0.535103 0.053014 -0.039153
C14   C     C_R   0.970574 0.178270 0.434195 0.921147
C15   C     C_R   0.673141 0.036445 0.557053 0.005952
C16   C     C_R   0.029449 0.821745 0.565790 0.916543
C17   C     C_R   0.177907 0.433572 0.973506 0.926560
C18   C     C_R   0.821368 0.564029 0.032654 0.934442
C19   C     C_R   0.429265 0.987507 0.173146 0.919985
C20   C     C_R   0.573090 0.003627 0.831392 0.959257
C21   C     C_R   0.564326 0.821832 0.031231 0.933764
C22   C     C_R   0.429678 0.173093 0.987244 0.943812
C23   C     C_R   0.008634 0.571778 0.828715 0.951807
C24   C     C_R   0.991602 0.428171 0.171169 0.935963
C25   C     C_R   0.821775 0.028527 0.566419 0.918250
C26   C     C_R   0.014791 0.432901 0.307820 0.013541
C27   C     C_R   0.178389 0.969473 0.434814 0.920390
C28   C     C_R   0.406638 0.981730 0.405040 0.071200
C29   C     C_R   0.596616 0.005284 0.601784 0.074535
C30   C     C_R   0.989749 0.404076 0.401636 0.073065
C31   C     C_R   0.011181 0.595670 0.598049 0.072930
C32   C     C_R   0.402669 0.398898 0.003047 0.069154
C33   C     C_R   0.580782 0.583188 0.060253 0.074662
C34   C     C_R   0.272021 0.967899 0.396522 -0.199467
C35   C     C_R   0.729270 0.025715 0.607623 -0.200516
C36   C     C_R   0.002147 0.387321 0.260903 -0.189847
C37   C     C_R   0.986046 0.566850 0.691867 0.013142
C38   C     C_R   0.998226 0.612599 0.738923 -0.189901
C39   C     C_R   0.390958 0.262108 0.999261 -0.189730
C40   C     C_R   0.596206 0.725896 0.043275 -0.182531
C41   C     C_R   0.614318 0.992299 0.742101 -0.191441
C42   C     C_R   0.389700 0.995899 0.263667 -0.186500
C43   C     C_R   0.724305 0.596932 0.046012 -0.187445
C44   C     C_R   0.270316 0.394951 0.978786 -0.194123
C45   C     C_R   0.028749 0.728836 0.605317 -0.201615
C46   C     C_R   0.971415 0.271181 0.394600 -0.201535
C47   C     C_R   0.496685 0.940919 0.739356 -0.204955
C48   C     C_R   0.439029 0.306575 0.012635 0.022491
C49   C     C_R   0.508625 0.043614 0.268196 -0.209910
C50   C     C_R   0.077062 0.693029 0.459844 -0.222472
C51   C     C_R   0.923761 0.306829 0.539895 -0.221237
C52   C     C_R   0.701877 0.447588 0.084149 -0.232839
C53   C     C_R   0.292009 0.539530 0.962760 -0.233131
C54   C     C_R   0.306538 0.918970 0.542987 -0.222208
C55   C     C_R   0.693022 0.072695 0.463528 -0.221015
C56   C     C_R   0.519393 0.262008 0.039423 -0.221037
C57   C     C_R   0.447726 0.709614 0.062120 -0.234153
C58   C     C_R   0.054676 0.503431 0.264215 -0.208622
C59   C     C_R   0.540201 0.673830 0.058236 0.014208
C60   C     C_R   0.946445 0.496154 0.735393 -0.204273
C61   C     C_R   0.302157 0.994705 0.303549 0.199073
C62   C     C_R   0.700752 0.998304 0.700919 0.216349
C63   C     C_R   0.997625 0.300811 0.301416 0.206616
C64   C     C_R   0.002263 0.699261 0.698550 0.210081
C65   C     C_R   0.302514 0.302522 0.000319 0.184143
C66   C     C_R   0.688091 0.688595 0.021722 0.181561
C67   C     C_R   0.646311 0.066632 0.414704 0.112169
C68   C     C_R   0.355475 0.921354 0.592469 0.112405
C69   C     C_R   0.938874 0.450037 0.686977 0.103524
C70   C     C_R   0.568109 0.979928 0.695515 0.014092
C71   C     C_R   0.062547 0.549419 0.312619 0.104258
C72   C     C_R   0.406316 0.667050 0.040793 0.107440
C73   C     C_R   0.566217 0.308132 0.048333 0.105885
C74   C     C_R   0.554707 0.050516 0.316847 0.104746
C75   C     C_R   0.450273 0.933229 0.691006 0.105794
C76   C     C_R   0.329277 0.582291 0.988974 0.106680
C77   C     C_R   0.655991 0.400051 0.075116 0.111003
C78   C     C_R   0.926847 0.355522 0.588878 0.111295
C79   C     C_R   0.074386 0.644093 0.410793 0.112049
C80   C     C_R   0.671686 0.095900 0.321370 -0.193868
C81   C     C_R   0.436503 0.005963 0.311205 0.017850
C82   C     C_R   0.331913 0.889546 0.685926 -0.198953
C83   C     C_R   0.899944 0.379690 0.730811 -0.196688
C84   C     C_R   0.101725 0.619599 0.268824 -0.197471
C85   C     C_R   0.324337 0.712493 0.019870 -0.219267
C86   C     C_R   0.649891 0.263953 0.065841 -0.215510
C87   C     C_R   0.626919 0.086688 0.273061 -0.194405
C88   C     C_R   0.378962 0.895279 0.734731 -0.196327
C89   C     C_R   0.287898 0.671500 0.990730 -0.220773
C90   C     C_R   0.693962 0.309158 0.080294 -0.205094
C91   C     C_R   0.893971 0.332887 0.682207 -0.196456
C92   C     C_R   0.669753 0.541564 0.066160 0.009328
C93   C     C_R   0.107556 0.666504 0.317461 -0.198445
C94   C     C_R   0.528228 0.021403 0.410326 0.027072
C95   C     C_R   0.475516 0.963827 0.597376 0.027071
C96   C     C_R   0.964428 0.427168 0.544290 0.028464
C97   C     C_R   0.036866 0.572409 0.455339 0.028397
C98   C     C_R   0.408142 0.535004 0.015406 0.032191
C99   C     C_R   0.572896 0.444873 0.056017 0.029778
C100  C     C_R   0.574650 0.028807 0.459390 0.027815
C101  C     C_R   0.428258 0.957557 0.548130 0.028761
C102  C     C_R   0.449297 0.578982 0.036501 0.032534
H1    H     H_    0.358963 0.870785 0.806809 0.146052
H2    H     H_    0.290630 0.780966 0.021997 0.142225
H3    H     H_    0.127182 0.638785 0.196796 0.148732
H4    H     H_    0.874707 0.360353 0.802852 0.147240
H5    H     H_    0.478956 0.912609 0.810921 0.166720
H6    H     H_    0.526532 0.073365 0.197112 0.157209
H7    H     H_    0.108777 0.745796 0.423924 0.165721
H8    H     H_    0.891819 0.254243 0.575857 0.167222
H9    H     H_    0.763080 0.410053 0.103230 0.180590
H10   H     H_    0.239961 0.581906 0.930648 0.184132
H11   H     H_    0.252441 0.888842 0.578693 0.165808
H12   H     H_    0.649527 0.106431 0.201388 0.134508
H13   H     H_    0.744412 0.106329 0.427475 0.165873
H14   H     H_    0.545293 0.190767 0.060018 0.165317
H15   H     H_    0.406338 0.771417 0.077761 0.186765
H16   H     H_    0.084058 0.520571 0.192797 0.169877
H17   H     H_    0.916890 0.479030 0.806771 0.171001
H18   H     H_    0.137159 0.721004 0.281911 0.148062
H19   H     H_    0.864456 0.278312 0.717768 0.151347
H20   H     H_    0.758694 0.273604 0.093157 0.144344
H21   H     H_    0.226193 0.708748 0.971886 0.143667
H22   H     H_    0.276469 0.861039 0.721414 0.147495
H23   H     H_    0.727284 0.124202 0.285649 0.145950
H24   H     H_    0.682505 0.195024 0.065615 0.131720
O1    O     O_R   0.982940 0.138950 0.510160 -0.643493
O2    O     O_R   0.982940 0.510160 0.138950 -0.656303
O3    O     O_R   0.861050 0.017060 0.489840 -0.644665
O4    O     O_R   0.138950 0.982940 0.510160 -0.643916
O5    O     O_R   0.867700 0.025880 0.612340 -0.572451
O6    O     O_R   0.132300 0.974120 0.387660 -0.571669
O7    O     O_R   0.025880 0.612340 0.867700 -0.575797
O8    O     O_R   0.974120 0.387660 0.132300 -0.579203
O9    O     O_R   0.612340 0.867700 0.025880 -0.572422
O10   O     O_R   0.387660 0.132300 0.974120 -0.561960
O11   O     O_R   0.387660 0.974120 0.132300 -0.580725
O12   O     O_R   0.017060 0.861050 0.489840 -0.644649
O13   O     O_R   0.612340 0.025880 0.867700 -0.566559
O14   O     O_R   0.132300 0.387660 0.974120 -0.561398
O15   O     O_R   0.867700 0.612340 0.025880 -0.567379
O16   O     O_R   0.974120 0.132300 0.387660 -0.570403
O17   O     O_R   0.025880 0.867700 0.612340 -0.572911
O18   O     O_R   0.138950 0.510160 0.982940 -0.671940
O19   O     O_R   0.861050 0.489840 0.017060 -0.667313
O20   O     O_R   0.510160 0.982940 0.138950 -0.666926
O21   O     O_R   0.489840 0.017060 0.861050 -0.646642
O22   O     O_R   0.489840 0.861050 0.017060 -0.678919
O23   O     O_R   0.510160 0.138950 0.982940 -0.666356
O24   O     O_R   0.017060 0.489840 0.861050 -0.652037
Zn1   Zn    Zn3+2 0.004880 0.004880 0.583590 1.038674
Zn2   Zn    Zn3+2 0.995120 0.995120 0.416410 1.036776
Zn3   Zn    Zn3+2 0.004880 0.583590 0.004880 1.012315
Zn4   Zn    Zn3+2 0.995120 0.416410 0.995120 1.020963
Zn5   Zn    Zn3+2 0.583590 0.004880 0.004880 1.011529
Zn6   Zn    Zn3+2 0.416410 0.995120 0.995120 1.013977

loop_
_geom_bond_atom_site_label_1
_geom_bond_atom_site_label_2
_ccdc_geom_bond_type
C95   C101  A    
C57   C59   A    
O9    Zn5   S    
C49   C74   A    
C39   C65   A    
C78   C96   A    
C58   C71   A    
C84   C93   A    
C71   C84   A    
C52   C92   A    
C53   C76   A    
C82   H22   S    
C91   H19   S    
O15   Zn3   S    
Br4   C64   S    
C67   C100  A    
C22   C39   S    
C75   C95   A    
O23   Zn5   S    
Br6   C66   S    
C83   H4    S    
C19   O20   A    
C78   C91   A    
C26   C30   A    
C85   H2    S    
C72   C102  A    
Br3   C63   S    
C41   C70   A    
Br2   C62   S    
C2    C53   A    
C80   H23   S    
C7    C51   A    
C60   C69   A    
C4    C11   A    
C3    C99   A    
C86   C90   A    
C90   H20   S    
C54   H11   S    
C55   H13   S    
C3    C73   A    
C6    C31   A    
C46   C63   A    
C5    C71   A    
Br1   C61   S    
C68   C101  A    
C24   O2    A    
C43   C66   A    
C22   O23   A    
C1    C34   A    
C14   O16   A    
C38   C64   A    
C45   C64   A    
C14   O1    A    
C25   O5    A    
C56   H14   S    
O11   Zn6   S    
C15   C55   A    
O20   Zn5   S    
C79   C97   A    
C13   C102  A    
C21   O22   A    
O2    Zn3   S    
C43   C92   A    
C16   O17   A    
O7    Zn3   S    
O3    Zn2   S    
C74   C94   A    
C49   C81   A    
C33   C59   A    
C19   O11   A    
C2    C32   A    
C84   H3    S    
C9    C29   A    
C47   H5    S    
C93   H18   S    
C51   H8    S    
C23   O7    A    
C17   O14   A    
C82   C88   A    
C29   C70   A    
C42   C81   A    
C27   C34   S    
C24   O8    A    
O18   Zn3   S    
C56   C73   A    
O24   Zn4   S    
C26   C58   A    
C7    C30   A    
C25   O3    A    
C17   C44   S    
C12   C98   A    
C48   C56   A    
C55   C67   A    
C58   H16   S    
C34   C61   A    
C52   H9    S    
C77   C99   A    
C83   C91   A    
C31   C37   A    
C20   O13   A    
C44   C65   A    
O10   Zn6   S    
C79   C93   A    
C18   O19   A    
C7    C46   A    
C4    C69   A    
O6    Zn2   S    
C32   C48   A    
C4    C96   A    
C27   O6    A    
C51   C78   A    
O16   Zn2   S    
C9    C95   A    
C19   C42   S    
C73   C86   A    
C6    C50   A    
C13   C33   A    
C20   C41   S    
C40   C59   A    
C23   O24   A    
C15   C35   A    
O4    Zn1   S    
C13   C99   A    
C21   C40   S    
C10   C96   A    
C8    C101  A    
C87   H12   S    
C17   O18   A    
C39   C48   A    
C53   H10   S    
C23   C38   S    
C1    C28   A    
C47   C70   A    
C22   O10   A    
C11   C31   A    
O12   Zn2   S    
C2    C44   A    
C1    C54   A    
C98   C102  A    
C6    C45   A    
C41   C62   A    
C9    C100  A    
C18   C43   S    
C35   C62   A    
C76   C98   A    
C76   C89   A    
C25   C35   S    
C86   H24   S    
C40   C66   A    
O22   Zn6   S    
C33   C92   A    
C18   O15   A    
C8    C28   A    
C57   H15   S    
C8    C94   A    
C15   C29   A    
C49   H6    S    
C72   C85   A    
C88   H1    S    
C94   C100  A    
C60   H17   S    
O5    Zn1   S    
O21   Zn6   S    
O19   Zn4   S    
C80   C87   A    
C12   C32   A    
Br5   C65   S    
C52   C77   A    
C10   C30   A    
C75   C88   A    
C27   O4    A    
C50   C79   A    
O13   Zn5   S    
C37   C38   A    
C37   C60   A    
C77   C90   A    
C54   C68   A    
C21   O9    A    
C50   H7    S    
O1    Zn1   S    
C28   C81   A    
C36   C63   A    
C42   C61   A    
C11   C97   A    
C47   C75   A    
C67   C80   A    
C5    C10   A    
C69   C83   A    
C85   C89   A    
C3    C12   A    
O14   Zn4   S    
C14   C46   S    
C16   O12   A    
C89   H21   S    
C26   C36   A    
C24   C36   S    
C20   O21   A    
C5    C97   A    
C68   C82   A    
C74   C87   A    
O17   Zn1   S    
O8    Zn4   S    
C16   C45   S    
C57   C72   A    
