data_mof_unit_55198.cif
_audit_creation_date              2012-12-10T17:33:08-0500
_audit_creation_method            fapswitch 2.2
_symmetry_space_group_name_H-M    P1
_symmetry_Int_Tables_number       1
_space_group_crystal_system       triclinic
_cell_length_a                    12.275248
_cell_length_b                    12.831961
_cell_length_c                    13.545965
_cell_angle_alpha                 95.660201
_cell_angle_beta                  78.69036
_cell_angle_gamma                 94.165655
_cell_volume                      2078.95733321

loop_
_atom_site_label
_atom_site_type_symbol
_atom_type_description
_atom_site_fract_x
_atom_site_fract_y
_atom_site_fract_z
_atom_type_partial_charge
C1    C     C_R   0.523134 0.699535 0.495438 0.902359
C2    C     C_R   0.149614 0.471887 0.443113 0.451684
C3    C     C_R   0.968416 0.518204 0.546145 -0.159987
C4    C     C_R   0.031567 0.481758 0.453892 -0.159835
C5    C     C_R   0.479417 0.501345 0.686693 0.890231
C6    C     C_R   0.520582 0.498662 0.313307 0.888729
C7    C     C_1   0.536924 0.497703 0.207856 -0.047674
C8    C     C_1   0.463069 0.502339 0.792146 -0.048802
C9    C     C_2   0.548081 0.497097 0.014587 -0.135425
C10   C     C_2   0.451900 0.503010 0.985420 -0.139627
C11   C     C_1   0.453474 0.502941 0.881087 0.086098
C12   C     C_R   0.476942 0.300493 0.504542 0.904591
C13   C     C_1   0.546510 0.497135 0.118918 0.088292
C14   C     C_R   0.461270 0.189521 0.513736 -0.181548
C15   C     C_R   0.539286 0.810652 0.486936 -0.177694
C16   C     C_R   0.626926 0.961329 0.402219 0.347395
C17   C     C_R   0.376363 0.039613 0.600985 0.429482
C18   C     C_R   0.627044 0.854579 0.417338 0.071540
C19   C     C_R   0.375149 0.145997 0.585026 0.058660
C20   C     C_R   0.458185 0.871574 0.545647 -0.145241
C21   C     C_R   0.542505 0.128706 0.455078 -0.165530
C22   C     C_3   0.190037 0.208342 0.605305 -0.539563
C23   C     C_R   0.459143 0.977926 0.538022 -0.055469
C24   C     C_3   0.810910 0.789759 0.399385 -0.550629
C25   C     C_R   0.543192 0.022753 0.464244 -0.055114
C26   C     C_R   0.974198 0.453696 0.375187 -0.191430
C27   C     C_R   0.025808 0.546307 0.624831 -0.190393
C28   C     C_R   0.858145 0.441845 0.391810 0.447488
C29   C     C_R   0.141866 0.558208 0.608165 0.457675
C30   C     C_R   0.850364 0.528064 0.556924 0.451433
H1    H     H_    0.373411 0.507773 0.038879 0.208704
H2    H     H_    0.153877 0.126871 0.596223 0.260783
H3    H     H_    0.683068 0.718274 0.330454 0.235329
H4    H     H_    0.792811 0.754553 0.472821 0.257751
H5    H     H_    0.847763 0.870625 0.410756 0.237249
H6    H     H_    0.872919 0.742692 0.345925 0.232057
H7    H     H_    0.840445 0.070561 0.402283 0.346645
H8    H     H_    0.291561 0.883457 0.817872 0.403472
H9    H     H_    0.353063 0.291437 0.278957 0.381873
H10   H     H_    0.646915 0.708489 0.721217 0.382480
H11   H     H_    0.127938 0.731888 0.839007 0.392297
H12   H     H_    0.626570 0.492329 0.961127 0.209509
H13   H     H_    0.868641 0.263646 0.163939 0.415011
H14   H     H_    0.606745 0.166689 0.402998 0.266619
H15   H     H_    0.392270 0.833478 0.596073 0.263483
H16   H     H_    0.019063 0.439638 0.298688 0.262694
H17   H     H_    0.980976 0.560413 0.701337 0.263269
H18   H     H_    0.319067 0.283090 0.670545 0.234781
H19   H     H_    0.206076 0.241995 0.531078 0.250905
H20   H     H_    0.128411 0.255696 0.658898 0.229183
N1    N     N_R   0.206090 0.519450 0.517820 -0.217566
N2    N     N_R   0.793910 0.480550 0.482180 -0.218196
N3    N     N_2   0.291708 0.209537 0.644568 -0.256992
N4    N     N_2   0.710714 0.791018 0.358179 -0.258090
O1    O     O_R   0.421240 0.658850 0.504760 -0.584603
O2    O     O_2   0.665777 0.068472 0.236615 -0.230783
O3    O     O_3   0.809586 0.107347 0.353881 -0.481233
O4    O     O_2   0.218339 0.068703 0.774377 -0.229562
O5    O     O_2   0.197384 0.911701 0.660079 -0.259454
O6    O     O_3   0.349872 0.919694 0.769806 -0.534481
O7    O     O_2   0.131177 0.302657 0.309435 -0.256689
O8    O     O_2   0.247062 0.454127 0.247133 -0.321303
O9    O     O_3   0.324204 0.324815 0.347319 -0.527750
O10   O     O_2   0.752988 0.545716 0.752929 -0.321155
O11   O     O_2   0.868724 0.697274 0.690641 -0.253611
O12   O     O_R   0.578760 0.341150 0.495240 -0.586079
O13   O     O_3   0.675651 0.675015 0.652867 -0.528796
O14   O     O_2   0.206961 0.541109 0.782681 -0.314546
O15   O     O_2   0.300523 0.684152 0.684059 -0.285432
O16   O     O_3   0.098928 0.705056 0.777515 -0.479430
O17   O     O_2   0.699603 0.315963 0.315743 -0.261179
O18   O     O_2   0.792887 0.459315 0.217368 -0.313772
O19   O     O_3   0.901197 0.295507 0.221990 -0.461544
O20   O     O_R   0.609960 0.646370 0.493320 -0.582287
O21   O     O_R   0.390040 0.353630 0.506680 -0.581467
O22   O     O_R   0.392060 0.507120 0.646890 -0.558615
O23   O     O_R   0.607940 0.492880 0.353110 -0.561231
O24   O     O_R   0.580780 0.494630 0.635450 -0.549472
O25   O     O_R   0.419220 0.505370 0.364550 -0.549575
O26   O     O_2   0.797785 0.936218 0.236964 -0.223366
S1    S     S_3+6 0.726569 0.016292 0.302720 0.067856
S2    S     S_3+6 0.280011 0.985943 0.703218 0.052258
S3    S     S_3+6 0.214024 0.388252 0.335163 0.044228
S4    S     S_3+6 0.785919 0.611635 0.664923 0.043781
S5    S     S_3+6 0.193186 0.621872 0.713514 0.068423
S6    S     S_3+6 0.806851 0.378427 0.286329 0.090627
Zn1   Zn    Zn3+2 0.373990 0.508340 0.507630 1.078412
Zn2   Zn    Zn3+2 0.626010 0.491660 0.492370 1.076883

loop_
_geom_bond_atom_site_label_1
_geom_bond_atom_site_label_2
_ccdc_geom_bond_type
H13   O19   S    
C15   C18   A    
O8    S3    D    
C27   C29   A    
O5    S2    D    
O25   Zn1   S    
O2    S1    D    
C9    H12   S    
C24   H6    S    
C22   H2    S    
C1    O20   A    
C14   C21   A    
O4    S2    D    
O12   Zn2   S    
C24   N4    S    
C21   H14   S    
C16   C25   A    
C17   S2    S    
C9    C13   S    
O10   S4    D    
C30   N2    A    
O6    S2    S    
C10   H1    S    
O23   Zn2   S    
H10   O13   S    
C1    C15   S    
C9    C10   D    
C29   S5    S    
C20   H15   S    
C22   H20   S    
C19   N3    S    
O13   S4    S    
C30   S4    S    
O14   S5    D    
C2    S3    S    
C15   C20   A    
C22   N3    S    
H18   N3    S    
O24   Zn2   S    
C24   H5    S    
N2    Zn2   S    
O7    S3    D    
N1    Zn1   S    
C18   N4    S    
C6    O23   A    
C12   O12   A    
C24   H4    S    
O9    S3    S    
C3    C30   A    
C2    C4    A    
O17   S6    D    
O18   S6    D    
C20   C23   A    
C17   C23   A    
O22   Zn1   S    
C22   H19   S    
H8    O6    S    
O21   Zn1   S    
C12   C14   S    
C10   C11   S    
C28   S6    S    
O3    S1    S    
C3    C4    A    
O15   S5    D    
C29   N1    A    
C27   H17   S    
H3    N4    S    
C21   C25   A    
C14   C19   A    
O26   S1    D    
O11   S4    D    
C5    C8    S    
C4    C26   A    
C6    C7    S    
H9    O9    S    
C26   C28   A    
C5    O22   A    
C3    C27   A    
C1    O1    A    
C28   N2    A    
C6    O25   A    
C8    C11   T    
C16   S1    S    
C17   C19   A    
C23   C25   A    
O1    Zn1   S    
O19   S6    S    
C2    N1    A    
C26   H16   S    
C7    C13   T    
C16   C18   A    
C12   O21   A    
O20   Zn2   S    
C5    O24   A    
O16   S5    S    
H7    O3    S    
H11   O16   S    
