data_mof_unit_55605.cif
_audit_creation_date              2012-12-11T18:51:46-0500
_audit_creation_method            fapswitch 2.2
_symmetry_space_group_name_H-M    P1
_symmetry_Int_Tables_number       1
_space_group_crystal_system       triclinic
_cell_length_a                    8.192127
_cell_length_b                    15.001714
_cell_length_c                    14.931148
_cell_angle_alpha                 99.070244
_cell_angle_beta                  97.972024
_cell_angle_gamma                 98.484003
_cell_volume                      1767.39477385

loop_
_atom_site_label
_atom_site_type_symbol
_atom_type_description
_atom_site_fract_x
_atom_site_fract_y
_atom_site_fract_z
_atom_type_partial_charge
Ba1   Ba    Ba6+2 0.844890 0.542420 0.457460 1.654093
Ba2   Ba    Ba6+2 0.344950 0.457650 0.542550 1.631057
C1    C     C_3   0.648125 0.877185 0.242280 -0.369513
C2    C     C_R   0.894242 0.444818 0.919191 -0.035858
C3    C     C_R   0.036215 0.459822 0.107781 -0.034252
C4    C     C_3   0.078154 0.724696 0.211746 0.353543
C5    C     C_R   0.875172 0.409834 0.071994 -0.043325
C6    C     C_R   0.804420 0.404239 0.980421 -0.101293
C7    C     C_R   0.106169 0.471282 0.202670 0.036831
C8    C     C_R   0.269055 0.519344 0.233078 -0.303625
C9    C     C_R   0.084370 0.522768 0.795602 0.047352
C10   C     C_R   0.153907 0.532172 0.890592 -0.036553
C11   C     C_R   0.059691 0.491859 0.951839 0.007862
C12   C     C_3   0.616169 0.782561 0.267579 0.364349
C13   C     C_R   0.315413 0.580282 0.926561 -0.048192
C14   C     C_R   0.386286 0.586468 0.017833 -0.098883
C15   C     C_R   0.296059 0.547201 0.079205 -0.035450
C16   C     C_3   0.045246 0.746148 0.115299 -0.364919
C17   C     C_R   0.130419 0.499879 0.046458 0.007715
C18   C     C_R   0.366187 0.554666 0.172517 -0.000997
C19   C     C_R   0.922153 0.473652 0.765086 -0.297618
C20   C     C_R   0.328757 0.821988 0.437304 0.039040
C21   C     C_R   0.582011 0.791536 0.523518 0.037047
C22   C     C_R   0.769400 0.229982 0.524337 -0.286166
C23   C     C_3   0.411694 0.318287 0.257980 0.309775
C24   C     C_R   0.869957 0.172017 0.558634 0.013090
C25   C     C_R   0.807114 0.078615 0.549164 -0.152455
C26   C     C_R   0.641472 0.041327 0.503376 0.006731
C27   C     C_R   0.545036 0.100942 0.462890 -0.015354
C28   C     C_3   0.364737 0.750914 0.727325 0.263300
C29   C     C_R   0.569248 0.946827 0.494729 0.014180
C30   C     C_R   0.403189 0.914525 0.445551 0.004431
C31   C     C_R   0.314802 0.974989 0.405254 -0.095401
C32   C     C_R   0.384743 0.065638 0.412750 -0.053716
C33   C     C_R   0.654725 0.883656 0.534834 -0.122543
C34   C     C_3   0.373578 0.291972 0.153630 -0.394558
C35   C     C_R   0.421385 0.760874 0.473588 -0.284324
C36   C     C_R   0.611093 0.194997 0.473268 0.017456
C37   C     C_3   0.484230 0.777707 0.819400 -0.329611
C38   C     C_3   0.919709 0.261056 0.336246 0.309997
C39   C     C_3   0.881882 0.157110 0.308105 -0.399895
C40   C     C_3   0.790958 0.667109 0.737802 0.313183
C41   C     C_3   0.880841 0.701823 0.836818 -0.408990
C42   C     C_2   0.323794 0.835667 0.692317 0.830070
C43   C     C_3   0.118350 0.269782 0.785756 0.361950
C44   C     C_3   0.149532 0.245932 0.881270 -0.359671
C45   C     C_3   0.579327 0.215848 0.729619 0.311999
C46   C     C_3   0.550353 0.120847 0.753773 -0.292720
C47   C     C_R   0.824452 0.438605 0.825930 -0.002816
H1    H     H_    0.701810 0.783228 0.332250 0.090934
H2    H     H_    0.876245 0.633823 0.697707 0.039911
H3    H     H_    0.678466 0.615924 0.737810 0.044001
H4    H     H_    0.779446 0.893811 0.230902 0.147907
H5    H     H_    0.005453 0.742651 0.837839 0.156695
H6    H     H_    0.895753 0.643645 0.872724 0.055683
H7    H     H_    0.810466 0.746738 0.876587 0.114865
H8    H     H_    0.484715 0.768398 0.279026 -0.072863
H9    H     H_    0.626689 0.929550 0.298761 0.069244
H10   H     H_    0.297329 0.335892 0.283208 0.016624
H11   H     H_    0.513312 0.379067 0.276396 0.062895
H12   H     H_    0.534201 0.717336 0.836477 0.077228
H13   H     H_    0.268990 0.232811 0.132684 0.127587
H14   H     H_    0.337242 0.350457 0.123180 0.059428
H15   H     H_    0.486104 0.273208 0.126734 0.121905
H16   H     H_    0.561927 0.879184 0.178568 0.111227
H17   H     H_    0.068780 0.689074 0.064454 0.071796
H18   H     H_    0.205340 0.333715 0.785142 0.095711
H19   H     H_    0.987613 0.281719 0.771956 -0.067482
H20   H     H_    0.279983 0.233857 0.897547 0.149085
H21   H     H_    0.130242 0.303192 0.933372 0.069090
H22   H     H_    0.061415 0.183222 0.884619 0.116114
H23   H     H_    0.592367 0.830519 0.815967 0.130042
H24   H     H_    0.712487 0.232744 0.721907 -0.059714
H25   H     H_    0.498313 0.214318 0.663127 0.097065
H26   H     H_    0.580491 0.070287 0.698491 0.103764
H27   H     H_    0.417375 0.101414 0.761061 0.185442
H28   H     H_    0.994365 0.659950 0.213482 0.094459
H29   H     H_    0.631833 0.119845 0.819439 0.107308
H30   H     H_    0.800242 0.374720 0.114016 0.103689
H31   H     H_    0.678577 0.366604 0.958440 0.106427
H32   H     H_    0.513072 0.622948 0.039141 0.107347
H33   H     H_    0.391986 0.611882 0.884424 0.096877
H34   H     H_    0.418136 0.804848 0.875188 0.110247
H35   H     H_    0.323515 0.526306 0.304640 0.076079
H36   H     H_    0.867682 0.467029 0.693595 0.072665
H37   H     H_    0.364849 0.689811 0.467198 0.071622
H38   H     H_    0.189772 0.953467 0.366756 0.101434
H39   H     H_    0.777259 0.903717 0.576110 0.102796
H40   H     H_    0.210325 0.715282 0.226430 -0.067828
H41   H     H_    0.819027 0.302260 0.532211 0.065795
H42   H     H_    0.891331 0.037278 0.576840 0.098429
H43   H     H_    0.308695 0.107516 0.379047 0.098749
H44   H     H_    0.913132 0.755196 0.098059 0.147114
H45   H     H_    0.810917 0.285637 0.361097 0.006435
H46   H     H_    0.129432 0.809956 0.110971 0.111098
H47   H     H_    0.421418 0.711325 0.674682 -0.034590
H48   H     H_    0.165511 0.760508 0.584155 0.284879
H49   H     H_    0.029488 0.279776 0.392086 0.074803
H50   H     H_    0.765896 0.136115 0.256171 0.130077
H51   H     H_    0.864569 0.124497 0.368445 0.065379
H52   H     H_    0.987602 0.132404 0.278364 0.121469
O1    O     O_2   0.826410 0.445300 0.275350 -0.466959
O2    O     O_2   0.209276 0.177103 0.552982 -0.480720
O3    O     O_3   0.146519 0.197512 0.720739 -0.589047
O4    O     O_3   0.098900 0.448430 0.388910 -0.494423
O5    O     O_3   0.590780 0.611410 0.551120 -0.495269
O6    O     O_2   0.326530 0.274990 0.446290 -0.469777
O7    O     O_3   0.460804 0.243960 0.294695 -0.645856
O8    O     O_2   0.485233 0.447958 0.823900 -0.495185
O9    O     O_3   0.538545 0.279012 0.799405 -0.605443
O10   O     O_3   0.628630 0.613330 0.338230 -0.488589
O11   O     O_2   0.706903 0.550241 0.176746 -0.491000
O12   O     O_3   0.743492 0.741372 0.700692 -0.634960
O13   O     O_3   0.951424 0.298699 0.259323 -0.640764
O14   O     O_3   0.646453 0.717268 0.196146 -0.606334
O15   O     O_2   0.863180 0.725040 0.553770 -0.435296
O16   O     O_3   0.060890 0.661420 0.386090 -0.493425
O17   O     O_2   0.987875 0.823710 0.444359 -0.454746
O18   O     O_2   0.390180 0.912460 0.732694 -0.617235
O19   O     O_R   0.204598 0.827004 0.614180 -0.710127
O20   O     O_3   0.045532 0.797042 0.275031 -0.613733
O21   O     O_2   0.363300 0.554730 0.724710 -0.482555
O22   O     O_3   0.090820 0.551650 0.611100 -0.478538
O23   O     O_3   0.561090 0.386750 0.661790 -0.476407
O24   O     O_3   0.213588 0.701629 0.740560 -0.669395
O25   O     O_3   0.598940 0.388670 0.448890 -0.479785
O26   O     O_3   0.128820 0.338650 0.613920 -0.491667
P1    P     P_3+3 0.996530 0.418490 0.288400 0.970556
P2    P     P_3+3 0.693090 0.712100 0.580610 0.996651
P3    P     P_3+3 0.106270 0.777922 0.386648 0.962185
P4    P     P_3+3 0.193180 0.581580 0.711620 0.968994
P5    P     P_3+3 0.088293 0.220354 0.610401 0.962761
P6    P     P_3+3 0.586112 0.607566 0.219867 0.938369
P7    P     P_3+3 0.501635 0.274008 0.414843 0.933081
P8    P     P_3+3 0.603038 0.389558 0.779393 0.941338

loop_
_geom_bond_atom_site_label_1
_geom_bond_atom_site_label_2
_ccdc_geom_bond_type
O5    P2    S    
O8    P8    D    
C46   H27   S    
Ba1   P1    S    
O20   P3    S    
C2    C6    A    
C19   C47   A    
C5    C6    A    
Ba2   O22   S    
O7    P7    S    
C24   C25   A    
C20   C30   A    
C26   C27   A    
C22   C24   A    
O6    P7    D    
O1    P1    D    
C38   H49   S    
C42   O19   S    
C13   C14   A    
Ba2   O6    S    
C15   C18   A    
C21   P2    S    
Ba1   Ba2   S    
C46   H29   S    
C2    C11   A    
O26   P5    S    
C44   H20   S    
C28   H47   S    
C41   H5    S    
C38   O13   S    
O15   P2    D    
C29   C30   A    
C8    C18   A    
C14   C15   A    
C27   C36   A    
C43   H18   S    
C22   C36   A    
C37   H23   S    
C39   H50   S    
C25   H42   S    
Ba1   O15   S    
C18   P6    S    
C34   H14   S    
C7    C8    A    
O11   P6    D    
O4    P1    S    
C40   H2    S    
Ba2   O26   S    
C47   P8    S    
C28   O24   S    
C20   P3    S    
C16   H46   S    
C46   H26   S    
C28   C42   S    
O9    P8    S    
C1    H16   S    
C34   H13   S    
Ba2   P4    S    
C13   H33   S    
Ba2   O21   S    
C37   H12   S    
C4    C16   S    
C19   H36   S    
C7    P1    S    
C11   C17   A    
C35   H37   S    
Ba1   O25   S    
C45   H24   S    
C3    C5    A    
O10   P6    S    
C4    H28   S    
O14   P6    S    
C42   O18   D    
C43   C44   S    
C20   C35   A    
C27   C32   A    
C9    C19   A    
C22   H41   S    
Ba1   O22   S    
C3    C7    A    
O17   P3    D    
C43   O3    S    
O13   P1    S    
C33   H39   S    
O24   P4    S    
C40   O12   S    
C45   C46   S    
C10   C13   A    
C43   H19   S    
C31   C32   A    
C39   H51   S    
Ba1   O16   S    
O16   P3    S    
C44   H22   S    
C1    C12   S    
O12   P2    S    
Ba2   O25   S    
C41   H6    S    
C38   C39   S    
C23   H11   S    
C21   C33   A    
C29   C33   A    
C40   C41   S    
C4    H40   S    
O21   P4    D    
C24   P5    S    
C5    H30   S    
O2    P5    D    
C12   H8    S    
O23   P8    S    
O22   P4    S    
C26   C29   A    
C45   H25   S    
C38   H45   S    
C9    P4    S    
C9    C10   A    
C3    C17   A    
Ba2   O23   S    
C16   H17   S    
C45   O9    S    
Ba1   O5    S    
Ba2   O4    S    
Ba1   P2    S    
C2    C47   A    
C30   C31   A    
H48   O19   S    
C31   H38   S    
C37   H34   S    
C21   C35   A    
Ba1   O10   S    
C1    H4    S    
C12   H1    S    
C8    H35   S    
C14   H32   S    
C15   C17   A    
C39   H52   S    
C28   C37   S    
C36   P7    S    
C32   H43   S    
C44   H21   S    
C23   C34   S    
Ba2   O5    S    
C1    H9    S    
C41   H7    S    
C10   C11   A    
O25   P7    S    
O3    P5    S    
Ba1   O4    S    
C25   C26   A    
C6    H31   S    
C16   H44   S    
C23   H10   S    
C4    O20   S    
C34   H15   S    
Ba1   O1    S    
C12   O14   S    
C23   O7    S    
C40   H3    S    
