data_mof_unit_48677.cif
_audit_creation_date              2012-12-10T20:28:47-0500
_audit_creation_method            fapswitch 2.2
_symmetry_space_group_name_H-M    P1
_symmetry_Int_Tables_number       1
_space_group_crystal_system       triclinic
_cell_length_a                    10.677324
_cell_length_b                    10.741704
_cell_length_c                    9.912111
_cell_angle_alpha                 88.910116
_cell_angle_beta                  88.916847
_cell_angle_gamma                 93.365587
_cell_volume                      1134.45196038

loop_
_atom_site_label
_atom_site_type_symbol
_atom_type_description
_atom_site_fract_x
_atom_site_fract_y
_atom_site_fract_z
_atom_type_partial_charge
C1    C     C_R   0.501266 0.260367 0.500994 0.875445
C2    C     C_R   0.063064 0.538307 0.627625 0.086387
C3    C     C_R   0.131885 0.551097 0.505346 -0.220523
C4    C     C_R   0.069188 0.558561 0.383123 0.061427
C5    C     C_R   0.944996 0.513217 0.378230 0.120337
C6    C     C_R   0.877061 0.485853 0.499786 -0.193331
C7    C     C_R   0.483893 0.060481 0.621360 0.097398
C8    C     C_R   0.510020 0.128995 0.502586 -0.109019
C9    C     C_R   0.539670 0.069011 0.383137 -0.210808
C10   C     C_R   0.531472 0.940729 0.380810 -0.172847
C11   C     C_R   0.498217 0.872088 0.498709 -0.153434
C12   C     C_R   0.263089 0.520755 0.501239 0.863416
C13   C     C_R   0.477001 0.932346 0.619756 0.167621
C14   C     C_3   0.359100 0.924735 0.705451 -0.016595
C15   C     C_3   0.371017 0.065268 0.711132 -0.508637
C16   C     C_R   0.447384 0.400743 0.073915 0.168819
C17   C     C_R   0.574655 0.584768 0.068636 0.162063
C18   C     C_R   0.576142 0.583784 0.924312 0.197589
C19   C     C_R   0.445289 0.402020 0.932407 0.152366
C20   C     C_3   0.312352 0.351957 0.932821 -0.481899
C21   C     C_3   0.317012 0.344592 0.085966 -0.477104
C22   C     C_R   0.496931 0.739681 0.499144 0.894681
C23   C     C_R   0.740607 0.489948 0.499437 0.922659
C24   C     C_R   0.112726 0.576751 0.752128 -0.126923
C25   C     C_R   0.047861 0.546130 0.872801 -0.142353
C26   C     C_R   0.937708 0.470556 0.870893 -0.128187
C27   C     C_R   0.884734 0.439026 0.747838 -0.103482
C28   C     C_R   0.939966 0.486679 0.624826 0.065639
H1    H     H_    0.292349 0.111665 0.662944 0.186520
H2    H     H_    0.398031 0.100224 0.811587 0.226737
H3    H     H_    0.249395 0.421682 0.894914 0.221881
H4    H     H_    0.299111 0.259624 0.886451 0.206079
H5    H     H_    0.251656 0.404542 0.137016 0.205745
H6    H     H_    0.314627 0.247227 0.126457 0.212217
H7    H     H_    0.200632 0.631784 0.756495 0.175686
H8    H     H_    0.086514 0.575696 0.967750 0.147574
H9    H     H_    0.891428 0.438766 0.964277 0.136813
H10   H     H_    0.800509 0.377924 0.750472 0.152760
H11   H     H_    0.562872 0.120599 0.290119 0.182125
H12   H     H_    0.546962 0.896483 0.285954 0.212975
H13   H     H_    0.275676 0.889125 0.649125 0.134032
N1    N     N_R   0.499160 0.499140 0.142800 -0.141091
N2    N     N_R   0.499160 0.499180 0.857150 -0.145941
O1    O     O_R   0.500020 0.316790 0.614690 -0.617719
O2    O     O_R   0.500000 0.316760 0.385350 -0.622603
O3    O     O_R   0.316770 0.500020 0.614690 -0.621267
O4    O     O_R   0.316760 0.499980 0.385350 -0.620466
O5    O     O_R   0.500000 0.683240 0.614650 -0.580451
O6    O     O_R   0.499980 0.683210 0.385310 -0.604941
O7    O     O_R   0.683240 0.500020 0.614650 -0.613966
O8    O     O_R   0.683230 0.499980 0.385310 -0.566135
Zn1   Zn    Zn3+2 0.500010 0.500020 0.653130 0.979275
Zn2   Zn    Zn3+2 0.499990 0.499980 0.346870 0.981002
N3    N     N_3   0.125554 0.623843 0.267149 -0.439738
H14   H     H_    0.149387 0.559071 0.196013 0.176429
H15   H     H_    0.206188 0.677457 0.292901 0.217351
I1    I     I_    0.375687 0.839315 0.900776 -0.391759
I2    I     I_    0.696261 0.717364 0.166144 -0.305061
I3    I     I_    0.704243 0.712449 0.815678 -0.248486
N4    N     N_3   0.890649 0.487248 0.249784 -0.417606
H16   H     H_    0.937858 0.414256 0.207816 0.163457
H17   H     H_    0.907508 0.564800 0.185669 0.227869

loop_
_geom_bond_atom_site_label_1
_geom_bond_atom_site_label_2
_ccdc_geom_bond_type
O7    Zn1   S    
C26   H9    S    
C16   C21   S    
C3    C12   S    
C16   N1    A    
C1    C8    S    
C9    C10   A    
N3    H14   S    
C11   C22   S    
C23   O8    A    
C19   C20   S    
C14   C15   S    
C7    C13   A    
C17   I2    S    
O4    Zn2   S    
C1    O1    A    
O1    Zn1   S    
C7    C15   S    
C17   C18   A    
O2    Zn2   S    
C7    C8    A    
C18   N2    A    
C24   C25   A    
C4    C5    A    
C11   C13   A    
C1    O2    A    
C26   C27   A    
C14   H13   S    
C12   O4    A    
O6    Zn2   S    
C6    C23   S    
C10   H12   S    
C19   N2    A    
C22   O5    A    
C15   H1    S    
C2    C3    A    
C22   O6    A    
N1    Zn2   S    
C2    C24   A    
C5    C6    A    
N3    H15   S    
N2    Zn1   S    
C24   H7    S    
C21   H5    S    
C10   C11   A    
C25   H8    S    
C3    C4    A    
O3    Zn1   S    
C18   I3    S    
O5    Zn1   S    
C20   C21   S    
C15   H2    S    
N4    H17   S    
C20   H4    S    
C27   C28   A    
C14   I1    S    
C17   N1    A    
C8    C9    A    
C23   O7    A    
C2    C28   A    
C21   H6    S    
C27   H10   S    
C5    N4    S    
C4    N3    S    
C25   C26   A    
C13   C14   S    
C20   H3    S    
C9    H11   S    
C6    C28   A    
N4    H16   S    
O8    Zn2   S    
C12   O3    A    
C16   C19   A    
