data_mof_unit_12403.cif
_audit_creation_date              2012-12-10T16:37:40-0500
_audit_creation_method            fapswitch 2.2
_symmetry_space_group_name_H-M    P1
_symmetry_Int_Tables_number       1
_space_group_crystal_system       triclinic
_cell_length_a                    10.812021
_cell_length_b                    10.792144
_cell_length_c                    15.629225
_cell_angle_alpha                 95.742733
_cell_angle_beta                  74.739209
_cell_angle_gamma                 98.177225
_cell_volume                      1737.75004719

loop_
_atom_site_label
_atom_site_type_symbol
_atom_type_description
_atom_site_fract_x
_atom_site_fract_y
_atom_site_fract_z
_atom_type_partial_charge
C1    C     C_R   0.158189 0.477833 0.521165 0.548683
C2    C     C_R   0.526024 0.491854 0.115221 -0.093736
C3    C     C_R   0.623110 0.308317 0.128195 -0.083791
C4    C     C_R   0.842665 0.523721 0.480917 0.504733
C5    C     C_R   0.405122 0.554268 0.843230 -0.006494
C6    C     C_2   0.981272 0.538215 0.475247 0.251914
C7    C     C_2   0.022657 0.471723 0.527599 -0.054670
C8    C     C_2   0.543549 0.968658 0.477146 0.043528
C9    C     C_2   0.452217 0.036611 0.527462 0.044111
C10   C     C_R   0.468904 0.168293 0.520003 0.549883
C11   C     C_R   0.529488 0.833824 0.480627 0.521048
C12   C     C_R   0.310396 0.672710 0.982093 0.286849
C13   C     C_R   0.553779 0.447193 0.259244 0.519637
C14   C     C_R   0.439682 0.546705 0.743091 0.558042
C15   C     C_R   0.616504 0.264064 0.043063 0.071292
C16   C     C_R   0.576788 0.420763 0.164418 0.023398
C17   C     C_R   0.334207 0.653144 0.888887 0.242835
C18   C     C_3   0.296836 0.840081 0.841794 0.050939
C19   C     C_3   0.173077 0.903815 0.872757 -0.234624
C20   C     C_3   0.200654 0.046515 0.879217 -0.466187
C21   C     C_3   0.302023 0.856632 0.068993 0.005373
C22   C     C_3   0.213087 0.952246 0.119820 -0.255000
C23   C     C_R   0.351120 0.590902 0.030276 0.043715
C24   C     C_3   0.288919 0.065359 0.157341 -0.458961
C25   C     C_3   0.506030 0.176465 0.750679 0.027509
C26   C     C_3   0.654315 0.195480 0.712451 -0.246752
C27   C     C_3   0.705240 0.071596 0.673967 -0.461716
C28   C     C_3   0.049439 0.737617 0.427287 0.031157
C29   C     C_3   0.173982 0.818925 0.384382 -0.251912
C30   C     C_3   0.153727 0.957085 0.390898 -0.457889
C31   C     C_R   0.436759 0.504112 0.986045 -0.059234
C32   C     C_R   0.446041 0.469972 0.894166 -0.018387
C33   C     C_R   0.505001 0.443074 0.032637 0.024916
C34   C     C_R   0.555349 0.330589 0.995481 0.011957
C35   C     C_R   0.537640 0.282294 0.913992 -0.125547
C36   C     C_R   0.484884 0.348266 0.860889 0.294875
H1    H     H_    0.660891 0.252959 0.167463 0.156971
H2    H     H_    0.109033 0.087437 0.908846 0.186731
H3    H     H_    0.242213 0.081362 0.812051 0.189650
H4    H     H_    0.382837 0.905471 0.019410 0.132911
H5    H     H_    0.343944 0.818683 0.117279 0.156424
H6    H     H_    0.162134 0.985280 0.074910 0.183041
H7    H     H_    0.139530 0.906721 0.175248 0.191045
H8    H     H_    0.344505 0.034877 0.200312 0.162322
H9    H     H_    0.221171 0.129914 0.197616 0.179424
H10   H     H_    0.356664 0.116928 0.102349 0.175666
H11   H     H_    0.460375 0.135093 0.697600 0.187296
H12   H     H_    0.957096 0.410333 0.575105 0.071198
H13   H     H_    0.474192 0.102929 0.799239 0.088109
H14   H     H_    0.681474 0.263664 0.660278 0.226526
H15   H     H_    0.705323 0.235216 0.763694 0.155328
H16   H     H_    0.684498 0.004490 0.726861 0.155959
H17   H     H_    0.811346 0.088025 0.645813 0.167314
H18   H     H_    0.659547 0.029940 0.620337 0.166177
H19   H     H_    0.021580 0.767152 0.499671 0.129942
H20   H     H_    0.972797 0.754633 0.395989 0.184904
H21   H     H_    0.250219 0.808202 0.417976 0.197885
H22   H     H_    0.207583 0.787401 0.313132 0.195339
H23   H     H_    0.565496 0.190697 0.893305 0.133357
H24   H     H_    0.086305 0.970939 0.350909 0.162738
H25   H     H_    0.247608 0.014463 0.365049 0.175766
H26   H     H_    0.113439 0.990008 0.461033 0.189944
H27   H     H_    0.498098 0.582307 0.143837 0.137155
H28   H     H_    0.343719 0.861219 0.771706 0.166677
H29   H     H_    0.367466 0.879727 0.880600 0.101839
H30   H     H_    0.111785 0.874964 0.825453 0.198055
H31   H     H_    0.117049 0.872401 0.938820 0.223778
H32   H     H_    0.268099 0.078000 0.921974 0.150334
I1    I     I_    0.717262 0.054160 0.391988 -0.371808
I2    I     I_    0.264706 0.972108 0.607552 -0.453433
I3    I     I_    0.694217 0.091688 0.996060 -0.474594
I4    I     I_    0.230467 0.560643 0.161836 -0.322864
O1    O     O_3   0.500000 0.500000 0.500000 -0.458094
O2    O     O_R   0.463530 0.379110 0.309170 -0.526537
O3    O     O_R   0.388210 0.611730 0.699360 -0.502475
O4    O     O_R   0.624720 0.532760 0.292120 -0.522579
O5    O     O_R   0.523540 0.476390 0.699360 -0.506980
O6    O     O_3   0.262496 0.708774 0.844775 -0.514733
O7    O     O_3   0.230324 0.760738 0.026690 -0.533671
O8    O     O_3   0.453542 0.290774 0.783644 -0.543387
O9    O     O_3   0.070342 0.609914 0.412134 -0.544298
O10   O     O_R   0.537910 0.240570 0.564270 -0.547708
O11   O     O_R   0.438950 0.782540 0.540270 -0.529329
O12   O     O_R   0.222350 0.398740 0.468260 -0.517638
O13   O     O_R   0.800790 0.578160 0.427210 -0.526797
O14   O     O_R   0.212140 0.566330 0.564260 -0.519121
O15   O     O_R   0.764730 0.456770 0.540270 -0.581220
O16   O     O_R   0.412790 0.208310 0.468260 -0.523809
O17   O     O_R   0.610350 0.768590 0.427210 -0.520030
Zn1   Zn    Zn3+2 0.580150 0.419820 0.574680 0.942124
Zn2   Zn    Zn3+2 0.401380 0.373730 0.437510 0.982615
Zn3   Zn    Zn3+2 0.631680 0.593260 0.413140 0.977114
Zn4   Zn    Zn3+2 0.386790 0.613180 0.574670 0.977952

loop_
_geom_bond_atom_site_label_1
_geom_bond_atom_site_label_2
_ccdc_geom_bond_type
C25   O8    S    
C35   C36   A    
O1    Zn4   S    
C28   H20   S    
C27   H18   S    
C4    O15   A    
C2    H27   S    
C1    O12   A    
C12   C23   A    
C10   O16   A    
C26   C27   S    
C24   H9    S    
C32   C36   A    
C28   C29   S    
O1    Zn1   S    
C18   C19   S    
C26   H14   S    
C5    C17   A    
O11   Zn4   S    
C12   O7    S    
C19   H30   S    
C35   H23   S    
C34   C35   A    
C14   O5    A    
O15   Zn1   S    
O13   Zn3   S    
C22   H7    S    
C8    C9    D    
C30   H24   S    
C12   C17   A    
C31   C33   A    
C19   H31   S    
O12   Zn2   S    
C2    C16   A    
C9    C10   S    
C25   H11   S    
C15   C34   A    
C5    C32   A    
C6    O9    S    
C21   C22   S    
C28   H19   S    
O5    Zn1   S    
C9    I2    S    
O1    Zn2   S    
C4    C6    S    
C36   O8    S    
C20   H3    S    
C4    O13   A    
C11   O11   A    
C25   C26   S    
C10   O10   A    
C18   H29   S    
C23   C31   A    
O2    Zn2   S    
C29   C30   S    
O14   Zn4   S    
C20   H2    S    
C11   O17   A    
C31   C32   A    
C13   O4    A    
C18   O6    S    
C21   O7    S    
C33   C34   A    
C8    I1    S    
C29   H22   S    
O17   Zn3   S    
C5    C14   S    
O4    Zn3   S    
C21   H5    S    
C2    C33   A    
C29   H21   S    
C30   H26   S    
C24   H8    S    
C22   C24   S    
C13   C16   S    
C3    C15   A    
C27   H16   S    
O3    Zn4   S    
C1    O14   A    
C28   O9    S    
C1    C7    S    
C23   I4    S    
C20   H32   S    
O1    Zn3   S    
C27   H17   S    
C6    C7    D    
C15   I3    S    
O10   Zn1   S    
C24   H10   S    
C14   O3    A    
C19   C20   S    
C26   H15   S    
C7    H12   S    
C18   H28   S    
C22   H6    S    
C21   H4    S    
C8    C11   S    
C17   O6    S    
C25   H13   S    
C13   O2    A    
C3    H1    S    
C30   H25   S    
O16   Zn2   S    
C3    C16   A    
