data_mof_unit_58522.cif
_audit_creation_date              2012-12-10T19:25:53-0500
_audit_creation_method            fapswitch 2.2
_symmetry_space_group_name_H-M    P1
_symmetry_Int_Tables_number       1
_space_group_crystal_system       triclinic
_cell_length_a                    9.819789
_cell_length_b                    10.519359
_cell_length_c                    16.335912
_cell_angle_alpha                 89.510107
_cell_angle_beta                  88.781416
_cell_angle_gamma                 89.882226
_cell_volume                      1687.0189008

loop_
_atom_site_label
_atom_site_type_symbol
_atom_type_description
_atom_site_fract_x
_atom_site_fract_y
_atom_site_fract_z
_atom_type_partial_charge
C1    C     C_R   0.499952 0.741842 0.499679 0.932900
C2    C     C_3   0.628667 0.957966 0.488830 -0.342707
C3    C     C_3   0.953782 0.592514 0.456549 -0.084964
C4    C     C_3   0.047277 0.406635 0.543708 -0.086307
C5    C     C_3   0.051362 0.488699 0.426037 -0.341290
C6    C     C_3   0.948704 0.511338 0.574235 -0.365964
C7    C     C_3   0.046157 0.603189 0.529516 0.638991
C8    C     C_3   0.953770 0.396053 0.470386 0.612971
C9    C     C_R   0.484328 0.498484 0.654852 0.967800
C10   C     C_R   0.515230 0.495972 0.345224 0.924393
C11   C     C_R   0.475924 0.485840 0.745542 -0.182632
C12   C     C_R   0.499717 0.257941 0.499335 0.937348
C13   C     C_R   0.520099 0.469713 0.255786 -0.195821
C14   C     C_R   0.591245 0.486888 0.795649 0.507672
C15   C     C_R   0.400657 0.451306 0.210382 0.536619
C16   C     C_R   0.571340 0.475663 0.881332 -0.114736
C17   C     C_R   0.411640 0.418226 0.127014 -0.109398
C18   C     C_R   0.460036 0.402227 0.909731 -0.035380
C19   C     C_R   0.535382 0.367225 0.096511 -0.075120
C20   C     C_R   0.343003 0.400459 0.860595 0.031832
C21   C     C_R   0.655299 0.384307 0.141576 -0.009522
C22   C     C_R   0.348858 0.456573 0.782478 -0.221905
C23   C     C_3   0.423248 0.957747 0.437296 -0.052562
C24   C     C_R   0.646936 0.443341 0.218172 -0.168458
C25   C     C_2   0.492749 0.282920 0.954437 -0.289890
C26   C     C_2   0.534919 0.269639 0.031588 -0.247823
C27   C     C_3   0.776818 0.356404 0.789160 0.109570
C28   C     C_3   0.882312 0.308669 0.728799 -0.660974
C29   C     C_3   0.216166 0.326207 0.250331 0.112159
C30   C     C_3   0.304814 0.225629 0.291417 -0.886171
C31   C     C_2   0.898587 0.695007 0.402452 0.430870
C32   C     C_2   0.112198 0.306417 0.596126 0.366042
C33   C     C_3   0.002952 0.795871 0.594601 0.086378
C34   C     C_3   0.573513 0.040864 0.559617 -0.022203
C35   C     C_3   0.011630 0.795764 0.687565 -0.748894
C36   C     C_3   0.990570 0.189723 0.423161 0.077689
C37   C     C_3   0.957304 0.113357 0.347552 -0.740599
C38   C     C_2   0.220604 0.325347 0.884170 0.421203
C39   C     C_2   0.789870 0.340081 0.109186 0.448842
C40   C     C_2   0.288838 0.424099 0.076707 0.490483
C41   C     C_2   0.672188 0.529364 0.937769 0.416879
C42   C     C_2   0.607685 0.085886 0.346009 0.406342
C43   C     C_2   0.387556 0.914194 0.650709 0.445937
C44   C     C_2   0.336248 0.903005 0.372034 0.355533
C45   C     C_3   0.550856 0.041004 0.426887 0.042190
C46   C     C_2   0.656389 0.088510 0.628473 0.370227
C47   C     C_3   0.445929 0.958116 0.569832 0.025582
C48   C     C_3   0.498190 0.123048 0.497769 -0.038651
C49   C     C_3   0.499413 0.876346 0.499388 -0.066503
C50   C     C_3   0.368467 0.041314 0.507993 -0.324209
H1    H     H_    0.739454 0.456915 0.251968 0.221317
H2    H     H_    0.827568 0.369302 0.848569 0.209807
H3    H     H_    0.969584 0.375229 0.727423 0.253872
H4    H     H_    0.918802 0.213240 0.748141 0.231458
H5    H     H_    0.837317 0.301819 0.667249 0.267667
H6    H     H_    0.189565 0.293290 0.188610 0.163288
H7    H     H_    0.117301 0.329612 0.283564 0.185272
H8    H     H_    0.333960 0.257085 0.352944 0.278006
H9    H     H_    0.247529 0.135681 0.297422 0.246960
H10   H     H_    0.397222 0.206290 0.253334 0.273362
H11   H     H_    0.824794 0.671879 0.356519 0.093563
H12   H     H_    0.257934 0.456488 0.746186 0.196661
H13   H     H_    0.197374 0.330551 0.633606 0.119892
H14   H     H_    0.896748 0.772122 0.577264 0.140237
H15   H     H_    0.022658 0.894093 0.571862 0.190018
H16   H     H_    0.113022 0.830149 0.706094 0.275983
H17   H     H_    0.932200 0.859723 0.713807 0.216289
H18   H     H_    0.995536 0.698407 0.712554 0.266823
H19   H     H_    0.983347 0.122488 0.475552 0.209594
H20   H     H_    0.097242 0.224666 0.416705 0.129003
H21   H     H_    0.938725 0.177019 0.294413 0.279051
H22   H     H_    0.042165 0.047319 0.332512 0.221004
H23   H     H_    0.567347 0.175115 0.050288 0.178578
H24   H     H_    0.866418 0.054168 0.360206 0.263400
H25   H     H_    0.228592 0.242510 0.923704 0.061482
H26   H     H_    0.799371 0.300627 0.048179 0.071793
H27   H     H_    0.261366 0.343712 0.040490 0.045822
H28   H     H_    0.654527 0.525976 0.002889 0.086633
H29   H     H_    0.630970 0.017422 0.298460 0.104599
H30   H     H_    0.346352 0.983490 0.693364 0.086726
H31   H     H_    0.241700 0.855647 0.389128 0.146864
H32   H     H_    0.765520 0.072375 0.628577 0.093881
H33   H     H_    0.490204 0.196834 0.918143 0.176495
H34   H     H_    0.262570 0.077097 0.514807 0.193387
H35   H     H_    0.734656 0.922506 0.482070 0.194141
H36   H     H_    0.098739 0.491189 0.364426 0.213213
H37   H     H_    0.899485 0.528219 0.634710 0.210384
H38   H     H_    0.698971 0.279910 0.797139 0.162810
N1    N     N_3   0.136700 0.499970 0.500060 -0.146862
N2    N     N_3   0.863300 0.500030 0.499940 -0.144677
O1    O     O_R   0.383390 0.686040 0.500000 -0.561437
O2    O     O_3   0.274152 0.450645 0.250149 -0.593961
O3    O     O_2   0.938543 0.804140 0.408330 -0.642055
O4    O     O_2   0.067781 0.198478 0.599776 -0.663330
O5    O     O_3   0.104423 0.715149 0.560507 -0.569668
O6    O     O_3   0.893806 0.288142 0.434534 -0.560522
O7    O     O_2   0.108638 0.355307 0.859431 -0.587261
O8    O     O_2   0.892233 0.347934 0.150014 -0.580112
O9    O     O_2   0.214094 0.516944 0.078986 -0.492155
O10   O     O_2   0.772462 0.586477 0.911718 -0.511409
O11   O     O_2   0.629749 0.198412 0.333333 -0.570181
O12   O     O_R   0.616610 0.313960 0.500000 -0.544545
O13   O     O_2   0.386459 0.801619 0.669216 -0.572730
O14   O     O_2   0.371375 0.909972 0.300075 -0.584333
O15   O     O_2   0.601146 0.146583 0.684290 -0.630629
O16   O     O_R   0.616650 0.686050 0.499970 -0.650957
O17   O     O_R   0.383350 0.313950 0.500030 -0.673343
O18   O     O_R   0.369590 0.500020 0.615820 -0.622719
O19   O     O_R   0.630410 0.499980 0.384180 -0.618324
O20   O     O_R   0.602840 0.500020 0.615790 -0.570768
O21   O     O_R   0.397160 0.499980 0.384210 -0.573090
O22   O     O_3   0.720729 0.473583 0.761212 -0.590629
Zn1   Zn    Zn3+2 0.344250 0.499990 0.500020 1.000591
Zn2   Zn    Zn3+2 0.655750 0.500010 0.499980 1.011999

loop_
_geom_bond_atom_site_label_1
_geom_bond_atom_site_label_2
_ccdc_geom_bond_type
C32   O4    D    
C37   H24   S    
C23   C45   S    
C31   H11   S    
C8    O6    S    
C4    C8    S    
C40   O9    D    
C44   O14   D    
C50   H34   S    
C47   C49   S    
C36   H19   S    
C9    O18   A    
C14   O22   S    
O16   Zn2   S    
C3    N2    S    
C36   C37   S    
C19   C21   A    
C3    C7    S    
C11   C14   A    
C23   C49   S    
C7    N1    S    
C46   O15   D    
C26   H23   S    
C10   O19   A    
C19   C26   S    
O17   Zn1   S    
C33   C35   S    
C15   O2    S    
C46   H32   S    
C30   H10   S    
C34   C46   S    
O20   Zn2   S    
C12   C48   S    
C1    O16   A    
C2    C34   S    
C24   H1    S    
C48   C50   S    
C42   H29   S    
C1    O1    A    
C18   C25   S    
C38   O7    D    
C33   O5    S    
C28   H5    S    
C36   H20   S    
C47   C50   S    
C38   H25   S    
C2    C45   S    
N1    Zn1   S    
C33   H15   S    
C4    C6    S    
C44   H31   S    
C41   H28   S    
C28   H4    S    
C23   C50   S    
C2    H35   S    
C35   H16   S    
C3    C5    S    
C43   H30   S    
C31   O3    D    
C6    H37   S    
O1    Zn1   S    
C13   C24   A    
C17   C40   S    
O18   Zn1   S    
C12   O12   A    
C29   C30   S    
O12   Zn2   S    
C2    C49   S    
C22   H12   S    
C20   C38   S    
C36   O6    S    
C21   C39   S    
C35   H17   S    
C30   H9    S    
C41   O10   D    
C10   O21   A    
O21   Zn1   S    
C39   H26   S    
C3    C31   S    
C9    C11   S    
C12   O17   A    
C4    C32   S    
O19   Zn2   S    
C5    H36   S    
C20   C22   A    
C27   O22   S    
C37   H21   S    
C14   C16   A    
C21   C24   A    
C8    N2    S    
C42   O11   D    
C27   H2    S    
C4    N1    S    
C45   C48   S    
C9    O20   A    
C15   C17   A    
C32   H13   S    
C29   H7    S    
C39   O8    D    
C10   C13   S    
C5    C8    S    
C28   H3    S    
C6    C7    S    
C29   H6    S    
C7    O5    S    
C11   C22   A    
C13   C15   A    
C25   C26   D    
C6    N2    S    
C43   C47   S    
C35   H18   S    
C33   H14   S    
C30   H8    S    
C17   C19   A    
C18   C20   A    
N2    Zn2   S    
C27   H38   S    
C43   O13   D    
C23   C44   S    
C34   C48   S    
C16   C18   A    
C37   H22   S    
C27   C28   S    
C25   H33   S    
C40   H27   S    
C34   C47   S    
C1    C49   S    
C16   C41   S    
C42   C45   S    
C29   O2    S    
C5    N1    S    
