data_mof_unit_21534.cif
_audit_creation_date              2012-10-26T19:26:42-0400
_audit_creation_method            fapswitch 2.2
_symmetry_space_group_name_H-M    P1
_symmetry_Int_Tables_number       1
_space_group_crystal_system       triclinic
_cell_length_a                    15.082319
_cell_length_b                    13.703545
_cell_length_c                    15.899687
_cell_angle_alpha                 90.073525
_cell_angle_beta                  89.070796
_cell_angle_gamma                 89.235796
_cell_volume                      3285.43888093

loop_
_atom_site_label
_atom_site_type_symbol
_atom_type_description
_atom_site_fract_x
_atom_site_fract_y
_atom_site_fract_z
_atom_type_partial_charge
C1    C     C_R   0.328752 0.500932 0.499089 0.575970
C2    C     C_R   0.907223 0.448382 0.568526 -0.000010
C3    C     C_R   0.953331 0.504245 0.507112 -0.053989
C4    C     C_R   0.500040 0.499929 0.340095 0.561917
C5    C     C_R   0.906199 0.556697 0.445510 -0.014654
C6    C     C_R   0.956010 0.405087 0.634805 0.322365
C7    C     C_R   0.049313 0.401104 0.630824 0.028415
C8    C     C_R   0.094664 0.450804 0.565462 -0.069641
C9    C     C_R   0.046737 0.507403 0.506594 -0.046130
C10   C     C_R   0.092474 0.565467 0.445921 0.040404
C11   C     C_R   0.044273 0.617297 0.384219 0.264232
C12   C     C_3   0.590773 0.531979 0.949953 -0.185470
C13   C     C_R   0.951800 0.610989 0.384742 -0.116875
C14   C     C_R   0.187133 0.444943 0.557028 -0.190890
C15   C     C_R   0.232205 0.504148 0.500240 -0.007462
C16   C     C_R   0.671059 0.499330 0.501870 0.547469
C17   C     C_R   0.185902 0.569722 0.448654 0.268420
C18   C     C_R   0.443196 0.794939 0.551589 0.026001
C19   C     C_R   0.443160 0.206860 0.551574 0.047374
C20   C     C_R   0.557251 0.791218 0.447324 0.065520
C21   C     C_R   0.558128 0.206995 0.448235 0.082957
C22   C     C_R   0.559248 0.894857 0.443720 -0.014939
C23   C     C_3   0.590773 0.530745 0.047276 -0.212827
C24   C     C_R   0.562436 0.103267 0.446875 -0.005854
C25   C     C_R   0.501504 0.948174 0.497901 0.028782
C26   C     C_R   0.502361 0.051775 0.498748 0.031103
C27   C     C_R   0.442437 0.897714 0.551728 -0.010908
C28   C     C_R   0.442707 0.104095 0.552009 -0.005806
C29   C     C_R   0.618666 0.946233 0.389865 -0.011216
C30   C     C_R   0.622703 0.050018 0.393831 -0.012565
C31   C     C_R   0.383857 0.052925 0.604516 -0.129604
C32   C     C_R   0.383910 0.950721 0.604557 -0.134241
C33   C     C_R   0.499897 0.500040 0.659861 0.532067
C34   C     C_1   0.499556 0.499905 0.824736 -0.085746
C35   C     C_3   0.427364 0.571347 0.050901 -0.187021
C36   C     C_3   0.479302 0.395638 0.049647 -0.188797
C37   C     C_3   0.478670 0.395164 0.951563 -0.069538
C38   C     C_3   0.425507 0.570559 0.952881 -0.070352
C39   C     C_1   0.499764 0.500060 0.749326 -0.040280
C40   C     C_3   0.499277 0.499271 0.082876 0.022901
C41   C     C_3   0.499275 0.499648 0.917068 0.057342
C42   C     C_2   0.098276 0.349645 0.698773 0.240884
C43   C     C_3   0.234755 0.725675 0.436357 0.022941
C44   C     C_3   0.295028 0.792138 0.385278 -0.340562
C45   C     C_1   0.499802 0.499441 0.174996 -0.072587
C46   C     C_3   0.054808 0.754931 0.297237 -0.013069
C47   C     C_3   0.016587 0.754550 0.209087 -0.371517
C48   C     C_2   0.678379 0.892906 0.329783 0.196829
C49   C     C_2   0.689664 0.101190 0.340782 0.187026
C50   C     C_2   0.539003 0.316303 0.914513 0.211812
C51   C     C_2   0.429891 0.672483 0.916281 0.209329
C52   C     C_3   0.755305 0.543651 0.313224 -0.018052
C53   C     C_3   0.720980 0.604553 0.240699 -0.344125
C54   C     C_2   0.761881 0.373520 0.617888 0.318009
C55   C     C_3   0.898838 0.447312 0.763185 -0.014489
C56   C     C_1   0.499935 0.499679 0.250485 -0.020565
C57   C     C_3   0.844422 0.411136 0.837986 -0.323552
C58   C     C_R   0.813617 0.553205 0.443962 0.247040
C59   C     C_R   0.767702 0.498026 0.503995 -0.027890
C60   C     C_R   0.813473 0.441402 0.563775 -0.048140
Cu1   Cu    Cu3+1 0.499990 0.597420 0.500010 0.964828
Cu2   Cu    Cu3+1 0.499990 0.402580 0.500010 0.959591
H1    H     H_    0.360017 0.541550 0.934226 0.065936
H2    H     H_    0.337996 0.913055 0.645913 0.108905
H3    H     H_    0.361159 0.550020 0.076242 0.108530
H4    H     H_    0.413445 0.372054 0.074201 0.105233
H5    H     H_    0.528985 0.342808 0.074611 0.172158
H6    H     H_    0.440263 0.645586 0.076017 0.178620
H7    H     H_    0.607088 0.604705 0.071012 0.143599
H8    H     H_    0.643237 0.479164 0.068871 0.134830
H9    H     H_    0.606880 0.606266 0.926942 0.166967
H10   H     H_    0.644633 0.483403 0.925020 0.151822
H11   H     H_    0.162040 0.375498 0.719216 0.067650
H12   H     H_    0.410368 0.376225 0.932127 0.070408
H13   H     H_    0.260395 0.721345 0.501535 0.117815
H14   H     H_    0.167333 0.759366 0.439699 0.124551
H15   H     H_    0.269622 0.800793 0.320564 0.159691
H16   H     H_    0.297765 0.865031 0.415649 0.094357
H17   H     H_    0.363013 0.760276 0.381348 0.190821
H18   H     H_    0.110592 0.806865 0.297081 0.147604
H19   H     H_    0.005073 0.784832 0.343448 0.107771
H20   H     H_    0.961210 0.702392 0.204972 0.141909
H21   H     H_    0.991417 0.828696 0.193301 0.113228
H22   H     H_    0.068963 0.733104 0.162490 0.168719
H23   H     H_    0.225898 0.396476 0.596012 0.111324
H24   H     H_    0.747942 0.911660 0.324766 0.118647
H25   H     H_    0.701166 0.078842 0.275976 0.119462
H26   H     H_    0.516086 0.272754 0.862317 0.120570
H27   H     H_    0.386821 0.692235 0.864817 0.105469
H28   H     H_    0.706080 0.486166 0.328104 0.146361
H29   H     H_    0.818712 0.507966 0.291987 0.131573
H30   H     H_    0.767241 0.665034 0.226745 0.177589
H31   H     H_    0.716088 0.557996 0.184000 0.079245
H32   H     H_    0.654406 0.635292 0.256880 0.203164
H33   H     H_    0.702974 0.399478 0.651565 0.088886
H34   H     H_    0.915266 0.647362 0.335770 0.154273
H35   H     H_    0.861393 0.508739 0.733779 0.098306
H36   H     H_    0.963116 0.474728 0.786573 0.126926
H37   H     H_    0.880288 0.350589 0.869711 0.195818
H38   H     H_    0.833002 0.471563 0.883659 0.085213
H39   H     H_    0.779228 0.384654 0.816604 0.180742
H40   H     H_    0.398440 0.755427 0.592683 0.114505
H41   H     H_    0.397929 0.247786 0.592241 0.120349
H42   H     H_    0.602039 0.747009 0.409280 0.202393
H43   H     H_    0.599877 0.249955 0.407352 0.179825
H44   H     H_    0.337802 0.092031 0.645757 0.117647
N1    N     N_R   0.499930 0.743810 0.499960 -0.261587
N2    N     N_R   0.499930 0.256190 0.499960 -0.250039
O1    O     O_R   0.370250 0.582280 0.500020 -0.493820
O2    O     O_3   0.233193 0.632778 0.397380 -0.497936
O3    O     O_3   0.089027 0.660888 0.317012 -0.511126
O4    O     O_2   0.649287 0.831471 0.282338 -0.532239
O5    O     O_2   0.735650 0.165032 0.370192 -0.495030
O6    O     O_2   0.613951 0.302581 0.940372 -0.514065
O7    O     O_2   0.482705 0.732082 0.941682 -0.503895
O8    O     O_3   0.767268 0.604922 0.383601 -0.558510
O9    O     O_2   0.782466 0.287172 0.621677 -0.407387
O10   O     O_3   0.913295 0.369496 0.705935 -0.471767
O11   O     O_R   0.370250 0.417720 0.500020 -0.507352
O12   O     O_R   0.499990 0.582310 0.379440 -0.490027
O13   O     O_R   0.499990 0.417690 0.379440 -0.504413
O14   O     O_R   0.629730 0.582260 0.499990 -0.468492
O15   O     O_R   0.629730 0.417740 0.499990 -0.507490
O16   O     O_R   0.499980 0.582240 0.620570 -0.500966
O17   O     O_R   0.499980 0.417760 0.620570 -0.506777
O18   O     O_2   0.067571 0.277577 0.732999 -0.438651

loop_
_geom_bond_atom_site_label_1
_geom_bond_atom_site_label_2
_ccdc_geom_bond_type
C49   O5    D    
C37   H12   S    
C22   C29   A    
C49   H25   S    
C52   H28   S    
Cu1   O1    S    
C17   O2    S    
C36   H5    S    
C7    C8    A    
C54   C60   S    
C12   C23   S    
C29   C30   A    
C5    C58   A    
Cu1   O16   S    
C44   H15   S    
C16   O15   A    
C24   C26   A    
C18   H40   S    
C2    C60   A    
C7    C42   S    
Cu2   N2    S    
C35   H3    S    
C10   C17   A    
C23   C40   S    
C57   H37   S    
C1    O11   A    
C47   H20   S    
C16   O14   A    
C18   N1    A    
C1    O1    A    
C19   H41   S    
C45   C56   T    
C8    C9    A    
C22   C25   A    
C53   H32   S    
C33   O16   A    
C1    C15   S    
C43   O2    S    
C47   H21   S    
C9    C10   A    
C5    C13   A    
C50   H26   S    
C20   N1    A    
C19   N2    A    
C12   H10   S    
C59   C60   A    
C46   O3    S    
C4    C56   S    
Cu1   O12   S    
C58   O8    S    
C23   H8    S    
C2    C6    A    
C34   C41   S    
Cu2   O15   S    
C52   O8    S    
C43   H13   S    
C40   C45   S    
C13   H34   S    
C53   H31   S    
C34   C39   T    
C36   C40   S    
C35   C38   S    
C32   H2    S    
C38   C41   S    
C38   C51   S    
C29   C48   S    
C58   C59   A    
C57   H38   S    
C11   O3    S    
C23   H7    S    
C51   O7    D    
Cu1   O14   S    
C50   O6    D    
C16   C59   S    
C43   C44   S    
C28   C31   A    
C12   C41   S    
C3    C9    A    
C46   H19   S    
C31   C32   A    
C55   H35   S    
C53   H30   S    
C33   O17   A    
Cu2   O11   S    
C33   C39   S    
C47   H22   S    
C19   C28   A    
C54   H33   S    
C48   O4    D    
C12   H9    S    
C20   C22   A    
C55   C57   S    
C31   H44   S    
C48   H24   S    
C21   C24   A    
C52   C53   S    
C38   H1    S    
C43   H14   S    
C15   C17   A    
C46   C47   S    
C36   C37   S    
C42   H11   S    
C8    C14   A    
C27   C32   A    
C30   C49   S    
C44   H17   S    
C18   C27   A    
C14   H23   S    
C3    C5    A    
Cu2   O17   S    
C6    C7    A    
C20   H42   S    
C25   C27   A    
C57   H39   S    
C26   C28   A    
C44   H16   S    
C2    C3    A    
C25   C26   A    
C51   H27   S    
C46   H18   S    
C37   C50   S    
C11   C13   A    
C35   H6    S    
C55   H36   S    
C4    O13   A    
C35   C40   S    
C36   H4    S    
C37   C41   S    
Cu1   Cu2   S    
Cu1   N1    S    
C24   C30   A    
C21   N2    A    
C10   C11   A    
C42   O18   D    
C54   O9    D    
C14   C15   A    
C4    O12   A    
C52   H29   S    
C6    O10   S    
Cu2   O13   S    
C21   H43   S    
C55   O10   S    
