data_mof_unit_16324.cif
_audit_creation_date              2013-03-05T15:56:56-0500
_audit_creation_method            fapswitch 2.2
_symmetry_space_group_name_H-M    P1
_symmetry_Int_Tables_number       1
_space_group_crystal_system       triclinic
_cell_length_a                    6.939964
_cell_length_b                    14.560336
_cell_length_c                    16.070736
_cell_angle_alpha                 90.002885
_cell_angle_beta                  89.788889
_cell_angle_gamma                 90.025278
_cell_volume                      1623.90788547

loop_
_atom_site_label
_atom_site_type_symbol
_atom_site_description
_atom_site_fract_x
_atom_site_fract_y
_atom_site_fract_z
_atom_type_partial_charge
O1    O     O_R   0.505680 0.583900 0.413320 -0.598163
O2    O     O_R   0.176010 0.594950 0.586080 -0.599659
O3    O     O_R   0.005680 0.416100 0.586680 -0.600946
C1    C     C_R   0.344908 0.617509 0.614564 0.954247
O4    O     O_R   0.175960 0.594930 0.413930 -0.600814
O5    O     O_R   0.005640 0.416080 0.413300 -0.597735
C2    C     C_R   0.345196 0.617134 0.384996 0.914039
O6    O     O_R   0.505720 0.583920 0.586700 -0.588969
O7    O     O_3   0.339190 0.441320 0.500000 -0.273377
V1    V     V_3+5 0.064350 0.510890 0.500000 1.150283
O8    O     O_R   0.675920 0.405050 0.413920 -0.603267
C3    C     C_R   0.845120 0.382794 0.385012 0.912197
O9    O     O_R   0.675960 0.405070 0.586070 -0.560461
C4    C     C_R   0.844140 0.383595 0.615422 0.989268
V2    V     V_3+5 0.564340 0.489110 0.500000 1.166733
O10   O     O_3   0.839370 0.558680 0.500000 -0.280463
C5    C     C_R   0.993556 0.246240 0.684403 0.063371
C6    C     C_R   0.850377 0.314037 0.683017 -0.369208
C7    C     C_R   0.709304 0.311579 0.747036 0.572899
C8    C     C_R   0.719446 0.244050 0.810505 -0.338587
H1    H     H_    0.608505 0.242166 0.858035 0.151340
C9    C     C_R   0.877239 0.183753 0.815998 -0.254657
C10   C     C_R   0.008760 0.184101 0.749862 0.153466
C11   C     C_3   0.223265 0.189238 0.749632 -0.447622
C12   C     C_3   0.206290 0.255799 0.677026 -0.362142
H2    H     H_    0.291031 0.122800 0.732147 0.176604
H3    H     H_    0.280442 0.221659 0.807064 0.205222
H4    H     H_    0.262158 0.227464 0.617425 0.174753
H5    H     H_    0.252288 0.326855 0.691295 0.250416
C13   C     C_R   0.046703 0.224429 0.217452 -0.143177
H6    H     H_    0.187347 0.205741 0.193504 0.120817
C14   C     C_R   0.035740 0.287983 0.282707 -0.136715
H7    H     H_    0.168425 0.316447 0.306839 0.123979
C15   C     C_R   0.856334 0.314455 0.316165 -0.120481
C16   C     C_R   0.688197 0.275611 0.282469 -0.141786
H8    H     H_    0.547554 0.294302 0.306416 0.120790
C17   C     C_R   0.699161 0.212055 0.217216 -0.139710
H9    H     H_    0.566476 0.183593 0.193082 0.122775
C18   C     C_R   0.878569 0.185571 0.183768 -0.116683
C19   C     C_R   0.210252 0.750340 0.696697 -0.123410
H10   H     H_    0.086271 0.752774 0.656023 0.127977
C20   C     C_R   0.224776 0.814432 0.761444 -0.073887
H11   H     H_    0.112645 0.865602 0.768075 0.156729
C21   C     C_R   0.382427 0.813534 0.816410 -0.313070
C22   C     C_R   0.528488 0.746756 0.803892 0.387015
C23   C     C_R   0.515692 0.685114 0.737046 -0.249391
H12   H     H_    0.629842 0.635367 0.728168 0.152879
C24   C     C_R   0.356509 0.685437 0.683395 -0.188713
C25   C     C_R   0.188338 0.724391 0.282596 -0.141940
H13   H     H_    0.047719 0.705836 0.306693 0.121574
C26   C     C_R   0.199289 0.787939 0.217349 -0.125828
H14   H     H_    0.066628 0.816534 0.193373 0.125616
C27   C     C_R   0.378659 0.814274 0.183732 -0.122713
C28   C     C_R   0.546769 0.775234 0.217197 -0.126026
H15   H     H_    0.687379 0.793779 0.193082 0.125064
C29   C     C_R   0.535818 0.711685 0.282449 -0.137444
H16   H     H_    0.668470 0.683077 0.306420 0.124835
C30   C     C_R   0.356451 0.685409 0.316113 -0.124185
O11   O     O_R   0.229200 0.915950 0.913350 -0.572241
O12   O     O_R   0.559090 0.905000 0.086080 -0.596835
O13   O     O_R   0.729280 0.083880 0.086680 -0.604956
C31   C     C_R   0.389875 0.882677 0.114959 0.922967
O14   O     O_R   0.558920 0.904980 0.913920 -0.554373
O15   O     O_R   0.729110 0.083860 0.913300 -0.597411
C32   C     C_R   0.390618 0.882044 0.885467 0.963724
O16   O     O_R   0.229360 0.915970 0.086730 -0.598255
O17   O     O_3   0.395680 0.058580 0.000030 -0.291713
V3    V     V_3+5 0.670570 0.989070 0.999990 1.202653
O18   O     O_R   0.058820 0.094950 0.913870 -0.604454
C33   C     C_R   0.890073 0.116792 0.885064 0.973065
O19   O     O_R   0.058990 0.094970 0.086020 -0.605149
C34   C     C_R   0.889791 0.117204 0.114942 0.900096
V4    V     V_3+5 0.170560 0.010930 0.999930 1.172358
O20   O     O_3   0.895590 0.941310 0.999960 -0.234526
O21   O     O_3   0.558109 0.373230 0.746086 -0.654949
C35   C     C_3   0.574349 0.435810 0.812865 0.235489
H17   H     H_    0.679465 0.490384 0.796082 0.125779
H18   H     H_    0.621533 0.403389 0.872176 0.095986
C36   C     C_3   0.378072 0.479066 0.828684 -0.837930
H19   H     H_    0.275281 0.425893 0.850982 0.235114
H20   H     H_    0.390281 0.533708 0.876575 0.248593
H21   H     H_    0.321133 0.509389 0.770426 0.244139
N1    N     N_R   0.686217 0.737190 0.860327 0.228131
O22   O     O_R   0.831912 0.793005 0.854932 -0.404164
O23   O     O_R   0.705102 0.661388 0.902345 -0.434795

loop_
_geom_bond_atom_site_label_1
_geom_bond_atom_site_label_2
_geom_bond_distance
_ccdc_geom_bond_type
O14   C32   1.299400 A    
V4    O20   2.160415 S    
C4    C6    1.485986 S    
C7    C8    1.418734 A    
C35   C36   1.521497 S    
C1    O6    1.296921 A    
C22   C23   1.402853 A    
C12   H4    1.111459 S    
C5    C10   1.391888 A    
O15   V3    2.001596 S    
C16   C17   1.400439 A    
C11   H2    1.111453 S    
C6    C7    1.418040 A    
O5    C3    1.298381 A    
C13   H6    1.082736 S    
V3    O20   1.709745 S    
V2    O10   2.160442 S    
C29   H16   1.082764 S    
O12   C31   1.302226 A    
C15   C16   1.406674 A    
C28   H15   1.082746 S    
O8    V2    2.001037 S    
C16   H8    1.082738 S    
C25   C26   1.400302 A    
C18   C34   1.489866 S    
C11   H3    1.111153 S    
O18   V4    2.004917 S    
O17   V4    1.709177 S    
O15   C33   1.295962 A    
O7    V1    2.160069 S    
O11   V4    2.002568 S    
C2    C30   1.489701 S    
C19   C20   1.401534 A    
O9    C4    1.298825 A    
C21   C32   1.493401 S    
C22   N1    1.430960 S    
C20   C21   1.408773 A    
C28   C29   1.400377 A    
C12   H5    1.106842 S    
C23   C24   1.403876 A    
C31   O16   1.298444 A    
C26   H14   1.082770 S    
C11   C12   1.521802 S    
C36   H20   1.110351 S    
C27   C28   1.406674 A    
O16   V4    2.007233 S    
C25   C30   1.406676 A    
O17   V3    2.159963 S    
C26   C27   1.408234 A    
C14   C15   1.408316 A    
O2    C1    1.301910 A    
O21   C35   1.412585 S    
C17   H9    1.082761 S    
C27   C31   1.489617 S    
N1    O22   1.299608 A    
C10   C11   1.490487 S    
C5    C6    1.401202 A    
C35   H17   1.111034 S    
O3    C4    1.299965 A    
O1    V2    2.003987 S    
O13   C34   1.298390 A    
C19   H10   1.083064 S    
N1    O23   1.300839 A    
C8    C9    1.406895 A    
O6    V2    2.002170 S    
O9    V2    2.004883 S    
C20   H11   1.082557 S    
C3    C15   1.489856 S    
O2    V1    2.004776 S    
C21   C22   1.418702 A    
O4    C2    1.302233 A    
C1    C24   1.486196 S    
C19   C24   1.402942 A    
C23   H12   1.082712 S    
O1    C2    1.298473 A    
C35   H18   1.114045 S    
O5    V1    2.004138 S    
C36   H21   1.109297 S    
O8    C3    1.302296 A    
O14   V3    2.004905 S    
C5    C12   1.487152 S    
C14   H7    1.082763 S    
C7    O21   1.381294 S    
O7    V2    1.710188 S    
O4    V1    2.000496 S    
C17   C18   1.408317 A    
O3    V1    2.001666 S    
V1    O10   1.709671 S    
O11   C32   1.302385 A    
C13   C14   1.400434 A    
O13   V3    2.004025 S    
C29   C30   1.408270 A    
C13   C18   1.406674 A    
O18   C33   1.300482 A    
C36   H19   1.111021 S    
O19   C34   1.302292 A    
C8    H1    1.082889 S    
O12   V3    2.000639 S    
C25   H13   1.082739 S    
O19   V4    2.000943 S    
C9    C10   1.398448 A    
C9    C33   1.480335 S    
