data_mof_unit_24157.cif
_audit_creation_date              2012-12-10T17:15:54-0500
_audit_creation_method            fapswitch 2.2
_symmetry_space_group_name_H-M    P1
_symmetry_Int_Tables_number       1
_space_group_crystal_system       triclinic
_cell_length_a                    10.132879
_cell_length_b                    10.641939
_cell_length_c                    10.859139
_cell_angle_alpha                 89.806067
_cell_angle_beta                  95.949284
_cell_angle_gamma                 80.722772
_cell_volume                      1149.19697267

loop_
_atom_site_label
_atom_site_type_symbol
_atom_type_description
_atom_site_fract_x
_atom_site_fract_y
_atom_site_fract_z
_atom_type_partial_charge
C1    C     C_R   0.443092 0.512099 0.267647 0.960943
C2    C     C_2   0.494707 0.474934 0.938363 0.443710
C3    C     C_2   0.072839 0.489795 0.489968 -0.123914
C4    C     C_R   0.503723 0.260260 0.510043 0.973533
C5    C     C_2   0.927087 0.510378 0.509942 -0.153615
C6    C     C_R   0.556802 0.488397 0.732462 0.978925
C7    C     C_R   0.499292 0.739543 0.499484 0.926855
C8    C     C_R   0.675243 0.091429 0.707895 0.493293
C9    C     C_R   0.732119 0.009447 0.808030 -0.233922
C10   C     C_R   0.714798 0.883014 0.808754 -0.237077
C11   C     C_R   0.640561 0.836396 0.709832 -0.159794
C12   C     C_R   0.587347 0.047781 0.611542 -0.018825
C13   C     C_R   0.576741 0.917595 0.610266 -0.025850
C14   C     C_3   0.840679 0.208833 0.687465 -0.238557
C15   C     C_3   0.210175 0.934293 0.332747 -0.301710
C16   C     C_3   0.410308 0.291421 0.903193 -0.296106
C17   C     C_3   0.583065 0.713703 0.095840 -0.296067
C18   C     C_R   0.508104 0.126863 0.516315 -0.170849
C19   C     C_R   0.426426 0.079277 0.422809 -0.323975
C20   C     C_R   0.421016 0.951233 0.419231 0.508279
C21   C     C_R   0.500081 0.871498 0.509859 -0.187102
C22   C     C_2   0.409486 0.512026 0.135812 -0.463137
C23   C     C_2   0.503667 0.527731 0.061546 0.443150
C24   C     C_2   0.589886 0.488862 0.864467 -0.438807
H1    H     H_    0.890702 0.578838 0.577511 0.168849
H2    H     H_    0.909618 0.163791 0.767407 0.133093
H3    H     H_    0.861578 0.307155 0.677891 0.207345
H4    H     H_    0.791839 0.043956 0.885209 0.150203
H5    H     H_    0.185085 0.905114 0.425024 0.169906
H6    H     H_    0.153985 0.882893 0.261720 0.191915
H7    H     H_    0.175315 0.037969 0.315621 0.150916
H8    H     H_    0.317400 0.251920 0.873966 0.187030
H9    H     H_    0.445658 0.257397 0.999921 0.145128
H10   H     H_    0.486084 0.254128 0.839842 0.189002
H11   H     H_    0.547934 0.746895 0.998822 0.145643
H12   H     H_    0.109137 0.421412 0.422314 0.161103
H13   H     H_    0.674343 0.755587 0.125571 0.189656
H14   H     H_    0.505753 0.749482 0.158506 0.205190
H15   H     H_    0.684095 0.518722 0.899519 0.157906
H16   H     H_    0.880466 0.383962 0.385745 0.168236
H17   H     H_    0.119667 0.615670 0.614637 0.171146
H18   H     H_    0.760543 0.820362 0.885607 0.159927
H19   H     H_    0.630775 0.736927 0.713917 0.134763
H20   H     H_    0.369213 0.141801 0.350169 0.154039
H21   H     H_    0.315846 0.480850 0.101153 0.166480
H22   H     H_    0.863770 0.158699 0.600460 0.148267
N1    N     N_2   0.157290 0.551390 0.551110 -0.186480
N2    N     N_2   0.842740 0.448550 0.448960 -0.194905
O1    O     O_R   0.568950 0.489660 0.307530 -0.545979
O2    O     O_3   0.348790 0.901244 0.321155 -0.630505
O3    O     O_3   0.379945 0.425407 0.895300 -0.602415
O4    O     O_3   0.616859 0.579899 0.104057 -0.603587
O5    O     O_R   0.348880 0.522640 0.340350 -0.621126
O6    O     O_R   0.610060 0.300270 0.483590 -0.591296
O7    O     O_R   0.389990 0.333260 0.516410 -0.630308
O8    O     O_R   0.651120 0.477360 0.659650 -0.615516
O9    O     O_R   0.431050 0.510340 0.692470 -0.556787
O10   O     O_R   0.610010 0.666740 0.483590 -0.620727
O11   O     O_R   0.389940 0.699730 0.516410 -0.614386
O12   O     O_3   0.704119 0.213840 0.707309 -0.633241
Zn1   Zn    Zn3+2 0.646940 0.477980 0.478090 0.967212
Zn2   Zn    Zn3+2 0.353060 0.522020 0.521910 0.964925

loop_
_geom_bond_atom_site_label_1
_geom_bond_atom_site_label_2
_ccdc_geom_bond_type
C11   H19   S    
O6    Zn1   S    
C16   H9    S    
C16   H8    S    
C14   O12   S    
C9    C10   A    
C7    O10   A    
C19   C20   A    
C16   O3    S    
C8    C12   A    
C6    C24   S    
C24   H15   S    
O10   Zn1   S    
C7    O11   A    
H17   N1    S    
C13   C21   A    
O9    Zn2   S    
C14   H22   S    
C17   H13   S    
C8    O12   S    
C15   H7    S    
C12   C13   A    
C11   C13   A    
C6    O9    A    
C23   O4    S    
C3    H12   S    
N1    Zn2   S    
O5    Zn2   S    
C5    H1    S    
C7    C21   S    
C17   O4    S    
C3    N1    D    
C15   H5    S    
C4    O6    A    
C17   H14   S    
C4    O7    A    
C2    C24   D    
C14   H3    S    
C5    N2    D    
O1    Zn1   S    
C10   C11   A    
C12   C18   A    
O7    Zn2   S    
C3    C5    S    
C1    C22   S    
C22   H21   S    
C19   H20   S    
C15   H6    S    
C18   C19   A    
C2    O3    S    
C15   O2    S    
N2    Zn1   S    
C2    C23   S    
H16   N2    S    
C1    O5    A    
O8    Zn1   S    
C10   H18   S    
C20   O2    S    
C17   H11   S    
C16   H10   S    
C20   C21   A    
C22   C23   D    
C1    O1    A    
C4    C18   S    
C14   H2    S    
C9    H4    S    
C6    O8    A    
C8    C9    A    
O11   Zn2   S    
