data_mof_unit_42550.cif
_audit_creation_date              2012-12-10T19:31:26-0500
_audit_creation_method            fapswitch 2.2
_symmetry_space_group_name_H-M    P1
_symmetry_Int_Tables_number       1
_space_group_crystal_system       triclinic
_cell_length_a                    19.162637
_cell_length_b                    15.730685
_cell_length_c                    14.929074
_cell_angle_alpha                 89.222339
_cell_angle_beta                  90.25115
_cell_angle_gamma                 90.092816
_cell_volume                      4499.77784383

loop_
_atom_site_label
_atom_site_type_symbol
_atom_type_description
_atom_site_fract_x
_atom_site_fract_y
_atom_site_fract_z
_atom_type_partial_charge
C1    C     C_R   0.500167 0.337594 0.500590 0.873011
C2    C     C_R   0.499864 0.662507 0.499414 0.899749
C3    C     C_3   0.554153 0.970387 0.546570 0.435693
C4    C     C_3   0.446157 0.030411 0.453503 0.433018
C5    C     C_3   0.561573 0.028753 0.462932 -0.515724
C6    C     C_3   0.438698 0.971995 0.537104 -0.510382
C7    C     C_1   0.500989 0.248987 0.502047 -0.196548
C8    C     C_1   0.499206 0.751320 0.497989 -0.175489
C9    C     C_3   0.495501 0.025086 0.584605 0.431784
C10   C     C_3   0.504768 0.975674 0.415388 0.436603
C11   C     C_3   0.501858 0.083341 0.501767 -0.039004
C12   C     C_3   0.498489 0.917251 0.498316 -0.044353
C13   C     C_1   0.501635 0.173895 0.502706 0.066006
C14   C     C_1   0.498689 0.826529 0.497383 0.077085
C15   C     C_3   0.523296 0.424085 0.971686 0.030423
C16   C     C_3   0.477004 0.574672 0.028198 0.027705
C17   C     C_3   0.564467 0.486979 0.030113 0.550463
C18   C     C_3   0.435835 0.511744 0.969843 0.550394
C19   C     C_3   0.457884 0.436038 0.031364 -0.387728
C20   C     C_3   0.542437 0.562669 0.968612 -0.386186
C21   C     C_3   0.499986 0.499570 0.089802 -0.063459
C22   C     C_3   0.500307 0.499231 0.910175 -0.064533
C23   C     C_R   0.365220 0.497357 0.499676 0.885925
C24   C     C_R   0.634736 0.497419 0.500426 0.895714
C25   C     C_1   0.500113 0.499807 0.189841 0.115923
C26   C     C_1   0.500024 0.499607 0.810156 0.120001
C27   C     C_R   0.251138 0.517477 0.570121 -0.261043
C28   C     C_R   0.749147 0.521309 0.431749 -0.258734
C29   C     C_R   0.179247 0.511199 0.568927 -0.192445
C30   C     C_R   0.821016 0.515670 0.433856 -0.193070
C31   C     C_R   0.145223 0.474603 0.496081 0.008052
C32   C     C_R   0.854710 0.476146 0.506367 0.007961
C33   C     C_R   0.183065 0.442231 0.423152 0.005001
C34   C     C_R   0.816317 0.440495 0.578407 0.007567
C35   C     C_R   0.256281 0.445880 0.426228 0.433690
C36   C     C_R   0.743033 0.443681 0.574218 0.438049
C37   C     C_R   0.289842 0.486863 0.498453 -0.175374
C38   C     C_R   0.710047 0.487303 0.502216 -0.173575
C39   C     C_R   0.930143 0.475115 0.504950 0.296400
C40   C     C_R   0.069998 0.474347 0.497188 0.294851
H1    H     H_    0.276447 0.547872 0.626316 0.185930
H2    H     H_    0.724122 0.553787 0.375802 0.185707
H3    H     H_    0.576732 0.614363 0.942947 0.151578
H4    H     H_    0.423729 0.384261 0.057175 0.150242
H5    H     H_    0.149790 0.536143 0.624537 0.158713
H6    H     H_    0.850706 0.542914 0.378852 0.161662
H7    H     H_    0.610635 0.054070 0.433606 0.163166
H8    H     H_    0.389602 0.946827 0.566471 0.164582
N1    N     N_R   0.034891 0.548864 0.493487 -0.176074
N2    N     N_R   0.965320 0.400560 0.508446 -0.187605
N3    N     N_R   0.965748 0.549201 0.496707 -0.180217
N4    N     N_R   0.034501 0.400183 0.505152 -0.186736
N5    N     N_1   0.500020 0.500000 0.268010 -0.091355
N6    N     N_1   0.499980 0.500000 0.731990 -0.090207
O1    O     O_R   0.500000 0.376780 0.574460 -0.610827
O2    O     O_R   0.500000 0.623220 0.425540 -0.607648
O3    O     O_R   0.500010 0.376780 0.425520 -0.618108
O4    O     O_R   0.499990 0.623220 0.574480 -0.611035
O5    O     O_R   0.398130 0.499990 0.574490 -0.619512
O6    O     O_R   0.601870 0.500010 0.425510 -0.620466
O7    O     O_R   0.398140 0.499990 0.425550 -0.568899
O8    O     O_R   0.601860 0.500010 0.574450 -0.564517
Zn1   Zn    Zn3+2 0.499990 0.500000 0.599450 0.994502
Zn2   Zn    Zn3+2 0.500010 0.500000 0.400550 0.989754
C41   C     C_3   0.146992 0.409850 0.339356 -0.391296
C42   C     C_3   0.142682 0.480504 0.267813 -0.308544
C43   C     C_3   0.107877 0.448856 0.182389 -0.898295
H9    H     H_    0.138669 0.396179 0.153513 0.263500
H10   H     H_    0.054094 0.426195 0.196779 0.266602
H11   H     H_    0.104924 0.501596 0.132338 0.247643
H12   H     H_    0.112025 0.534657 0.294023 0.223126
H13   H     H_    0.195970 0.503726 0.251176 0.245090
H14   H     H_    0.175719 0.354633 0.312362 0.216997
H15   H     H_    0.093738 0.386046 0.353938 0.205832
C44   C     C_3   0.852162 0.403697 0.661427 -0.403741
C45   C     C_3   0.880577 0.474581 0.721071 -0.315905
C46   C     C_3   0.914497 0.438116 0.805872 -0.892518
H16   H     H_    0.875768 0.401109 0.845590 0.260562
H17   H     H_    0.958856 0.396213 0.788327 0.267910
H18   H     H_    0.934492 0.490807 0.847607 0.250695
H19   H     H_    0.919982 0.513079 0.684201 0.229992
H20   H     H_    0.837118 0.517223 0.740483 0.232194
H21   H     H_    0.815533 0.364393 0.701874 0.232460
H22   H     H_    0.894553 0.359741 0.642373 0.206629
O9    O     O_3   0.294513 0.413695 0.355863 -0.611982
C47   C     C_3   0.316348 0.330376 0.378776 0.128208
H23   H     H_    0.270780 0.287897 0.391447 0.121843
H24   H     H_    0.350336 0.330121 0.439431 0.134397
C48   C     C_3   0.357996 0.294397 0.301546 -0.793864
H25   H     H_    0.403499 0.335964 0.286610 0.264728
H26   H     H_    0.377148 0.229820 0.319616 0.245999
H27   H     H_    0.324522 0.290322 0.240830 0.233098
O10   O     O_3   0.703850 0.408713 0.643277 -0.605614
C49   C     C_3   0.683995 0.325364 0.619680 0.087654
H28   H     H_    0.730643 0.284699 0.608588 0.118134
H29   H     H_    0.651212 0.325812 0.557918 0.127297
C50   C     C_3   0.641521 0.285927 0.695494 -0.788607
H30   H     H_    0.594785 0.325400 0.708737 0.271889
H31   H     H_    0.624264 0.221057 0.676875 0.210490
H32   H     H_    0.673734 0.281615 0.757418 0.234008
O11   O     O_3   0.608345 0.932008 0.596873 -0.604466
C51   C     C_3   0.656476 0.994788 0.623564 0.115397
H33   H     H_    0.630173 0.049341 0.656053 0.165191
H34   H     H_    0.686691 0.018378 0.564796 0.141171
C52   C     C_3   0.707233 0.956052 0.691108 -0.828495
H35   H     H_    0.735468 0.902102 0.660663 0.263865
H36   H     H_    0.745753 0.004752 0.712168 0.202555
H37   H     H_    0.678434 0.932750 0.751035 0.255231
O12   O     O_3   0.392353 0.070336 0.403904 -0.625273
C53   C     C_3   0.343614 0.008959 0.375844 0.117179
H38   H     H_    0.314433 0.982859 0.434342 0.146301
H39   H     H_    0.369329 0.956033 0.339872 0.175390
C54   C     C_3   0.291710 0.050933 0.311938 -0.859092
H40   H     H_    0.319400 0.076685 0.252218 0.254712
H41   H     H_    0.252462 0.003540 0.289839 0.212477
H42   H     H_    0.264486 0.103718 0.345922 0.257999
O13   O     O_3   0.506812 0.943264 0.327802 -0.606488
C55   C     C_3   0.522773 0.009666 0.266753 0.125551
H43   H     H_    0.578670 0.027864 0.273212 0.144360
H44   H     H_    0.489551 0.066719 0.277232 0.165739
C56   C     C_3   0.509939 0.979267 0.171865 -0.853539
H45   H     H_    0.454107 0.961959 0.163327 0.256765
H46   H     H_    0.523175 0.030672 0.123087 0.210273
H47   H     H_    0.542867 0.922895 0.158253 0.261535
O14   O     O_3   0.493459 0.057783 0.672060 -0.609894
C57   C     C_3   0.477189 0.991678 0.733297 0.127999
H48   H     H_    0.509817 0.934145 0.722668 0.169968
H49   H     H_    0.421097 0.974264 0.727261 0.144041
C58   C     C_3   0.490785 0.022045 0.828008 -0.855551
H50   H     H_    0.458505 0.078943 0.841742 0.260995
H51   H     H_    0.477268 0.970940 0.877002 0.211092
H52   H     H_    0.546837 0.038506 0.836027 0.256769
O15   O     O_3   0.631200 0.471141 0.067066 -0.620729
C59   C     C_3   0.683008 0.488283 0.002416 0.095966
H53   H     H_    0.690524 0.558131 0.994908 0.148763
H54   H     H_    0.669684 0.461142 0.935959 0.141198
C60   C     C_3   0.751574 0.449067 0.033490 -0.823573
H55   H     H_    0.745708 0.379043 0.040629 0.251011
H56   H     H_    0.792981 0.463119 0.983591 0.209079
H57   H     H_    0.767331 0.475787 0.099042 0.260831
O16   O     O_3   0.369133 0.527492 0.932758 -0.621577
C61   C     C_3   0.317255 0.509629 0.997087 0.100118
H58   H     H_    0.329886 0.537659 0.063339 0.136926
H59   H     H_    0.310706 0.439683 0.005184 0.149284
C62   C     C_3   0.248271 0.546986 0.965041 -0.827386
H60   H     H_    0.233260 0.519264 0.899679 0.260538
H61   H     H_    0.206843 0.532467 0.014748 0.208973
H62   H     H_    0.253104 0.617063 0.957161 0.251330
C63   C     C_3   0.548512 0.338302 0.937513 -0.400806
C64   C     C_3   0.568686 0.278187 0.014961 -0.305723
C65   C     C_3   0.590698 0.191554 0.980353 -0.912707
H63   H     H_    0.546577 0.161325 0.944372 0.270152
H64   H     H_    0.635819 0.198364 0.934314 0.266030
H65   H     H_    0.606101 0.149747 0.037590 0.249092
H66   H     H_    0.612729 0.305674 0.053597 0.256734
H67   H     H_    0.523615 0.269389 0.060808 0.219594
H68   H     H_    0.505838 0.309412 0.897435 0.211200
H69   H     H_    0.594021 0.348632 0.892887 0.195394
C66   C     C_3   0.451911 0.660779 0.061641 -0.393589
C67   C     C_3   0.432329 0.720539 0.983590 -0.307569
C68   C     C_3   0.411318 0.807920 0.017195 -0.909284
H70   H     H_    0.366059 0.802359 0.063160 0.267709
H71   H     H_    0.455739 0.837808 0.052935 0.269365
H72   H     H_    0.396450 0.849404 0.959464 0.248324
H73   H     H_    0.477441 0.728200 0.937610 0.221523
H74   H     H_    0.387974 0.693361 0.945279 0.256004
H75   H     H_    0.406158 0.650976 0.105996 0.193212
H76   H     H_    0.494553 0.689663 0.101781 0.212175

loop_
_geom_bond_atom_site_label_1
_geom_bond_atom_site_label_2
_ccdc_geom_bond_type
C39   N3    A    
C4    O12   S    
C16   C21   S    
C27   C29   A    
C11   C13   S    
C62   H62   S    
C6    C9    S    
C68   H70   S    
C33   C41   S    
O9    C47   S    
C31   C40   S    
C15   C19   S    
C52   H36   S    
C57   H48   S    
C6    H8    S    
C35   C37   A    
C25   N5    T    
C5    C11   S    
C1    C7    S    
C6    C12   S    
C33   C35   A    
N5    Zn2   S    
C47   H24   S    
C44   H22   S    
C65   H65   S    
N6    Zn1   S    
C40   N1    A    
C17   C20   S    
C41   H14   S    
C66   H76   S    
C51   C52   S    
C18   C19   S    
C32   C39   S    
C55   H43   S    
C56   H47   S    
C48   H27   S    
C3    C12   S    
C68   H71   S    
C53   H38   S    
O16   C61   S    
C36   O10   S    
C15   C22   S    
C42   H13   S    
C66   C67   S    
C23   O7    A    
C28   C30   A    
N1    N3    A    
O1    Zn1   S    
N2    N4    A    
C65   H63   S    
O2    Zn2   S    
C67   H74   S    
C48   H26   S    
C63   H69   S    
C46   H16   S    
C34   C44   S    
C49   H29   S    
C54   H42   S    
C3    O11   S    
C42   C43   S    
C64   H67   S    
C16   C66   S    
C24   O8    A    
C61   C62   S    
C49   H28   S    
C59   C60   S    
C26   N6    T    
C68   H72   S    
C62   H61   S    
C50   H30   S    
C55   H44   S    
C46   H17   S    
C60   H57   S    
C43   H9    S    
O11   C51   S    
C45   C46   S    
C4    C6    S    
C50   H31   S    
C45   H20   S    
C47   H23   S    
C59   H54   S    
C49   C50   S    
C40   N4    A    
C9    O14   S    
C41   H15   S    
C29   H5    S    
C43   H10   S    
C55   C56   S    
C32   C34   A    
O7    Zn2   S    
C23   O5    A    
C44   C45   S    
O8    Zn1   S    
C3    C9    S    
C1    O3    A    
C60   H56   S    
C27   H1    S    
C24   C38   S    
C42   H12   S    
C28   C38   A    
C16   C20   S    
C31   C33   A    
O10   C49   S    
C67   H73   S    
C4    C11   S    
C51   H34   S    
C9    C11   S    
C53   C54   S    
C56   H45   S    
C10   C12   S    
C20   C22   S    
C64   H66   S    
C17   O15   S    
O14   C57   S    
C8    C14   T    
C4    C10   S    
C62   H60   S    
C15   C63   S    
C20   H3    S    
C19   H4    S    
O3    Zn2   S    
C54   H40   S    
C52   H35   S    
C46   H18   S    
O4    Zn1   S    
C15   C17   S    
C21   C25   S    
C57   H49   S    
C50   H32   S    
C19   C21   S    
C18   C22   S    
C30   H6    S    
C18   O16   S    
C2    C8    S    
C12   C14   S    
C3    C5    S    
C47   C48   S    
C45   H19   S    
C2    O4    A    
C59   H53   S    
C60   H55   S    
O5    Zn1   S    
C57   C58   S    
O6    Zn2   S    
C43   H11   S    
C67   C68   S    
C58   H52   S    
C36   C38   A    
C58   H50   S    
C5    C10   S    
C29   C31   A    
C10   O13   S    
C23   C37   S    
C63   C64   S    
C30   C32   A    
C35   O9    S    
C44   H21   S    
O15   C59   S    
C27   C37   A    
C28   H2    S    
C5    H7    S    
C66   H75   S    
C34   C36   A    
C65   H64   S    
C1    O1    A    
C51   H33   S    
C53   H39   S    
C56   H46   S    
C7    C13   T    
C39   N2    A    
C16   C18   S    
C41   C42   S    
C22   C26   S    
O12   C53   S    
C52   H37   S    
C61   H58   S    
C2    O2    A    
C24   O6    A    
C54   H41   S    
C48   H25   S    
O13   C55   S    
C63   H68   S    
C61   H59   S    
C64   C65   S    
C58   H51   S    
C17   C21   S    
