data_mof_unit_40301.cif
_audit_creation_date              2012-12-10T16:59:13-0500
_audit_creation_method            fapswitch 2.2
_symmetry_space_group_name_H-M    P1
_symmetry_Int_Tables_number       1
_space_group_crystal_system       triclinic
_cell_length_a                    7.73324
_cell_length_b                    8.554965
_cell_length_c                    27.773169
_cell_angle_alpha                 90.945317
_cell_angle_beta                  86.298096
_cell_angle_gamma                 93.693795
_cell_volume                      1829.62282571

loop_
_atom_site_label
_atom_site_type_symbol
_atom_type_description
_atom_site_fract_x
_atom_site_fract_y
_atom_site_fract_z
_atom_type_partial_charge
C1    C     C_R   0.545915 0.794858 0.498734 0.954440
C2    C     C_R   0.534594 0.640083 0.127771 -0.168810
C3    C     C_R   0.510451 0.498152 0.646537 -0.331483
C4    C     C_R   0.489550 0.501852 0.353463 -0.331467
C5    C     C_R   0.546876 0.640505 0.025591 0.015548
C6    C     C_R   0.453124 0.359504 0.974410 0.015548
C7    C     C_R   0.444866 0.360740 0.025612 0.016586
C8    C     C_R   0.555131 0.639270 0.974389 0.016586
C9    C     C_R   0.492656 0.501021 0.050904 0.087113
C10   C     C_R   0.507343 0.498988 0.949096 0.087112
C11   C     C_R   0.590893 0.777350 0.052597 -0.307751
C12   C     C_R   0.454084 0.205142 0.501266 0.954438
C13   C     C_R   0.409112 0.222658 0.947403 -0.307752
C14   C     C_R   0.586308 0.777083 0.102473 0.757895
C15   C     C_R   0.413696 0.222926 0.897527 0.757896
C16   C     C_R   0.503068 0.499270 0.593937 1.002721
C17   C     C_R   0.496932 0.500730 0.406064 1.002747
C18   C     C_R   0.611216 0.773975 0.947357 -0.314636
C19   C     C_R   0.388778 0.226036 0.052644 -0.314638
C20   C     C_2   0.570213 0.958316 0.498004 -0.324064
C21   C     C_2   0.429787 0.041684 0.501996 -0.324065
C22   C     C_R   0.570760 0.632520 0.821672 0.634361
C23   C     C_R   0.513774 0.498198 0.897869 -0.216692
C24   C     C_R   0.429238 0.367491 0.178328 0.634339
C25   C     C_R   0.469708 0.363046 0.821735 0.677496
C26   C     C_R   0.530295 0.636964 0.178265 0.677514
C27   C     C_R   0.650300 0.429747 0.718495 0.619119
C28   C     C_R   0.349726 0.570298 0.281506 0.619122
C29   C     C_R   0.646993 0.428002 0.667983 0.275236
C30   C     C_R   0.353035 0.572041 0.332018 0.275221
C31   C     C_R   0.380253 0.567922 0.675734 0.584996
C32   C     C_R   0.619722 0.432047 0.324267 0.584994
C33   C     C_R   0.385334 0.567838 0.725498 -0.230808
C34   C     C_R   0.486226 0.501811 0.102131 -0.216693
C35   C     C_R   0.614642 0.432134 0.274502 -0.230804
C36   C     C_R   0.519475 0.499034 0.746748 0.004714
C37   C     C_R   0.480526 0.500977 0.253253 0.004706
C38   C     C_R   0.568175 0.635773 0.872183 -0.161424
C39   C     C_R   0.431823 0.364237 0.127817 -0.161420
C40   C     C_R   0.618041 0.772417 0.897451 0.754754
C41   C     C_R   0.381955 0.227593 0.102549 0.754753
C42   C     C_R   0.465408 0.359926 0.872230 -0.168806
F1    F     F_    0.249347 0.638768 0.656284 -0.604754
F2    F     F_    0.750599 0.361163 0.343718 -0.604759
F3    F     F_    0.674758 0.906504 0.874268 -0.565303
F4    F     F_    0.325237 0.093508 0.125733 -0.565301
F5    F     F_    0.220750 0.636041 0.259516 -0.613747
F6    F     F_    0.779299 0.364038 0.740485 -0.613758
F7    F     F_    0.633591 0.912847 0.125592 -0.570343
F8    F     F_    0.366416 0.087161 0.874408 -0.570340
H1    H     H_    0.014158 0.383382 0.463456 0.216760
H2    H     H_    0.297208 0.990515 0.505803 0.187967
H3    H     H_    0.141978 0.686299 0.340514 0.399864
H4    H     H_    0.858101 0.313815 0.659487 0.399871
H5    H     H_    0.985842 0.616618 0.536544 0.216767
H6    H     H_    0.284674 0.621328 0.747804 0.227427
H7    H     H_    0.715283 0.378617 0.252197 0.227428
H8    H     H_    0.630055 0.888619 0.036597 0.170585
H9    H     H_    0.369956 0.111387 0.963403 0.170585
H10   H     H_    0.652479 0.884239 0.963351 0.172425
H11   H     H_    0.347510 0.115773 0.036650 0.172427
H12   H     H_    0.702792 0.009485 0.494196 0.187967
N1    N     N_R   0.521124 0.497938 0.797963 -0.338767
N2    N     N_R   0.478876 0.502072 0.202037 -0.338768
N3    N     N_2   0.950320 0.457960 0.486880 -0.149953
N4    N     N_2   0.049680 0.542040 0.513120 -0.149948
O1    O     O_R   0.389250 0.738570 0.503220 -0.609827
O2    O     O_2   0.378002 0.237848 0.203838 -0.403033
O3    O     O_2   0.578192 0.766689 0.203686 -0.400933
O4    O     O_2   0.421816 0.233320 0.796314 -0.400942
O5    O     O_3   0.227893 0.643606 0.360871 -0.695931
O6    O     O_3   0.772163 0.356471 0.639130 -0.695914
O7    O     O_R   0.610750 0.261430 0.496780 -0.609827
O8    O     O_R   0.678390 0.711630 0.494810 -0.640605
O9    O     O_R   0.321610 0.288370 0.505190 -0.640604
O10   O     O_R   0.355440 0.513440 0.575450 -0.565818
O11   O     O_R   0.644560 0.486560 0.424550 -0.565827
O12   O     O_R   0.644590 0.486500 0.567040 -0.579913
O13   O     O_R   0.355410 0.513500 0.432960 -0.579922
O14   O     O_2   0.621993 0.762163 0.796162 -0.403034
Zn1   Zn    Zn3+2 0.306940 0.517990 0.505620 1.034577
Zn2   Zn    Zn3+2 0.693060 0.482010 0.494380 1.034577

loop_
_geom_bond_atom_site_label_1
_geom_bond_atom_site_label_2
_ccdc_geom_bond_type
C27   F6    S    
C28   F5    S    
C27   C29   A    
C33   C36   A    
C30   O5    S    
C39   C41   A    
C23   C42   A    
C31   F1    S    
C1    O8    A    
O11   Zn2   S    
C35   C37   A    
C5    C11   A    
H1    N3    S    
C11   C14   A    
C14   F7    S    
C22   C38   A    
C17   O13   A    
C24   C39   A    
C25   N1    A    
C15   F8    S    
C3    C29   A    
C26   N2    A    
C18   C40   A    
C22   N1    A    
C41   F4    S    
C31   C33   A    
C11   H8    S    
C29   O6    S    
C2    C34   A    
C33   H6    S    
C24   N2    A    
C12   O7    A    
O8    Zn2   S    
C40   F3    S    
C34   C39   A    
C32   C35   A    
O13   Zn1   S    
O9    Zn1   S    
C12   C21   S    
C8    C18   A    
C37   N2    S    
C25   C42   A    
C5    C9    A    
O12   Zn2   S    
C17   O11   A    
C32   F2    S    
C2    C26   A    
C3    C31   A    
C4    C32   A    
C4    C17   S    
C18   H10   S    
O1    Zn1   S    
C7    C19   A    
C13   C15   A    
C9    C34   A    
C10   C23   A    
C36   N1    S    
O7    Zn2   S    
H5    N4    S    
C7    C9    A    
C1    C20   S    
C16   O10   A    
C15   C42   A    
O10   Zn1   S    
C6    C10   A    
C5    C8    A    
C6    C7    A    
C13   H9    S    
C27   C36   A    
C23   C38   A    
C35   H7    S    
C28   C30   A    
C22   O14   S    
N4    Zn1   S    
C38   C40   A    
N3    Zn2   S    
C28   C37   A    
C19   H11   S    
C1    O1    A    
C16   O12   A    
C20   H12   S    
C2    C14   A    
C24   O2    S    
H4    O6    S    
C20   C21   D    
C8    C10   A    
N3    N4    D    
C12   O9    A    
C26   O3    S    
C25   O4    S    
C21   H2    S    
C4    C30   A    
C3    C16   S    
C19   C41   A    
C6    C13   A    
H3    O5    S    
