data_mof_unit_51941.cif
_audit_creation_date              2012-12-11T16:56:10-0500
_audit_creation_method            fapswitch 2.2
_symmetry_space_group_name_H-M    P1
_symmetry_Int_Tables_number       1
_space_group_crystal_system       triclinic
_cell_length_a                    6.964745
_cell_length_b                    14.533401
_cell_length_c                    16.193712
_cell_angle_alpha                 90.428016
_cell_angle_beta                  90.070536
_cell_angle_gamma                 90.060669
_cell_volume                      1639.10280376

loop_
_atom_site_label
_atom_site_type_symbol
_atom_type_description
_atom_site_fract_x
_atom_site_fract_y
_atom_site_fract_z
_atom_type_partial_charge
O1    O     O_R   0.505830 0.583360 0.413880 -0.537686
O2    O     O_R   0.175830 0.595460 0.585520 -0.540815
O3    O     O_R   0.005520 0.416640 0.586120 -0.540918
C1    C     C_R   0.345185 0.618443 0.613602 0.694848
O4    O     O_R   0.176120 0.594390 0.414490 -0.541806
O5    O     O_R   0.005810 0.415570 0.413870 -0.541705
C2    C     C_R   0.344902 0.616194 0.385904 0.696322
O6    O     O_R   0.505540 0.584430 0.586130 -0.542742
O7    O     O_3   0.339200 0.441330 0.500000 -0.372036
V1    V     V_3+5 0.064350 0.510880 0.500000 1.386096
O8    O     O_R   0.676100 0.404540 0.414480 -0.539080
C3    C     C_R   0.845504 0.380730 0.387250 0.705210
O9    O     O_R   0.675810 0.405610 0.585510 -0.538830
C4    C     C_R   0.845031 0.383718 0.613622 0.740853
V2    V     V_3+5 0.564340 0.489120 0.500000 1.390400
O10   O     O_3   0.839360 0.558670 0.500000 -0.375974
C5    C     C_2   0.721048 0.209117 0.786210 -0.132095
C6    C     C_2   0.885600 0.181875 0.822686 -0.309702
H1    H     H_    0.585613 0.180529 0.807172 0.137172
H2    H     H_    0.022682 0.209844 0.803870 0.129159
C7    C     C_2   0.708721 0.277624 0.718236 -0.133418
C8    C     C_2   0.861541 0.315426 0.680432 -0.310540
H3    H     H_    0.565276 0.296890 0.698513 0.136226
H4    H     H_    0.006113 0.296815 0.698276 0.130536
C9    C     C_R   0.750709 0.255582 0.184756 0.047696
C10   C     C_R   0.884325 0.183865 0.184400 -0.167283
C11   C     C_R   0.018733 0.181721 0.249426 -0.132749
H5    H     H_    0.127143 0.128294 0.250367 0.128756
C12   C     C_R   0.005533 0.243208 0.317242 0.184929
C13   C     C_R   0.859740 0.312026 0.319180 -0.141850
C14   C     C_R   0.739651 0.318317 0.249935 0.011715
C15   C     C_3   0.525870 0.323845 0.244375 -0.377344
C16   C     C_3   0.537539 0.254629 0.173300 0.056687
H6    H     H_    0.476059 0.393545 0.226339 0.172796
H7    H     H_    0.455433 0.295345 0.299872 0.164109
H8    H     H_    0.469156 0.187111 0.186584 0.141486
C17   C     C_R   0.517896 0.689700 0.734856 0.062319
C18   C     C_R   0.355908 0.684881 0.683732 -0.121524
C19   C     C_R   0.203023 0.744091 0.702676 -0.191296
H9    H     H_    0.081540 0.746377 0.661944 0.184191
C20   C     C_R   0.212571 0.805708 0.770177 -0.170694
H10   H     H_    0.095696 0.853397 0.779892 0.137013
C21   C     C_R   0.376920 0.810448 0.820928 -0.100951
C22   C     C_R   0.526963 0.749381 0.803115 0.052941
C23   C     C_3   0.731937 0.772641 0.787893 -0.386784
C24   C     C_3   0.720495 0.711851 0.711410 0.029100
H11   H     H_    0.827078 0.744285 0.836613 0.147886
H12   H     H_    0.753373 0.847046 0.775036 0.178568
H13   H     H_    0.817557 0.651149 0.712742 0.131234
C25   C     C_R   0.507180 0.681145 0.260133 0.101570
C26   C     C_R   0.352932 0.681182 0.315663 -0.112510
C27   C     C_R   0.201616 0.742933 0.300018 -0.174774
H14   H     H_    0.079122 0.745413 0.340823 0.135043
C28   C     C_R   0.213036 0.806707 0.234993 -0.174996
H15   H     H_    0.098337 0.856046 0.227552 0.127232
C29   C     C_R   0.376450 0.810969 0.183761 -0.110787
C30   C     C_R   0.518941 0.744505 0.196042 0.104986
C31   C     C_3   0.729609 0.756676 0.207883 -0.409765
C32   C     C_3   0.716915 0.687239 0.277353 -0.398298
H16   H     H_    0.766214 0.827257 0.229623 0.167421
H17   H     H_    0.813383 0.731386 0.153939 0.177030
H18   H     H_    0.747014 0.717299 0.339357 0.171667
H19   H     H_    0.792490 0.621613 0.263394 0.170571
O11   O     O_R   0.229930 0.912420 0.917160 -0.541013
O12   O     O_R   0.559420 0.902500 0.088780 -0.539480
O13   O     O_R   0.729660 0.081330 0.089380 -0.544578
C33   C     C_R   0.390386 0.880758 0.117473 0.694133
O14   O     O_R   0.559650 0.901420 0.917750 -0.539753
O15   O     O_R   0.729880 0.080250 0.917130 -0.539947
C34   C     C_R   0.390489 0.879596 0.888765 0.696412
O16   O     O_R   0.229700 0.913500 0.089410 -0.540777
O17   O     O_3   0.396250 0.055540 0.003280 -0.371748
V3    V     V_3+5 0.671130 0.986010 0.003260 1.391254
O18   O     O_R   0.059600 0.091310 0.917720 -0.542400
C35   C     C_R   0.890882 0.113232 0.889606 0.742327
O19   O     O_R   0.059370 0.092380 0.088750 -0.536315
C36   C     C_R   0.890843 0.114537 0.117175 0.706791
V4    V     V_3+5 0.171120 0.007820 0.003230 1.403436
O20   O     O_3   0.896130 0.938240 0.003240 -0.371229
N1    N     N_3   0.735316 0.765895 0.635343 -0.680428
H20   H     H_    0.623678 0.813870 0.631601 0.244860
H21   H     H_    0.724048 0.721559 0.584576 0.249865
N2    N     N_3   0.129564 0.227877 0.386484 -0.681658
H22   H     H_    0.216914 0.285385 0.395543 0.246550
H23   H     H_    0.044790 0.219133 0.439096 0.221105
N3    N     N_3   0.477681 0.293454 0.094165 -0.645275
H24   H     H_    0.510294 0.245367 0.047948 0.240477
H25   H     H_    0.557474 0.352773 0.081459 0.232574

loop_
_geom_bond_atom_site_label_1
_geom_bond_atom_site_label_2
_ccdc_geom_bond_type
C9    C14   A    
C6    C35   S    
C11   C12   A    
C20   H10   S    
C1    O6    A    
C19   C20   A    
C23   C24   S    
C27   H14   S    
C24   H13   S    
C10   C11   A    
C17   C18   A    
C25   C32   S    
O19   V4    S    
C12   N2    S    
O5    C3    A    
C18   C19   A    
N3    H25   S    
C31   H16   S    
V2    O10   S    
C16   H8    S    
O12   V3    S    
C29   C30   A    
O17   V4    S    
O8    V2    S    
C14   C15   S    
O12   C33   A    
O15   V3    S    
O1    V2    S    
O11   C34   A    
O7    V1    S    
C33   O16   A    
C31   H17   S    
C7    C8    D    
C16   N3    S    
C20   C21   A    
C9    C10   A    
C27   C28   A    
C25   C26   A    
C23   H11   S    
C28   C29   A    
C10   C36   S    
O18   C35   A    
C26   C27   A    
C15   H7    S    
O19   C36   A    
N1    H21   S    
C19   H9    S    
O4    C2    A    
N3    H24   S    
N1    H20   S    
O14   V3    S    
O13   V3    S    
C5    C7    S    
C15   H6    S    
O2    C1    A    
C21   C22   A    
C12   C13   A    
N2    H22   S    
C5    C6    D    
V3    O20   S    
O3    C4    A    
N2    H23   S    
C1    C18   S    
C21   C34   S    
O9    V2    S    
C8    H4    S    
O2    V1    S    
C22   C23   S    
C23   H12   S    
O13   C36   A    
C28   H15   S    
C32   H18   S    
C3    C13   S    
O1    C2    A    
C25   C30   A    
O11   V4    S    
O17   V3    S    
O5    V1    S    
O8    C3    A    
O6    V2    S    
C29   C33   S    
C32   H19   S    
C15   C16   S    
C4    C8    S    
C17   C22   A    
C7    H3    S    
C31   C32   S    
C2    C26   S    
O4    V1    S    
O3    V1    S    
V1    O10   S    
C24   N1    S    
V4    O20   S    
C30   C31   S    
C13   C14   A    
C5    H1    S    
O15   C35   A    
C6    H2    S    
O7    V2    S    
O14   C34   A    
O18   V4    S    
C11   H5    S    
C17   C24   S    
O9    C4    A    
O16   V4    S    
C9    C16   S    
