data_mof_unit_44471.cif
_audit_creation_date              2012-12-10T17:16:11-0500
_audit_creation_method            fapswitch 2.2
_symmetry_space_group_name_H-M    P1
_symmetry_Int_Tables_number       1
_space_group_crystal_system       triclinic
_cell_length_a                    19.321903
_cell_length_b                    13.122042
_cell_length_c                    11.777383
_cell_angle_alpha                 98.924586
_cell_angle_beta                  93.414002
_cell_angle_gamma                 93.529765
_cell_volume                      2937.08432629

loop_
_atom_site_label
_atom_site_type_symbol
_atom_type_description
_atom_site_fract_x
_atom_site_fract_y
_atom_site_fract_z
_atom_type_partial_charge
C1    C     C_R   0.499185 0.299489 0.479500 0.832531
C2    C     C_R   0.496074 0.699835 0.520289 0.860271
C3    C     C_R   0.486506 0.811740 0.529768 -0.133342
C4    C     C_R   0.500851 0.186294 0.469339 -0.140326
C5    C     C_R   0.532280 0.022337 0.365544 0.123815
C6    C     C_R   0.464151 0.976210 0.644195 0.151292
C7    C     C_R   0.533200 0.130793 0.377558 0.069205
C8    C     C_R   0.470257 0.869116 0.635176 0.065384
C9    C     C_R   0.472529 0.133710 0.553982 0.088864
C10   C     C_R   0.491312 0.861691 0.431973 0.117948
C11   C     C_R   0.479270 0.027287 0.549811 0.058680
C12   C     C_R   0.500888 0.970190 0.447971 -0.004689
C13   C     C_R   0.440229 0.391314 0.023978 -0.119054
C14   C     C_R   0.572057 0.596920 0.974535 -0.115012
C15   C     C_R   0.443585 0.404428 0.145210 0.076216
C16   C     C_R   0.563407 0.586914 0.852704 0.127973
C17   C     C_R   0.530451 0.543551 0.158850 0.316132
C18   C     C_R   0.468540 0.462534 0.847559 0.256477
C19   C     C_R   0.528469 0.535310 0.035051 -0.078659
C20   C     C_R   0.479429 0.461870 0.968307 -0.021733
C21   C     C_R   0.368239 0.511500 0.501328 0.775839
C22   C     C_R   0.632129 0.490146 0.498581 0.795469
C23   C     C_R   0.261777 0.552388 0.610556 -0.002212
C24   C     C_R   0.741681 0.465006 0.390496 -0.010615
C25   C     C_R   0.189553 0.528841 0.613851 -0.035600
C26   C     C_R   0.815164 0.476883 0.393519 -0.083539
C27   C     C_R   0.147124 0.513971 0.510111 -0.115435
C28   C     C_R   0.854571 0.480937 0.498759 -0.061541
C29   C     C_R   0.176914 0.518618 0.404443 0.163859
C30   C     C_R   0.822096 0.473067 0.600506 0.161971
C31   C     C_R   0.249749 0.527316 0.400488 -0.007068
C32   C     C_R   0.748807 0.466511 0.599808 -0.047539
C33   C     C_R   0.292651 0.531162 0.503815 -0.292288
C34   C     C_R   0.708285 0.472764 0.496101 -0.258339
C35   C     C_R   0.930819 0.488827 0.503105 0.438815
C36   C     C_R   0.071102 0.503190 0.511643 0.360828
Cu1   Cu    Cu3+1 0.505120 0.507730 0.615930 0.940497
Cu2   Cu    Cu3+1 0.494880 0.492270 0.384070 0.980637
N1    N     N_R   0.034594 0.415961 0.457177 -0.210850
N2    N     N_R   0.967294 0.575684 0.558507 -0.181130
N3    N     N_R   0.965496 0.408781 0.453255 -0.243398
N4    N     N_R   0.036385 0.582963 0.562153 -0.227006
N5    N     N_R   0.512830 0.519350 0.790130 -0.238179
N6    N     N_R   0.487170 0.480650 0.209870 -0.222047
O1    O     O_R   0.503640 0.354460 0.582000 -0.619270
O2    O     O_R   0.496360 0.645540 0.418000 -0.557000
O3    O     O_R   0.494980 0.341410 0.386200 -0.581340
O4    O     O_R   0.505020 0.658590 0.613800 -0.535887
O5    O     O_R   0.404470 0.506520 0.597930 -0.618641
O6    O     O_R   0.595530 0.493480 0.402070 -0.560879
O7    O     O_R   0.395820 0.493460 0.402130 -0.566317
O8    O     O_R   0.604180 0.506540 0.597870 -0.620294
C37   C     C_2   0.301820 0.619405 0.710393 0.373932
H1    H     H_    0.355123 0.646802 0.703811 0.099753
O9    O     O_2   0.274827 0.651695 0.798754 -0.494502
C38   C     C_2   0.700620 0.426481 0.278884 0.386788
H2    H     H_    0.656133 0.371454 0.276857 0.088370
O10   O     O_2   0.715584 0.453844 0.188519 -0.467791
C39   C     C_2   0.402177 0.296677 0.956587 0.391674
H3    H     H_    0.426442 0.252308 0.886400 0.087111
O11   O     O_2   0.343271 0.269297 0.976964 -0.458516
C40   C     C_2   0.629319 0.669809 0.033242 0.360720
H4    H     H_    0.619066 0.748343 0.068691 0.080811
O12   O     O_2   0.688671 0.643015 0.038132 -0.434227
C41   C     C_2   0.158758 0.513483 0.723553 0.511506
H5    H     H_    0.104948 0.527527 0.736893 0.079250
O13   O     O_2   0.192633 0.479762 0.798526 -0.454607
C42   C     C_2   0.852059 0.485214 0.287920 0.480708
H6    H     H_    0.892262 0.433721 0.263157 0.066146
O14   O     O_2   0.840191 0.553430 0.231327 -0.436049
N7    N     N_3   0.133445 0.518238 0.300937 -0.503150
H7    H     H_    0.103714 0.447745 0.281566 0.260908
H8    H     H_    0.100209 0.578226 0.314709 0.229569
N8    N     N_3   0.865038 0.467894 0.703125 -0.545369
H9    H     H_    0.851274 0.399403 0.733889 0.253151
H10   H     H_    0.857538 0.531547 0.765242 0.288167
C43   C     C_2   0.279959 0.545474 0.291249 0.551993
H11   H     H_    0.326604 0.596450 0.293802 0.029439
O15   O     O_2   0.252995 0.504857 0.197415 -0.434112
C44   C     C_2   0.715022 0.440114 0.702997 0.347042
H12   H     H_    0.669800 0.385299 0.692032 0.097361
O16   O     O_2   0.736449 0.479429 0.800508 -0.512107
N9    N     N_3   0.476544 0.803541 0.317609 -0.537203
H13   H     H_    0.429577 0.759484 0.317971 0.209175
H14   H     H_    0.463570 0.852247 0.258693 0.231130
N10   N     N_3   0.431684 0.185562 0.639241 -0.540935
H15   H     H_    0.465031 0.234270 0.699951 0.241844
H16   H     H_    0.394332 0.225098 0.599325 0.225080
N11   N     N_3   0.454787 0.817378 0.730567 -0.543284
H17   H     H_    0.403323 0.827965 0.749522 0.208637
H18   H     H_    0.487402 0.850020 0.802576 0.262846
N12   N     N_3   0.567787 0.185272 0.297826 -0.596895
H19   H     H_    0.545322 0.158966 0.214702 0.213649
H20   H     H_    0.620279 0.170189 0.300718 0.212952
N13   N     N_3   0.569153 0.965742 0.276695 -0.579711
H21   H     H_    0.549236 0.979641 0.196495 0.211123
H22   H     H_    0.621702 0.991682 0.288187 0.233606
N14   N     N_3   0.447710 0.033842 0.752075 -0.564411
H23   H     H_    0.399349 0.005616 0.773887 0.239608
H24   H     H_    0.485788 0.025601 0.816176 0.212955
N15   N     N_3   0.404048 0.416822 0.791353 -0.567792
H25   H     H_    0.370379 0.475154 0.786561 0.266896
H26   H     H_    0.411531 0.378814 0.710027 0.255196
N16   N     N_3   0.576372 0.617176 0.234244 -0.500658
H27   H     H_    0.567134 0.691821 0.220327 0.221368
H28   H     H_    0.627863 0.601036 0.222575 0.262600
C45   C     C_2   0.607777 0.656056 0.794875 0.501127
H29   H     H_    0.653354 0.628951 0.754318 0.112975
O17   O     O_2   0.597130 0.747383 0.801743 -0.575655
C46   C     C_2   0.404546 0.328135 0.201160 0.568734
H30   H     H_    0.426029 0.254819 0.208635 0.023447
O18   O     O_2   0.346033 0.342614 0.230359 -0.485845

loop_
_geom_bond_atom_site_label_1
_geom_bond_atom_site_label_2
_ccdc_geom_bond_type
N15   H25   S    
C27   C29   A    
C37   O9    D    
C36   N4    A    
C19   C20   A    
N16   H28   S    
N1    N3    A    
C43   H11   S    
C2    O2    A    
Cu1   Cu2   S    
N8    H10   S    
C6    N14   S    
C17   N16   S    
C24   C26   A    
C15   N6    A    
C30   N8    S    
N10   H16   S    
C21   C33   S    
C14   C40   S    
C10   N9    S    
C38   H2    S    
C46   H30   S    
C40   O12   D    
C16   C45   S    
N13   H21   S    
C28   C35   S    
C42   H6    S    
C41   O13   D    
C45   H29   S    
C31   C33   A    
C31   C43   S    
N11   H18   S    
C22   O6    A    
N2    N4    A    
C39   H3    S    
N15   H26   S    
C45   O17   D    
C15   C46   S    
C4    C7    A    
C21   O5    A    
N16   H27   S    
C5    N13   S    
C23   C37   S    
C43   O15   D    
C22   C34   S    
C39   O11   D    
N8    H9    S    
C25   C41   S    
C5    C12   A    
C44   O16   D    
C3    C8    A    
C6    C11   A    
C5    C7    A    
Cu1   O8    S    
N10   H15   S    
C1    O3    A    
C6    C8    A    
Cu2   O7    S    
C23   C33   A    
C37   H1    S    
C24   C34   A    
C18   N15   S    
C32   C34   A    
Cu1   N5    S    
Cu2   N6    S    
C40   H4    S    
C9    N10   S    
C32   C44   S    
Cu1   O5    S    
N9    H13   S    
N12   H20   S    
Cu1   O4    S    
C9    C11   A    
C16   N5    A    
Cu2   O3    S    
C10   C12   A    
C13   C39   S    
N9    H14   S    
C41   H5    S    
N14   H24   S    
C13   C15   A    
C14   C16   A    
C25   C27   A    
Cu1   O1    S    
C21   O7    A    
C22   O8    A    
C13   C20   A    
C14   C19   A    
C36   N1    A    
C44   H12   S    
C11   C12   A    
N13   H22   S    
Cu2   O6    S    
C27   C36   S    
C24   C38   S    
C26   C28   A    
C1    C4    S    
C2    O4    A    
C28   C30   A    
C2    C3    S    
C4    C9    A    
C17   N6    A    
C26   C42   S    
N7    H7    S    
C29   C31   A    
C3    C10   A    
C18   N5    A    
C30   C32   A    
C1    O1    A    
C7    N12   S    
N12   H19   S    
C17   C19   A    
C38   O10   D    
C35   N2    A    
C18   C20   A    
C23   C25   A    
C35   N3    A    
C46   O18   D    
Cu2   O2    S    
C42   O14   D    
N14   H23   S    
N7    H8    S    
C8    N11   S    
N11   H17   S    
C29   N7    S    
