data_mof_unit_13320.cif
_audit_creation_date              2012-12-11T14:36:22-0500
_audit_creation_method            fapswitch 2.2
_symmetry_space_group_name_H-M    P1
_symmetry_Int_Tables_number       1
_space_group_crystal_system       triclinic
_cell_length_a                    13.477897
_cell_length_b                    13.492481
_cell_length_c                    27.499827
_cell_angle_alpha                 90.844545
_cell_angle_beta                  90.069238
_cell_angle_gamma                 60.066698
_cell_volume                      4333.19195708

loop_
_atom_site_label
_atom_site_type_symbol
_atom_type_description
_atom_site_fract_x
_atom_site_fract_y
_atom_site_fract_z
_atom_type_partial_charge
C1    C     C_R   0.620134 0.101449 0.570237 0.543918
C2    C     C_1   0.648210 0.706963 0.658745 -0.055550
C3    C     C_3   0.091125 0.134635 0.738419 -0.080717
C4    C     C_R   0.599460 0.779891 0.568858 0.547591
C5    C     C_3   0.182999 0.058994 0.776129 -0.151505
C6    C     C_1   0.098391 0.200245 0.902111 0.001039
C7    C     C_1   0.230349 0.138026 0.617762 -0.007831
C8    C     C_3   0.060628 0.240743 0.770496 0.408229
C9    C     C_3   0.151062 0.166154 0.807611 0.056738
C10   C     C_3   0.149004 0.261241 0.743873 -0.075237
C11   C     C_3   0.181010 0.153948 0.712462 0.005749
C12   C     C_1   0.630348 0.733526 0.616649 -0.010825
C13   C     C_3   0.240703 0.185400 0.781428 -0.152254
C14   C     C_3   0.273345 0.077903 0.749226 -0.128632
C15   C     C_1   0.127310 0.180219 0.860012 -0.017208
C16   C     C_R   0.277837 0.121894 0.569742 0.546206
C17   C     C_1   0.203011 0.146690 0.659993 -0.051058
C18   C     C_3   0.627368 0.277250 0.740314 -0.099741
C19   C     C_3   0.554092 0.257752 0.778313 -0.101443
C20   C     C_1   0.691338 0.207466 0.903023 -0.010037
C21   C     C_1   0.634980 0.133652 0.618448 -0.013662
C22   C     C_3   0.735780 0.205407 0.771125 -0.102233
C23   C     C_3   0.686574 0.566712 0.768082 -0.064737
C24   C     C_3   0.662360 0.185644 0.808294 0.048584
C25   C     C_3   0.758296 0.095344 0.743404 -0.101592
C26   C     C_3   0.650129 0.167338 0.713356 0.053071
C27   C     C_3   0.685108 0.075793 0.781289 -0.103795
C28   C     C_R   0.622215 0.098986 0.431047 0.543711
C29   C     C_3   0.576658 0.147561 0.750494 -0.103920
C30   C     C_1   0.674264 0.196327 0.860801 -0.052523
C31   C     C_1   0.643145 0.152538 0.660798 -0.055501
C32   C     C_R   0.736062 0.703977 0.359759 -0.126384
C33   C     C_R   0.748000 0.685857 0.309441 0.017609
C34   C     C_3   0.678425 0.656062 0.805725 0.055685
C35   C     C_R   0.761685 0.664944 0.207604 0.017112
C36   C     C_R   0.850233 0.665899 0.234044 -0.136110
C37   C     C_R   0.843210 0.676788 0.284716 -0.133644
C38   C     C_R   0.771444 0.644640 0.157390 -0.137204
C39   C     C_R   0.683724 0.638708 0.132289 -0.005068
C40   C     C_R   0.602347 0.775115 0.430547 0.548156
C41   C     C_R   0.557831 0.699552 0.357451 -0.128926
C42   C     C_R   0.564957 0.688459 0.307337 0.013625
C43   C     C_R   0.659422 0.683361 0.283027 0.064642
C44   C     C_R   0.475379 0.689544 0.281108 -0.133210
C45   C     C_3   0.581105 0.662026 0.741833 -0.117510
C46   C     C_R   0.478195 0.687721 0.230651 -0.134174
C47   C     C_R   0.572754 0.680243 0.206173 0.014024
C48   C     C_R   0.664405 0.676925 0.232250 0.065755
C49   C     C_R   0.580592 0.667618 0.156119 -0.130047
C50   C     C_R   0.637679 0.717128 0.383287 -0.001869
C51   C     C_R   0.220628 0.053337 0.357542 -0.193324
C52   C     C_R   0.276820 0.120988 0.431387 0.574607
C53   C     C_R   0.192485 0.068033 0.308272 -0.002559
C54   C     C_R   0.151763 0.095114 0.207744 0.020994
C55   C     C_R   0.181734 0.990444 0.229413 -0.122677
C56   C     C_3   0.661884 0.685716 0.711086 0.036187
C57   C     C_R   0.203064 0.976665 0.279317 -0.110429
C58   C     C_R   0.128044 0.111153 0.157976 -0.134698
C59   C     C_R   0.097710 0.216925 0.137199 -0.002552
C60   C     C_R   0.168053 0.253789 0.365394 0.362940
C61   C     C_R   0.145224 0.268156 0.315860 0.030015
C62   C     C_R   0.159195 0.174513 0.287014 0.007330
C63   C     C_R   0.115041 0.372845 0.294217 -0.096468
C64   C     C_3   0.767217 0.590796 0.736570 -0.062310
C65   C     C_R   0.101880 0.383822 0.244168 -0.147858
C66   C     C_R   0.114589 0.291795 0.215396 0.012274
C67   C     C_3   0.573123 0.750952 0.780193 -0.113955
C68   C     C_R   0.141874 0.187022 0.236700 0.066707
C69   C     C_R   0.096272 0.304704 0.165775 -0.124064
C70   C     C_R   0.214464 0.144361 0.385482 0.005652
C71   C     C_R   0.569950 0.237951 0.363454 -0.127335
C72   C     C_R   0.575504 0.256571 0.313799 0.015751
C73   C     C_R   0.585324 0.289268 0.213484 0.013193
C74   C     C_R   0.510263 0.380836 0.243838 -0.126499
C75   C     C_R   0.504457 0.364275 0.293623 -0.122665
C76   C     C_3   0.759300 0.679751 0.775041 -0.090548
C77   C     C_R   0.597501 0.305832 0.164221 -0.134516
C78   C     C_3   0.653692 0.775140 0.748698 -0.113012
C79   C     C_R   0.677569 0.213899 0.135229 -0.004788
C80   C     C_R   0.723194 0.040902 0.352685 -0.126529
C81   C     C_R   0.726222 0.056586 0.303201 0.010383
C82   C     C_R   0.651898 0.164490 0.283461 0.061621
C83   C     C_R   0.800215 0.964617 0.273041 -0.124695
C84   C     C_R   0.800485 0.979030 0.223170 -0.125504
C85   C     C_R   0.729172 0.086545 0.203258 0.013769
C86   C     C_R   0.654599 0.180000 0.233329 0.062678
C87   C     C_R   0.736890 0.103503 0.154166 -0.128383
C88   C     C_1   0.697003 0.608239 0.900208 -0.004763
C89   C     C_1   0.687718 0.634617 0.858073 -0.038925
C90   C     C_R   0.642318 0.129385 0.382712 -0.002591
C91   C     C_R   0.049528 0.235998 0.949834 0.547845
C92   C     C_R   0.711615 0.562888 0.948172 0.547362
C93   C     C_R   0.722191 0.225353 0.950923 0.547090
C94   C     C_R   0.046830 0.246259 0.088854 0.545599
C95   C     C_R   0.707312 0.575975 0.086143 0.545113
C96   C     C_R   0.718170 0.234358 0.089313 0.547175
Cr1   Cr    Cr6+3 0.417550 0.169090 0.500530 1.066125
Cr2   Cr    Cr6+3 0.669180 0.913420 0.499920 1.030366
Cr3   Cr    Cr6+3 0.413260 0.917540 0.499520 1.023065
Cr4   Cr    Cr6+3 0.909170 0.177380 0.020380 1.023316
Cr5   Cr    Cr6+3 0.912710 0.429210 0.018220 1.025639
Cr6   Cr    Cr6+3 0.657170 0.432570 0.019030 1.021754
F1    F     F_    0.950381 0.325267 0.782225 -0.672959
F2    F     F_    0.153476 0.344511 0.393157 -0.633774
H1    H     H_    0.832308 0.687416 0.789307 0.112340
H2    H     H_    0.846714 0.524944 0.718129 0.147674
H3    H     H_    0.798719 0.715890 0.379841 0.128984
H4    H     H_    0.924767 0.658098 0.215546 0.091539
H5    H     H_    0.912036 0.678170 0.304541 0.100742
H6    H     H_    0.511062 0.666612 0.136628 0.128265
H7    H     H_    0.408008 0.689039 0.210817 0.094074
H8    H     H_    0.402283 0.693955 0.299598 0.094717
H9    H     H_    0.482853 0.707054 0.375547 0.130703
H10   H     H_    0.129081 0.043367 0.135919 0.117213
H11   H     H_    0.254831 0.969214 0.373119 0.136876
H12   H     H_    0.133306 0.344913 0.730302 0.112349
H13   H     H_    0.189585 0.919114 0.207744 0.099220
H14   H     H_    0.640083 0.861204 0.740096 0.104575
H15   H     H_    0.228162 0.894580 0.295246 0.103461
H16   H     H_    0.072178 0.387049 0.150212 0.131101
H17   H     H_    0.081311 0.464421 0.227947 0.101491
H18   H     H_    0.104718 0.445448 0.315657 0.171131
H19   H     H_    0.551176 0.391224 0.149523 0.125727
H20   H     H_    0.507336 0.306208 0.386647 0.130857
H21   H     H_    0.456649 0.465233 0.229136 0.106003
H22   H     H_    0.797223 0.032053 0.131590 0.127322
H23   H     H_    0.470046 0.324160 0.793256 0.105995
H24   H     H_    0.493548 0.816893 0.798563 0.105733
H25   H     H_    0.858656 0.907000 0.200372 0.103694
H26   H     H_    0.857724 0.881638 0.288054 0.105715
H27   H     H_    0.778751 0.956417 0.367048 0.133383
H28   H     H_    0.508058 0.654335 0.727627 0.108764
H29   H     H_    0.699925 0.480723 0.776639 0.147639
H30   H     H_    0.197817 0.975787 0.789896 0.111325
H31   H     H_    0.028528 0.115508 0.720541 0.108398
H32   H     H_    0.361927 0.010147 0.739756 0.116577
H33   H     H_    0.302587 0.205390 0.799420 0.109749
H34   H     H_    0.604115 0.359809 0.723001 0.106972
H35   H     H_    0.445422 0.435846 0.316390 0.112169
H36   H     H_    0.510929 0.123666 0.741394 0.102378
H37   H     H_    0.708435 0.993185 0.798576 0.103777
H38   H     H_    0.842411 0.028903 0.728523 0.107665
H39   H     H_    0.801606 0.229157 0.780199 0.161526
H40   H     H_    0.850423 0.624383 0.138810 0.117551
O1    O     O_R   0.301710 0.195650 0.554160 -0.502075
O2    O     O_R   0.635520 0.542770 0.964420 -0.509681
O3    O     O_R   0.665950 0.325030 0.970100 -0.494163
O4    O     O_R   0.522390 0.158990 0.550460 -0.497075
O5    O     O_R   0.816620 0.158530 0.074540 -0.519824
O6    O     O_R   0.004460 0.188870 0.069750 -0.499345
O7    O     O_R   0.025800 0.341780 0.072300 -0.524452
O8    O     O_R   0.807650 0.528950 0.067500 -0.503506
O9    O     O_R   0.633420 0.550490 0.071810 -0.524208
O10   O     O_R   0.664000 0.332180 0.069640 -0.502160
O11   O     O_3   0.826350 0.346390 0.019210 -0.243224
O12   O     O_R   0.658900 0.818120 0.449760 -0.500376
O13   O     O_R   0.694390 0.003530 0.554040 -0.505306
O14   O     O_R   0.657700 0.819660 0.549320 -0.492770
O15   O     O_R   0.501930 0.803280 0.552920 -0.506256
O16   O     O_R   0.318170 0.023580 0.549580 -0.496686
O17   O     O_R   0.303010 0.193990 0.446760 -0.431497
O18   O     O_R   0.523600 0.157450 0.450900 -0.496857
O19   O     O_R   0.695690 0.001860 0.446640 -0.521901
O20   O     O_R   0.503220 0.801620 0.445520 -0.522882
O21   O     O_R   0.319370 0.022040 0.450020 -0.520869
O22   O     O_3   0.499990 0.000010 0.499990 -0.256626
O23   O     O_R   0.818720 0.150820 0.967160 -0.507647
O24   O     O_R   0.006410 0.181720 0.970200 -0.496380
O25   O     O_R   0.027890 0.334070 0.964920 -0.502092
O26   O     O_R   0.809600 0.521790 0.967960 -0.490975

loop_
_geom_bond_atom_site_label_1
_geom_bond_atom_site_label_2
_ccdc_geom_bond_type
C66   C68   A    
C20   C93   S    
C63   C65   A    
C1    C21   S    
C76   H1    S    
C23   C45   S    
Cr3   O15   S    
C4    O15   A    
C36   H4    S    
C41   C42   A    
C35   C36   A    
C18   C26   S    
C24   C27   S    
C9    C15   S    
C2    C12   T    
C79   C87   A    
Cr2   O19   S    
C28   O18   A    
C47   C49   A    
C20   C30   T    
C85   C86   A    
C21   C31   T    
Cr4   O23   S    
C36   C37   A    
C78   H14   S    
C76   C78   S    
C40   O20   A    
C55   H13   S    
C38   C39   A    
Cr6   O3    S    
C11   C14   S    
C66   C69   A    
C54   C68   A    
Cr5   O11   S    
Cr1   O22   S    
C84   H25   S    
C56   C78   S    
C27   C29   S    
C61   C63   A    
C18   C19   S    
C73   C74   A    
C18   H34   S    
C9    C13   S    
C6    C15   T    
C54   C55   A    
C96   O10   A    
Cr2   O14   S    
C45   C56   S    
C92   O26   A    
C8    C9    S    
C7    C17   T    
C22   C25   S    
C22   H39   S    
C45   C67   S    
C56   C64   S    
Cr5   O25   S    
C26   C29   S    
C59   C94   S    
C65   H17   S    
C4    C12   S    
C43   C48   A    
Cr6   O10   S    
C37   H5    S    
C52   O17   A    
C57   H15   S    
Cr3   O22   S    
C85   C87   A    
C26   C31   S    
C80   H27   S    
C13   C14   S    
C38   H40   S    
C67   C78   S    
C42   C44   A    
C72   C75   A    
C35   C48   A    
C81   C83   A    
C44   C46   A    
C81   C82   A    
Cr2   O12   S    
C77   C79   A    
C5    H30   S    
C4    O14   A    
C74   C75   A    
C91   O25   A    
C92   O2    A    
C33   C43   A    
C88   C92   S    
C91   O24   A    
C35   C38   A    
C3    C11   S    
C84   C85   A    
C83   H26   S    
C3    C8    S    
C23   H29   S    
Cr4   O6    S    
C58   C59   A    
C82   C86   A    
Cr5   O7    S    
C51   H11   S    
C60   C61   A    
C95   O9    A    
C13   H33   S    
C5    C9    S    
C77   H19   S    
C52   O21   A    
C53   C62   A    
C71   H20   S    
C40   O12   A    
C47   C48   A    
Cr2   O13   S    
C60   C70   A    
C23   C34   S    
C39   C95   S    
C64   C76   S    
C60   F2    S    
Cr5   O26   S    
C25   C26   S    
C88   C89   T    
Cr6   O9    S    
C32   C50   A    
C5    C14   S    
Cr2   O22   S    
C59   C69   A    
C44   H8    S    
Cr4   O11   S    
C23   C64   S    
C51   C70   A    
C65   C66   A    
Cr1   O17   S    
C55   C57   A    
Cr1   O4    S    
C22   C24   S    
C83   C84   A    
C24   C30   S    
C94   O6    A    
C42   C43   A    
C19   C29   S    
C41   C50   A    
C63   H18   S    
C10   H12   S    
C54   C58   A    
C29   H36   S    
C46   C47   A    
C11   C17   S    
C53   C57   A    
Cr5   O8    S    
C39   C49   A    
C18   C22   S    
Cr1   O1    S    
C7    C16   S    
C41   H9    S    
C80   C81   A    
C3    C5    S    
C10   C13   S    
C34   C67   S    
C28   C90   S    
C64   H2    S    
Cr4   O5    S    
C25   C27   S    
C69   H16   S    
C62   C68   A    
Cr4   O24   S    
C32   C33   A    
C1    O13   A    
C19   C24   S    
C94   O7    A    
C34   C89   S    
C71   C72   A    
C75   H35   S    
C67   H24   S    
Cr6   O2    S    
Cr3   O16   S    
C32   H3    S    
C25   H38   S    
C71   C90   A    
C14   H32   S    
C40   C50   S    
C96   O5    A    
C19   H23   S    
C27   H37   S    
C93   O3    A    
C3    H31   S    
C80   C90   A    
C61   C62   A    
C8    F1    S    
C33   C37   A    
C73   C86   A    
C52   C70   S    
C10   C11   S    
Cr3   O20   S    
C74   H21   S    
C79   C96   S    
C16   O16   A    
C93   O23   A    
C45   H28   S    
C8    C10   S    
Cr1   O18   S    
C58   H10   S    
C73   C77   A    
C16   O1    A    
C1    O4    A    
C2    C56   S    
C95   O8    A    
C51   C53   A    
C46   H7    S    
Cr6   O11   S    
C87   H22   S    
C72   C82   A    
C6    C91   S    
C28   O19   A    
C34   C76   S    
C49   H6    S    
Cr3   O21   S    
