data_mof_unit_33987.cif
_audit_creation_date              2012-12-10T17:16:43-0500
_audit_creation_method            fapswitch 2.2
_symmetry_space_group_name_H-M    P1
_symmetry_Int_Tables_number       1
_space_group_crystal_system       triclinic
_cell_length_a                    10.070374
_cell_length_b                    10.646075
_cell_length_c                    10.83412
_cell_angle_alpha                 89.918364
_cell_angle_beta                  95.097841
_cell_angle_gamma                 82.144279
_cell_volume                      1145.96528764

loop_
_atom_site_label
_atom_site_type_symbol
_atom_type_description
_atom_site_fract_x
_atom_site_fract_y
_atom_site_fract_z
_atom_type_partial_charge
C1    C     C_R   0.443806 0.505141 0.267327 0.945228
C2    C     C_R   0.506203 0.738961 0.517458 0.890557
C3    C     C_R   0.706846 0.084950 0.375395 -0.127367
C4    C     C_R   0.292676 0.915446 0.623528 -0.127811
C5    C     C_R   0.833409 0.012598 0.377903 -0.158838
C6    C     C_R   0.166108 0.987835 0.620831 -0.158819
C7    C     C_R   0.860792 0.901471 0.448530 -0.152812
C8    C     C_R   0.138840 0.098905 0.550116 -0.154027
C9    C     C_R   0.758398 0.857888 0.508111 -0.126262
C10   C     C_R   0.241350 0.142399 0.490647 -0.126696
C11   C     C_R   0.626177 0.924578 0.496721 0.091135
C12   C     C_R   0.556033 0.488196 0.732665 0.942501
C13   C     C_R   0.373525 0.075639 0.502200 0.091768
C14   C     C_R   0.605420 0.046164 0.443624 0.090179
C15   C     C_R   0.394224 0.954085 0.555346 0.089153
C16   C     C_R   0.514274 0.873729 0.536456 -0.267830
C17   C     C_R   0.485475 0.126500 0.462705 -0.265140
C18   C     C_2   0.411563 0.496980 0.135697 -0.383601
C19   C     C_2   0.587654 0.470597 0.864305 -0.377458
C20   C     C_2   0.511534 0.459137 0.065943 -0.156032
C21   C     C_2   0.486563 0.463058 0.934037 -0.143997
C22   C     C_2   0.071700 0.493290 0.486658 -0.131948
C23   C     C_2   0.928278 0.506788 0.513281 -0.130636
C24   C     C_R   0.493734 0.261129 0.482310 0.884815
H1    H     H_    0.688726 0.171122 0.319678 0.140839
H2    H     H_    0.308500 0.523044 0.095756 0.149608
H3    H     H_    0.894471 0.566692 0.588288 0.148192
H4    H     H_    0.105484 0.433463 0.411593 0.148693
H5    H     H_    0.877866 0.392424 0.378075 0.151119
H6    H     H_    0.122150 0.607499 0.621983 0.152039
H7    H     H_    0.038901 0.152374 0.542705 0.147239
H8    H     H_    0.960757 0.848056 0.455839 0.147337
H9    H     H_    0.310695 0.829406 0.679420 0.143670
H10   H     H_    0.911262 0.044669 0.327967 0.134948
H11   H     H_    0.088181 0.955858 0.670737 0.135371
H12   H     H_    0.784163 0.773690 0.565557 0.136039
H13   H     H_    0.215792 0.226639 0.433227 0.136147
H14   H     H_    0.382685 0.468504 0.894500 0.188056
H15   H     H_    0.614879 0.433211 0.105479 0.184234
H16   H     H_    0.691251 0.465465 0.904248 0.147863
N1    N     N_2   0.157300 0.551390 0.551120 -0.196035
N2    N     N_2   0.842700 0.448610 0.448880 -0.195408
O1    O     O_R   0.568940 0.489660 0.307530 -0.615190
O2    O     O_R   0.431060 0.510340 0.692470 -0.618023
O3    O     O_R   0.348880 0.522640 0.340350 -0.615429
O4    O     O_R   0.651120 0.477360 0.659650 -0.616003
O5    O     O_R   0.610030 0.300280 0.483580 -0.609610
O6    O     O_R   0.389970 0.699720 0.516420 -0.607258
O7    O     O_R   0.389970 0.333270 0.516400 -0.611030
O8    O     O_R   0.610030 0.666730 0.483600 -0.608232
Zn1   Zn    Zn3+2 0.646940 0.477980 0.478080 0.932837
Zn2   Zn    Zn3+2 0.353060 0.522020 0.521920 0.931921

loop_
_geom_bond_atom_site_label_1
_geom_bond_atom_site_label_2
_ccdc_geom_bond_type
C9    H12   S    
C6    C8    A    
H6    N1    S    
C23   H3    S    
H5    N2    S    
C2    C16   S    
C11   C16   A    
N1    Zn2   S    
C18   H2    S    
C13   C17   A    
N2    Zn1   S    
O7    Zn2   S    
C1    O3    A    
C5    H10   S    
O2    Zn2   S    
C4    C15   A    
O8    Zn1   S    
C12   O2    A    
C22   H4    S    
C20   C21   S    
C9    C11   A    
C14   C17   A    
O1    Zn1   S    
C1    C18   S    
C23   N2    D    
C3    C14   A    
C10   H13   S    
C12   C19   S    
C4    C6    A    
C19   C21   D    
C18   C20   D    
C13   C15   A    
C11   C14   A    
C22   N1    D    
C19   H16   S    
C24   O5    A    
C15   C16   A    
C17   C24   S    
C7    C9    A    
O6    Zn2   S    
C3    H1    S    
C6    H11   S    
C12   O4    A    
C24   O7    A    
C5    C7    A    
C20   H15   S    
C4    H9    S    
O5    Zn1   S    
C7    H8    S    
C2    O8    A    
O3    Zn2   S    
C2    O6    A    
C22   C23   S    
C8    H7    S    
O4    Zn1   S    
C1    O1    A    
C8    C10   A    
C21   H14   S    
C3    C5    A    
C10   C13   A    
