data_mof_unit_34128.cif
_audit_creation_date              2013-03-05T16:03:27-0500
_audit_creation_method            fapswitch 2.2
_symmetry_space_group_name_H-M    P1
_symmetry_Int_Tables_number       1
_space_group_crystal_system       triclinic
_cell_length_a                    6.946252
_cell_length_b                    18.284246
_cell_length_c                    20.149913
_cell_angle_alpha                 68.424984
_cell_angle_beta                  90.418184
_cell_angle_gamma                 90.882338
_cell_volume                      2379.58972443

loop_
_atom_site_label
_atom_site_type_symbol
_atom_site_description
_atom_site_fract_x
_atom_site_fract_y
_atom_site_fract_z
_atom_type_partial_charge
O1    O     O_R   0.488960 0.443750 0.941980 -0.561197
O2    O     O_R   0.823890 0.406510 0.087590 -0.600245
O3    O     O_R   0.999680 0.556250 0.058020 -0.597536
C1    C     C_R   0.654666 0.382956 0.114685 1.068501
O4    O     O_R   0.818360 0.434410 0.944340 -0.600575
O5    O     O_R   0.994110 0.584350 0.913750 -0.594210
C2    C     C_R   0.648979 0.420833 0.923447 1.075770
O6    O     O_R   0.494530 0.415650 0.086250 -0.565473
O7    O     O_3   0.662590 0.549160 0.990130 -0.289348
V1    V     V_3+5 0.935320 0.490880 0.001830 1.197272
O8    O     O_R   0.324180 0.593490 0.912410 -0.602209
C3    C     C_R   0.155862 0.616526 0.884923 0.922775
O9    O     O_R   0.329720 0.565590 0.055660 -0.595183
C4    C     C_R   0.161990 0.579722 0.076134 0.963456
V2    V     V_3+5 0.435990 0.509120 0.998170 1.208660
O10   O     O_3   0.158850 0.450840 0.009870 -0.252177
C5    C     C_3   0.095446 0.700730 0.317662 -0.144622
C6    C     C_3   0.270596 0.697150 0.272210 0.774793
H1    H     H_    0.066653 0.660224 0.373265 0.200698
H2    H     H_    0.444651 0.817095 0.246628 0.176536
C7    C     C_1   0.155246 0.625407 0.121656 -0.285185
C8    C     C_1   0.110869 0.874347 0.378346 -0.285176
C9    C     C_3   0.962398 0.712873 0.252083 -0.280366
C10   C     C_3   0.139428 0.708690 0.207653 -0.181486
C11   C     C_3   0.992041 0.803486 0.227854 -0.225113
C12   C     C_3   0.125872 0.790723 0.292636 0.016738
C13   C     C_3   0.169171 0.797948 0.184121 0.781402
C14   C     C_3   0.303766 0.786918 0.248399 -0.452790
C15   C     C_1   0.148542 0.663098 0.160235 0.173672
C16   C     C_1   0.117467 0.836502 0.339896 0.125324
H3    H     H_    0.877330 0.848111 0.209047 0.158759
H4    H     H_    0.822095 0.682434 0.253488 0.229125
H5    H     H_    0.928611 0.529737 0.694881 0.178280
C17   C     C_R   0.283637 0.772185 0.873455 -0.167663
C18   C     C_R   0.333880 0.846602 0.871785 -0.133711
C19   C     C_R   0.291921 0.912418 0.812192 -0.173758
C20   C     C_R   0.203356 0.904811 0.752383 0.312365
C21   C     C_R   0.173190 0.828480 0.749291 -0.040916
C22   C     C_R   0.202978 0.761314 0.813000 0.095486
C23   C     C_R   0.113651 0.817225 0.685603 -0.240967
C24   C     C_R   0.065657 0.740359 0.688238 0.044004
C25   C     C_R   0.078435 0.674723 0.753752 0.139526
C26   C     C_R   0.147341 0.685106 0.816121 -0.250882
C27   C     C_R   0.005784 0.727152 0.626123 -0.375559
C28   C     C_R   0.956136 0.651964 0.628835 0.873321
C29   C     C_R   0.966491 0.588150 0.692979 -0.237201
C30   C     C_R   0.027878 0.598979 0.754712 -0.292160
H6    H     H_    0.309570 0.723536 0.922903 0.130105
H7    H     H_    0.397133 0.853507 0.918441 0.165871
H8    H     H_    0.317611 0.970096 0.814333 0.158563
H9    H     H_    0.996895 0.774525 0.574682 0.146167
H10   H     H_    0.037427 0.547051 0.802825 0.159476
C31   C     C_R   0.478035 0.102993 0.254443 -0.179598
C32   C     C_R   0.415113 0.093247 0.192554 -0.209647
C33   C     C_R   0.429049 0.155184 0.127368 -0.208140
C34   C     C_R   0.504957 0.227755 0.123224 0.700893
C35   C     C_R   0.566995 0.240346 0.185765 -0.087325
C36   C     C_R   0.554288 0.175988 0.252646 0.059954
C37   C     C_R   0.644066 0.314080 0.183182 -0.274525
C38   C     C_R   0.710197 0.322441 0.246970 0.120604
C39   C     C_R   0.699003 0.257713 0.313282 0.044620
C40   C     C_R   0.620913 0.184598 0.316139 -0.198752
C41   C     C_R   0.785287 0.395211 0.246332 -0.292587
C42   C     C_R   0.848831 0.403654 0.308898 -0.237555
C43   C     C_R   0.837838 0.340435 0.373552 0.893746
C44   C     C_R   0.763239 0.268296 0.376050 -0.356847
H11   H     H_    0.467200 0.052241 0.303544 0.133231
H12   H     H_    0.357089 0.036961 0.195116 0.166310
H13   H     H_    0.382198 0.146708 0.079296 0.167685
H14   H     H_    0.794882 0.446639 0.197729 0.152505
H15   H     H_    0.905897 0.459781 0.307153 0.180237
H16   H     H_    0.755220 0.221242 0.427799 0.147797
O11   O     O_R   0.770540 0.084530 0.414050 -0.600312
O12   O     O_R   0.445710 0.065660 0.555720 -0.561453
O13   O     O_R   0.270420 0.915650 0.586190 -0.596107
C45   C     C_R   0.615133 0.080109 0.576002 1.008728
O14   O     O_R   0.441140 0.093540 0.412470 -0.596806
O15   O     O_R   0.265820 0.943740 0.441930 -0.599960
C46   C     C_R   0.610329 0.116705 0.385280 0.912254
O16   O     O_R   0.775150 0.056440 0.558310 -0.551065
O17   O     O_3   0.602370 0.950960 0.510050 -0.279475
V3    V     V_3+5 0.329450 0.009140 0.498150 1.231585
O18   O     O_R   0.935790 0.934280 0.444060 -0.595844
C47   C     C_R   0.103729 0.920171 0.423738 0.959205
O19   O     O_R   0.940370 0.906390 0.587310 -0.569472
C48   C     C_R   0.108281 0.884453 0.615712 1.015144
V4    V     V_3+5 0.828810 0.990710 0.501460 1.231955
O20   O     O_3   0.105780 0.049100 0.489960 -0.255428
C49   C     C_3   0.764146 0.310748 0.725344 -0.245022
C50   C     C_3   0.587884 0.298190 0.683737 0.215278
H17   H     H_    0.870751 0.359775 0.705316 0.218790
C51   C     C_1   0.625003 0.126165 0.621045 -0.141891
C52   C     C_1   0.639206 0.375383 0.877833 -0.256099
C53   C     C_3   0.808199 0.221413 0.748764 -0.042189
C54   C     C_3   0.631266 0.210509 0.706077 -0.055431
C55   C     C_3   0.678370 0.203800 0.815641 -0.185293
C56   C     C_3   0.633900 0.292391 0.791626 -0.043153
C57   C     C_3   0.501177 0.192434 0.772435 -0.323963
C58   C     C_3   0.459153 0.281255 0.749077 0.731333
C59   C     C_1   0.629380 0.164296 0.659217 0.196487
C60   C     C_1   0.635234 0.337805 0.839158 0.136132
H18   H     H_    0.392308 0.144183 0.791695 0.176497
H19   H     H_    0.716596 0.164708 0.870746 0.167196
H20   H     H_    0.952747 0.196302 0.748795 0.180206
F1    F     F_    0.414204 0.641860 0.295120 -0.668770
N1    N     N_R   0.117484 0.973731 0.701825 0.215558
O21   O     O_R   0.931451 0.974562 0.694003 -0.426242
O22   O     O_R   0.211415 0.040424 0.681023 -0.423721
F2    F     F_    0.898476 0.640973 0.568687 -0.661784
F3    F     F_    0.898454 0.349160 0.434380 -0.636393
F4    F     F_    0.520172 0.283991 0.057111 -0.735783
N2    N     N_R   0.536164 0.351647 0.612347 0.276570
O23   O     O_R   0.502492 0.425037 0.600987 -0.297579
O24   O     O_R   0.524407 0.326774 0.559710 -0.321938
F5    F     F_    0.279343 0.312982 0.748274 -0.688348
F6    F     F_    0.206651 0.848085 0.114901 -0.686938

loop_
_geom_bond_atom_site_label_1
_geom_bond_atom_site_label_2
_geom_bond_distance
_ccdc_geom_bond_type
C36   C40   1.418820 A    
O18   V4    1.966805 S    
V4    O20   2.157825 S    
C11   H3    1.110167 S    
C24   C25   1.423820 A    
C18   C19   1.384910 A    
C10   C13   1.533930 S    
C50   N2    1.457023 S    
C1    O6    1.297006 A    
N2    O24   1.300299 A    
O17   V3    2.156606 S    
C54   C57   1.548259 S    
C50   C54   1.531592 S    
C28   C29   1.388978 A    
C5    C9    1.556363 S    
O12   C45   1.297925 A    
C38   C41   1.417288 A    
C6    C10   1.534129 S    
C5    C12   1.545009 S    
C4    C7    1.451425 S    
C19   C20   1.400007 A    
C21   C23   1.429734 A    
C3    C26   1.490118 S    
O5    C3    1.297606 A    
C21   C22   1.429486 A    
C28   F2    1.356179 S    
C35   C37   1.425986 A    
C32   H12   1.082905 S    
N1    O21   1.300314 A    
V2    O10   2.157716 S    
C57   C58   1.547466 S    
C34   C35   1.424489 A    
C17   C18   1.387871 A    
C42   H15   1.082897 S    
C23   C48   1.491037 S    
C49   C53   1.559098 S    
C10   C15   1.483284 S    
O11   V4    1.999410 S    
C32   C33   1.386238 A    
O8    V2    2.006470 S    
C39   C44   1.416080 A    
C44   H16   1.081758 S    
C55   C57   1.557431 S    
C18   H7    1.082742 S    
C9    C10   1.545575 S    
O1    V2    1.964889 S    
C49   H17   1.110251 S    
O7    V1    2.156603 S    
C34   F4    1.354404 S    
C13   F6    1.382447 S    
O14   C46   1.297748 A    
C53   H20   1.110372 S    
C37   C38   1.421310 A    
O9    C4    1.299655 A    
H5    C29   1.082954 S    
C39   C40   1.416408 A    
O12   V3    1.976889 S    
N2    O23   1.300276 A    
C56   C58   1.534758 S    
O19   V4    2.006417 S    
C2    C52   1.448830 S    
C17   C22   1.414935 A    
C40   C46   1.487997 S    
C6    C14   1.545350 S    
C52   C60   1.213694 T    
O4    C2    1.297607 A    
C54   C59   1.480511 S    
C22   C26   1.419238 A    
H2    C14   1.110319 S    
C11   C12   1.545171 S    
C57   H18   1.110297 S    
C7    C15   1.215280 T    
C49   C56   1.547106 S    
C38   C39   1.424007 A    
C8    C47   1.451418 S    
O2    C1    1.298514 A    
C20   C21   1.431923 A    
O15   V3    1.970081 S    
O13   C48   1.299287 A    
O18   C47   1.299609 A    
C41   H14   1.081447 S    
C31   C36   1.416377 A    
C55   C56   1.546015 S    
C33   C34   1.394029 A    
C5    C6    1.544695 S    
O11   C46   1.296364 A    
C33   H13   1.082793 S    
C53   C55   1.556463 S    
O19   C48   1.297937 A    
O17   V4    1.705429 S    
O3    C4    1.297243 A    
C45   C51   1.448110 S    
C27   H9    1.081152 S    
C23   C24   1.421313 A    
C12   C16   1.483048 S    
O6    V2    2.004047 S    
O9    V2    1.966855 S    
C11   C13   1.544649 S    
C24   C27   1.417542 A    
C17   H6    1.080244 S    
C25   C26   1.417171 A    
O2    V1    1.996816 S    
C50   C58   1.528973 S    
C19   H8    1.083264 S    
C27   C28   1.393656 A    
C51   C59   1.213264 T    
C29   C30   1.392548 A    
C8    C16   1.215285 T    
O1    C2    1.298463 A    
C45   O16   1.297658 A    
O5    V1    1.998959 S    
O8    C3    1.298188 A    
O13   V3    1.999018 S    
C31   C32   1.389605 A    
C30   H10   1.081579 S    
O16   V4    1.981931 S    
C12   C14   1.546165 S    
C42   C43   1.389398 A    
O7    V2    1.709025 S    
C6    F1    1.382498 S    
O4    V1    1.976901 S    
O3    V1    1.970228 S    
V1    O10   1.707980 S    
C9    H4    1.110161 S    
C58   F5    1.382717 S    
C35   C36   1.428611 A    
N1    O22   1.300782 A    
O14   V3    1.996812 S    
V3    O20   1.708068 S    
C1    C37   1.488857 S    
C5    H1    1.110077 S    
C25   C30   1.416719 A    
C9    C11   1.556211 S    
C53   C54   1.547003 S    
C31   H11   1.081391 S    
C43   F3    1.356179 S    
C41   C42   1.393191 A    
O15   C47   1.297304 A    
C20   N1    1.432385 S    
C43   C44   1.393319 A    
C55   H19   1.110023 S    
C13   C14   1.545428 S    
C49   C50   1.540322 S    
C56   C60   1.480343 S    
