data_mof_unit_49458.cif
_audit_creation_date              2012-12-11T14:36:06-0500
_audit_creation_method            fapswitch 2.2
_symmetry_space_group_name_H-M    P1
_symmetry_Int_Tables_number       1
_space_group_crystal_system       triclinic
_cell_length_a                    14.183291
_cell_length_b                    16.497913
_cell_length_c                    7.026174
_cell_angle_alpha                 89.998944
_cell_angle_beta                  80.494599
_cell_angle_gamma                 89.999517
_cell_volume                      1621.51422661

loop_
_atom_site_label
_atom_site_type_symbol
_atom_type_description
_atom_site_fract_x
_atom_site_fract_y
_atom_site_fract_z
_atom_type_partial_charge
O1    O     O_R   0.337460 0.413110 0.524760 -0.535823
O2    O     O_R   0.662540 0.913110 0.475240 -0.535913
O3    O     O_R   0.348690 0.587910 0.191230 -0.548125
O4    O     O_R   0.651310 0.087910 0.808770 -0.548126
O5    O     O_R   0.166530 0.586890 0.082470 -0.533734
O6    O     O_R   0.833470 0.086890 0.917530 -0.533811
C1    C     C_R   0.369691 0.616285 0.353527 0.745184
C2    C     C_R   0.630326 0.116298 0.646470 0.745208
O7    O     O_R   0.348700 0.413830 0.191250 -0.507143
O8    O     O_R   0.651300 0.913830 0.808750 -0.507053
O9    O     O_R   0.166530 0.411570 0.082490 -0.536034
O10   O     O_R   0.833470 0.911570 0.917510 -0.535983
C3    C     C_R   0.372821 0.386996 0.353900 0.783741
C4    C     C_R   0.627195 0.886983 0.646094 0.783492
O11   O     O_R   0.337460 0.588430 0.524740 -0.543187
O12   O     O_R   0.662540 0.088430 0.475260 -0.543246
O13   O     O_3   0.192230 0.499460 0.407330 -0.402066
O14   O     O_3   0.807770 0.999460 0.592670 -0.402093
V1    V     V_3+5 0.263080 0.500100 0.108540 1.499158
V2    V     V_3+5 0.736920 0.000100 0.891460 1.499047
O15   O     O_R   0.155290 0.412090 0.756570 -0.549343
O16   O     O_R   0.844710 0.912090 0.243430 -0.549312
C5    C     C_R   0.127621 0.387524 0.935808 0.734971
C6    C     C_R   0.872373 0.887518 0.064203 0.735187
O17   O     O_R   0.155290 0.586170 0.756550 -0.565519
O18   O     O_R   0.844710 0.086170 0.243450 -0.565482
C7    C     C_R   0.130812 0.614397 0.931670 0.693322
C8    C     C_R   0.869168 0.114408 0.068339 0.693303
V3    V     V_3+5 0.240910 0.499900 0.616030 1.423111
V4    V     V_3+5 0.759090 0.999900 0.383970 1.422858
O19   O     O_3   0.311760 0.500540 0.867100 -0.343247
O20   O     O_3   0.688240 0.000540 0.132900 -0.343301
C9    C     C_3   0.086802 0.745456 0.114253 -0.398198
C10   C     C_3   0.913135 0.245512 0.885853 -0.398338
H1    H     H_    0.112445 0.716373 0.234435 0.147441
H2    H     H_    0.887354 0.216487 0.765721 0.147248
H3    H     H_    0.151872 0.779242 0.047877 0.178352
H4    H     H_    0.848116 0.279337 0.952340 0.178350
C11   C     C_3   0.006059 0.806985 0.185360 -0.290958
C12   C     C_3   0.993908 0.307009 0.814697 -0.290935
H5    H     H_    0.037901 0.866015 0.217596 0.167583
H6    H     H_    0.962095 0.366049 0.782431 0.167484
H7    H     H_    0.962292 0.785163 0.321695 0.191385
H8    H     H_    0.037660 0.285159 0.678389 0.191458
H9    H     H_    0.828527 0.735742 0.159602 0.180432
H10   H     H_    0.171485 0.235743 0.840624 0.180571
C13   C     C_3   0.949101 0.659113 0.010858 -0.068409
C14   C     C_3   0.050853 0.159132 0.989189 -0.068463
C15   C     C_3   0.059889 0.739151 0.770621 0.242952
C16   C     C_3   0.940069 0.239155 0.229438 0.242841
C17   C     C_3   0.057763 0.685769 0.959386 -0.074424
C18   C     C_3   0.942194 0.185791 0.040652 -0.074357
H11   H     H_    0.134835 0.744088 0.695947 0.056026
H12   H     H_    0.865115 0.244106 0.304071 0.055983
C19   C     C_3   0.943333 0.816716 0.025993 -0.033575
C20   C     C_3   0.056644 0.316729 0.974053 -0.033492
C21   C     C_3   0.883809 0.736801 0.027666 -0.414722
C22   C     C_3   0.116152 0.236812 0.972434 -0.414946
C23   C     C_3   0.015453 0.825154 0.827817 0.349897
C24   C     C_3   0.984537 0.325163 0.172270 0.349883
H13   H     H_    0.974800 0.846837 0.714597 0.092774
H14   H     H_    0.025207 0.346815 0.285497 0.092821
H15   H     H_    0.930260 0.622666 0.890327 0.134361
H16   H     H_    0.069669 0.122661 0.109722 0.134435
H17   H     H_    0.843680 0.738116 0.904268 0.173229
H18   H     H_    0.156211 0.238128 0.095908 0.173190
H19   H     H_    0.437061 0.692995 0.642630 0.167931
H20   H     H_    0.562789 0.192911 0.357442 0.168027
C25   C     C_2   0.434257 0.686377 0.342732 -0.317024
C26   C     C_2   0.565822 0.186431 0.657261 -0.317505
C27   C     C_2   0.460516 0.720112 0.501780 -0.192357
C28   C     C_2   0.539466 0.220112 0.498245 -0.192749
H21   H     H_    0.538206 0.786717 0.785777 0.161753
H22   H     H_    0.461775 0.286704 0.214241 0.161803
C29   C     C_2   0.557092 0.819475 0.650681 -0.361567
C30   C     C_2   0.442939 0.319500 0.349295 -0.361314
C31   C     C_2   0.520696 0.794178 0.492175 -0.075015
C32   C     C_2   0.479367 0.294231 0.507788 -0.075090
H23   H     H_    0.458345 0.711621 0.200454 0.136510
H24   H     H_    0.541890 0.211760 0.799502 0.136606
C33   C     C_2   0.537306 0.839535 0.306485 0.865264
O21   O     O_2   0.491194 0.900743 0.288871 -0.536281
O22   O     O_R   0.605179 0.812986 0.151961 -0.651860
H25   H     H_    0.639926 0.762389 0.183913 0.246307
C34   C     C_2   0.462876 0.339684 0.693339 0.865229
O23   O     O_2   0.508556 0.401214 0.710197 -0.536112
O24   O     O_R   0.395499 0.312938 0.848490 -0.652134
H26   H     H_    0.360974 0.262137 0.817077 0.246351
C35   C     C_2   0.925342 0.599682 0.173704 0.697662
O25   O     O_2   0.855756 0.609425 0.299942 -0.565328
O26   O     O_R   0.985268 0.533157 0.181822 -0.655832
H27   H     H_    0.977080 0.507768 0.314683 0.286284
C36   C     C_2   0.074620 0.099728 0.826300 0.697738
O27   O     O_2   0.144117 0.109551 0.699922 -0.565258
O28   O     O_R   0.014799 0.033132 0.818295 -0.655859
H28   H     H_    0.022850 0.007812 0.685406 0.286232
O29   O     O_3   0.000845 0.708152 0.643608 -0.592218
C37   C     C_3   0.040815 0.641960 0.536440 -0.181969
H29   H     H_    0.119081 0.646876 0.487382 0.139951
H30   H     H_    0.010753 0.643062 0.407912 0.176828
H31   H     H_    0.017477 0.583793 0.608232 0.145537
O30   O     O_3   0.999092 0.208120 0.356460 -0.592197
C38   C     C_3   0.959020 0.142010 0.463830 -0.181502
H32   H     H_    0.880726 0.146956 0.512662 0.139767
H33   H     H_    0.988968 0.143198 0.592490 0.176691
H34   H     H_    0.982403 0.083810 0.392260 0.145655
O31   O     O_3   0.087735 0.883187 0.848031 -0.558196
C39   C     C_3   0.153373 0.894730 0.674512 -0.255102
H35   H     H_    0.121228 0.885280 0.541966 0.108771
H36   H     H_    0.216902 0.855354 0.672747 0.141448
H37   H     H_    0.181343 0.957327 0.670925 0.219700
O32   O     O_3   0.912276 0.383241 0.152160 -0.558161
C40   C     C_3   0.846560 0.394662 0.325669 -0.255515
H38   H     H_    0.878563 0.384864 0.458398 0.108713
H39   H     H_    0.782919 0.355433 0.326819 0.141709
H40   H     H_    0.818787 0.457362 0.329708 0.219755

loop_
_geom_bond_atom_site_label_1
_geom_bond_atom_site_label_2
_ccdc_geom_bond_type
O24   H26   S    
C36   O27   D    
C19   C23   S    
O13   V3    S    
O28   H28   S    
O4    C2    A    
V1    O19   S    
O29   C37   S    
C5    C20   S    
C11   H5    S    
C34   O23   D    
C6    C19   S    
O9    V1    S    
C16   H12   S    
H22   C30   S    
C10   C12   S    
C33   O21   D    
C30   C32   D    
C14   C18   S    
O3    C1    A    
C13   H15   S    
C14   H16   S    
H19   C27   S    
O12   V4    S    
C39   H35   S    
C24   H14   S    
C25   C27   D    
O7    C3    A    
C28   C32   S    
C13   C35   S    
O13   V1    S    
O5    C7    A    
O7    V1    S    
O6    C8    A    
O8    V2    S    
C15   C17   S    
C16   C18   S    
O31   C39   S    
O3    V1    S    
O14   V4    S    
C35   O26   S    
C10   H2    S    
C40   H40   S    
C12   H6    S    
C2    O12   A    
H10   C22   S    
H21   C29   S    
O32   C40   S    
C33   O22   S    
C7    C17   S    
O11   V3    S    
C34   O24   S    
O17   V3    S    
C11   C19   S    
C23   H13   S    
C14   C36   S    
C26   H24   S    
O8    C4    A    
O26   H27   S    
C11   H7    S    
C1    O11   A    
C12   C20   S    
O15   V3    S    
C9    H3    S    
C9    C17   S    
C20   C24   S    
C24   O32   S    
C13   C21   S    
O22   H25   S    
C3    C30   S    
C31   C33   S    
H20   C28   S    
H9    C21   S    
O10   V2    S    
O1    V3    S    
C38   H33   S    
C9    C11   S    
C14   C22   S    
C29   C31   D    
C32   C34   S    
C16   O30   S    
C37   H30   S    
O15   C5    A    
O16   C6    A    
C25   H23   S    
O1    C3    A    
C27   C31   S    
C22   H18   S    
C40   H38   S    
V2    O20   S    
O16   V4    S    
C10   H4    S    
C10   C18   S    
C21   H17   S    
C15   C23   S    
C1    C25   S    
C13   C17   S    
C39   H36   S    
O18   V4    S    
O5    V1    S    
O17   C7    A    
C37   H31   S    
O6    V2    S    
O10   C6    A    
O18   C8    A    
C2    C26   S    
C39   H37   S    
O2    V4    S    
C16   C24   S    
C4    C29   S    
C19   C21   S    
V3    O19   S    
V4    O20   S    
C8    C18   S    
C15   H11   S    
O9    C5    A    
C9    H1    S    
C20   C22   S    
C38   H34   S    
O14   V2    S    
O30   C38   S    
O2    C4    A    
C23   O31   S    
C15   O29   S    
O4    V2    S    
C12   H8    S    
C36   O28   S    
C37   H29   S    
C38   H32   S    
C26   C28   D    
C35   O25   D    
C40   H39   S    
