data_mof_unit_25707.cif
_audit_creation_date              2012-12-10T20:49:43-0500
_audit_creation_method            fapswitch 2.2
_symmetry_space_group_name_H-M    P1
_symmetry_Int_Tables_number       1
_space_group_crystal_system       triclinic
_cell_length_a                    8.100286
_cell_length_b                    8.925683
_cell_length_c                    16.709302
_cell_angle_alpha                 89.74178
_cell_angle_beta                  83.826767
_cell_angle_gamma                 89.978904
_cell_volume                      1201.0747513

loop_
_atom_site_label
_atom_site_type_symbol
_atom_type_description
_atom_site_fract_x
_atom_site_fract_y
_atom_site_fract_z
_atom_type_partial_charge
C1    C     C_R   0.499705 0.782015 0.501041 0.944500
C2    C     C_R   0.499975 0.217962 0.500152 0.941289
C3    C     C_1   0.499620 0.934796 0.501080 -0.151932
C4    C     C_1   0.499810 0.065191 0.500712 -0.158634
C5    C     C_R   0.475047 0.503404 0.654115 0.903589
C6    C     C_R   0.525119 0.503603 0.346349 0.912775
C7    C     C_R   0.457110 0.548500 0.738350 -0.134343
C8    C     C_R   0.547819 0.522422 0.259896 -0.122924
C9    C     C_R   0.575428 0.649573 0.761085 -0.258113
C10   C     C_R   0.486517 0.411967 0.212332 -0.251115
C11   C     C_R   0.567635 0.701224 0.839134 -0.007597
C12   C     C_R   0.507122 0.425832 0.129125 0.010478
C13   C     C_R   0.439763 0.650878 0.896277 0.029956
C14   C     C_R   0.585570 0.554132 0.093614 0.023454
C15   C     C_R   0.310762 0.560209 0.873012 0.167247
C16   C     C_R   0.651614 0.664312 0.140856 0.191239
C17   C     C_R   0.320301 0.506341 0.793516 0.118164
C18   C     C_R   0.633700 0.648035 0.224819 0.095514
C19   C     C_2   0.462449 0.660471 0.981435 -0.157817
C20   C     C_2   0.584216 0.578991 0.007769 -0.163286
H1    H     H_    0.675718 0.688371 0.717621 0.180527
H2    H     H_    0.423662 0.314635 0.240301 0.166953
H3    H     H_    0.669162 0.514665 0.966347 0.195326
H4    H     H_    0.368338 0.713356 0.023340 0.201007
N1    N     N_1   0.926360 0.500000 0.499990 -0.011779
N2    N     N_1   0.073640 0.500000 0.500010 -0.011425
O1    O     O_R   0.363150 0.714660 0.500000 -0.613476
O2    O     O_R   0.636850 0.285340 0.500000 -0.609502
O3    O     O_R   0.636850 0.714660 0.500000 -0.607260
O4    O     O_R   0.363150 0.285340 0.500000 -0.610175
O5    O     O_R   0.346950 0.500000 0.615800 -0.596137
O6    O     O_R   0.653050 0.500000 0.384200 -0.594838
O7    O     O_R   0.620700 0.500000 0.615800 -0.617675
O8    O     O_R   0.379300 0.500000 0.384200 -0.609322
Zn1   Zn    Zn3+2 0.317220 0.500000 0.500010 1.029788
Zn2   Zn    Zn3+2 0.682780 0.500000 0.499990 1.028247
I1    I     I_    0.108687 0.498971 0.960431 -0.296561
I2    I     I_    0.776556 0.854609 0.084339 -0.249450
C21   C     C_1   0.443963 0.308700 0.081265 0.254648
N3    N     N_1   0.393731 0.214753 0.042962 -0.134944
C22   C     C_1   0.695817 0.802275 0.859664 0.249412
N4    N     N_1   0.798886 0.883380 0.875342 -0.122845
I3    I     I_    0.727422 0.817398 0.298232 -0.282911
I4    I     I_    0.138225 0.351294 0.760000 -0.270056

loop_
_geom_bond_atom_site_label_1
_geom_bond_atom_site_label_2
_ccdc_geom_bond_type
C1    C3    S    
C7    C17   A    
C6    O6    A    
C15   C17   A    
C14   C20   S    
C11   C13   A    
C22   N4    T    
C2    C4    S    
C19   C20   D    
C20   H3    S    
C2    O4    A    
C12   C21   S    
C1    O3    A    
C19   H4    S    
C17   I4    S    
C18   I3    S    
C10   H2    S    
C9    C11   A    
O3    Zn2   S    
C9    H1    S    
C10   C12   A    
O4    Zn1   S    
O6    Zn2   S    
C16   C18   A    
C12   C14   A    
C11   C22   S    
C14   C16   A    
C13   C15   A    
O5    Zn1   S    
C2    O2    A    
C13   C19   S    
N1    Zn2   S    
C3    C4    T    
C7    C9    A    
N2    Zn1   S    
O7    Zn2   S    
O2    Zn2   S    
C1    O1    A    
O8    Zn1   S    
C21   N3    T    
C5    C7    S    
C15   I1    S    
C6    C8    S    
O1    Zn1   S    
N1    N2    T    
C8    C10   A    
C8    C18   A    
C6    O8    A    
C16   I2    S    
C5    O5    A    
C5    O7    A    
