data_mof_unit_30368.cif
_audit_creation_date              2012-12-10T18:25:32-0500
_audit_creation_method            fapswitch 2.2
_symmetry_space_group_name_H-M    P1
_symmetry_Int_Tables_number       1
_space_group_crystal_system       triclinic
_cell_length_a                    15.045829
_cell_length_b                    13.95995
_cell_length_c                    19.199684
_cell_angle_alpha                 90.539918
_cell_angle_beta                  89.074808
_cell_angle_gamma                 88.819373
_cell_volume                      4031.10910164

loop_
_atom_site_label
_atom_site_type_symbol
_atom_type_description
_atom_site_fract_x
_atom_site_fract_y
_atom_site_fract_z
_atom_type_partial_charge
C1    C     C_R   0.326359 0.500940 0.500703 0.897533
C2    C     C_R   0.673627 0.498982 0.498623 0.897387
C3    C     C_R   0.816824 0.410594 0.500233 -0.232228
C4    C     C_R   0.183088 0.588409 0.493986 -0.233279
C5    C     C_R   0.909581 0.409466 0.501780 0.043703
C6    C     C_R   0.090570 0.588858 0.489272 0.043696
C7    C     C_R   0.953879 0.498042 0.494572 -0.038560
C8    C     C_R   0.046333 0.500115 0.495649 -0.038701
C9    C     C_R   0.905258 0.584710 0.485865 0.075718
C10   C     C_R   0.094950 0.413506 0.504508 0.074736
C11   C     C_R   0.958799 0.322517 0.509996 -0.122165
C12   C     C_R   0.041456 0.675403 0.479179 -0.121717
C13   C     C_R   0.052397 0.325522 0.512422 0.373764
C14   C     C_R   0.947964 0.672170 0.475845 0.371414
C15   C     C_R   0.552006 0.795659 0.453139 -0.043934
C16   C     C_R   0.446174 0.204502 0.545549 -0.045248
C17   C     C_R   0.448052 0.799127 0.546918 -0.058566
C18   C     C_R   0.551644 0.200963 0.452868 -0.058567
C19   C     C_R   0.443969 0.900354 0.547240 -0.034133
C20   C     C_R   0.554212 0.099761 0.451497 -0.034468
C21   C     C_R   0.553002 0.896716 0.450921 -0.037829
C22   C     C_R   0.444392 0.103462 0.547389 -0.035693
C23   C     C_R   0.498693 0.949432 0.499190 0.046837
C24   C     C_R   0.499427 0.050707 0.499585 0.047632
C25   C     C_R   0.387479 0.952929 0.594359 -0.046681
C26   C     C_R   0.608424 0.047194 0.402773 -0.047518
C27   C     C_R   0.607424 0.945469 0.402473 -0.050998
C28   C     C_R   0.387688 0.054770 0.594301 -0.050872
C29   C     C_R   0.499893 0.499532 0.365301 0.887347
C30   C     C_R   0.498482 0.500246 0.634756 0.885668
C31   C     C_R   0.497963 0.583544 0.252488 -0.249202
C32   C     C_R   0.495707 0.412122 0.745256 -0.247681
C33   C     C_R   0.469742 0.584007 0.747529 -0.238712
C34   C     C_R   0.484391 0.410786 0.254810 -0.233933
C35   C     C_R   0.490041 0.582925 0.180230 0.010803
C36   C     C_R   0.483540 0.407962 0.817102 0.006427
C37   C     C_R   0.456652 0.582109 0.819538 0.002395
C38   C     C_R   0.474306 0.408242 0.183066 0.001259
C39   C     C_R   0.477611 0.494462 0.145556 -0.002488
C40   C     C_R   0.464951 0.493739 0.854893 -0.012468
C41   C     C_R   0.495186 0.498002 0.289695 -0.064772
C42   C     C_R   0.489589 0.499471 0.710433 -0.065533
C43   C     C_R   0.465923 0.491975 0.930775 0.285681
C44   C     C_R   0.471618 0.491134 0.070500 0.278254
C45   C     C_R   0.813280 0.582962 0.486900 -0.185321
C46   C     C_R   0.186814 0.415912 0.506342 -0.182418
C47   C     C_R   0.769503 0.497133 0.495289 -0.122542
C48   C     C_R   0.230473 0.502260 0.500722 -0.121802
H1    H     H_    0.507650 0.650924 0.279585 0.157509
H2    H     H_    0.509005 0.346159 0.716321 0.157344
H3    H     H_    0.463737 0.651648 0.720491 0.163768
H4    H     H_    0.480936 0.344441 0.283578 0.166866
H5    H     H_    0.774975 0.648964 0.481372 0.216681
H6    H     H_    0.225139 0.350077 0.512595 0.218389
H7    H     H_    0.780490 0.344790 0.503782 0.171827
H8    H     H_    0.219208 0.654473 0.491875 0.171411
H9    H     H_    0.592971 0.751896 0.418172 0.152726
H10   H     H_    0.404384 0.248638 0.579559 0.154195
H11   H     H_    0.410609 0.757830 0.584012 0.147151
H12   H     H_    0.589565 0.242394 0.416181 0.148204
N1    N     N_R   0.537161 0.447214 0.032311 -0.171034
N2    N     N_R   0.399572 0.534239 0.969227 -0.180624
N3    N     N_R   0.534489 0.447949 0.963344 -0.158271
N4    N     N_R   0.402608 0.534501 0.038258 -0.166859
N5    N     N_R   0.500000 0.750030 0.500000 -0.110227
N6    N     N_R   0.500000 0.249970 0.500000 -0.110883
O1    O     O_R   0.367850 0.580280 0.500020 -0.625965
O2    O     O_R   0.632150 0.419720 0.499980 -0.625852
O3    O     O_R   0.632150 0.580280 0.499980 -0.625836
O4    O     O_R   0.367850 0.419720 0.500020 -0.626712
O5    O     O_R   0.499990 0.580300 0.398140 -0.627246
O6    O     O_R   0.500010 0.419700 0.601860 -0.627729
O7    O     O_R   0.500010 0.580300 0.601860 -0.623281
O8    O     O_R   0.499990 0.419700 0.398140 -0.625260
Zn1   Zn    Zn3+2 0.500000 0.607200 0.500000 0.945912
Zn2   Zn    Zn3+2 0.500000 0.392800 0.500000 0.945283
C49   C     C_R   0.497925 0.675243 0.142824 0.117095
C50   C     C_R   0.562409 0.686109 0.089763 -0.153222
C51   C     C_R   0.573330 0.774930 0.058067 -0.114212
C52   C     C_R   0.520407 0.853704 0.079110 -0.108928
C53   C     C_R   0.456074 0.843680 0.131638 -0.149143
C54   C     C_R   0.444889 0.754990 0.163510 -0.160583
H13   H     H_    0.605908 0.626707 0.074250 0.134677
H14   H     H_    0.623456 0.782902 0.017592 0.122944
H15   H     H_    0.529239 0.922479 0.054657 0.106298
H16   H     H_    0.415221 0.904787 0.147995 0.124558
H17   H     H_    0.395284 0.748596 0.204622 0.125748
C55   C     C_R   0.488752 0.312387 0.850561 0.121776
C56   C     C_R   0.562751 0.251099 0.837916 -0.153350
C57   C     C_R   0.565618 0.159232 0.866286 -0.142275
C58   C     C_R   0.494233 0.127248 0.906551 -0.106049
C59   C     C_R   0.420119 0.187248 0.918805 -0.105148
C60   C     C_R   0.417861 0.280004 0.892060 -0.154090
H18   H     H_    0.618160 0.274483 0.806110 0.125051
H19   H     H_    0.622858 0.112520 0.856530 0.122348
H20   H     H_    0.496170 0.055887 0.927991 0.105147
H21   H     H_    0.363923 0.161472 0.948392 0.118988
H22   H     H_    0.359554 0.325306 0.901624 0.119056
C61   C     C_R   0.439392 0.674361 0.856402 0.125699
C62   C     C_R   0.354427 0.697147 0.883855 -0.108041
C63   C     C_R   0.339206 0.783205 0.920328 -0.140079
C64   C     C_R   0.407425 0.848966 0.926716 -0.102521
C65   C     C_R   0.491346 0.828159 0.897420 -0.141092
C66   C     C_R   0.507559 0.740900 0.862686 -0.154413
H23   H     H_    0.300570 0.647550 0.878008 0.125204
H24   H     H_    0.274073 0.799671 0.942589 0.120639
H25   H     H_    0.395142 0.916052 0.954255 0.107488
H26   H     H_    0.544136 0.879165 0.902304 0.112952
H27   H     H_    0.573146 0.724968 0.840970 0.126709
C67   C     C_R   0.455861 0.314949 0.149533 0.123051
C68   C     C_R   0.373516 0.299673 0.118363 -0.129409
C69   C     C_R   0.353868 0.209435 0.091225 -0.141851
C70   C     C_R   0.416552 0.134306 0.094270 -0.116052
C71   C     C_R   0.498902 0.149257 0.124704 -0.133850
C72   C     C_R   0.518370 0.239170 0.152623 -0.143266
H28   H     H_    0.324057 0.357017 0.116345 0.127915
H29   H     H_    0.289987 0.197723 0.067834 0.117372
H30   H     H_    0.401361 0.064649 0.072856 0.105405
H31   H     H_    0.547314 0.091015 0.127051 0.116136
H32   H     H_    0.581861 0.250129 0.176752 0.136322
C73   C     C_R   0.914897 0.228014 0.514746 0.097662
C74   C     C_R   0.860446 0.206378 0.572415 -0.185865
C75   C     C_R   0.825619 0.114733 0.579346 -0.146888
C76   C     C_R   0.846699 0.043412 0.529850 -0.127405
C77   C     C_R   0.902030 0.063857 0.473002 -0.148350
C78   C     C_R   0.935321 0.155875 0.465046 -0.157877
H33   H     H_    0.845785 0.260161 0.612208 0.136258
H34   H     H_    0.783282 0.098624 0.623631 0.132865
H35   H     H_    0.820568 0.972228 0.535727 0.149532
H36   H     H_    0.919496 0.008454 0.435138 0.141508
H37   H     H_    0.978688 0.170481 0.421009 0.149519
C79   C     C_R   0.085240 0.769922 0.474045 0.097628
C80   C     C_R   0.062146 0.843598 0.521851 -0.152360
C81   C     C_R   0.095701 0.935361 0.513409 -0.149780
C82   C     C_R   0.154222 0.954012 0.458177 -0.125603
C83   C     C_R   0.178134 0.881112 0.410657 -0.145098
C84   C     C_R   0.142911 0.789699 0.417912 -0.184382
H38   H     H_    0.016488 0.830380 0.564717 0.149492
H39   H     H_    0.075757 0.992002 0.549566 0.140062
H40   H     H_    0.180578 0.025045 0.451976 0.150968
H41   H     H_    0.222964 0.895806 0.367599 0.133647
H42   H     H_    0.159850 0.734630 0.379573 0.138171
O9    O     O_3   0.104676 0.244032 0.522511 -0.807298
H43   H     H_    0.069765 0.194479 0.546270 0.335485
O10   O     O_3   0.896049 0.753130 0.463192 -0.810481
H44   H     H_    0.931137 0.800283 0.436974 0.334741
C85   C     C_R   0.326590 0.902393 0.643117 0.097568
C86   C     C_R   0.332346 0.916809 0.715423 -0.119153
C87   C     C_R   0.271119 0.874813 0.760581 -0.122654
C88   C     C_R   0.205976 0.815038 0.734426 -0.125367
C89   C     C_R   0.200834 0.798664 0.662748 -0.131740
C90   C     C_R   0.260016 0.843184 0.617151 -0.177921
H45   H     H_    0.383029 0.962127 0.736656 0.133720
H46   H     H_    0.273680 0.889486 0.815798 0.136314
H47   H     H_    0.159240 0.781836 0.769675 0.121264
H48   H     H_    0.150446 0.752239 0.642475 0.137569
H49   H     H_    0.254486 0.831164 0.561633 0.156928
C91   C     C_R   0.666712 0.097631 0.351982 0.108328
C92   C     C_R   0.735852 0.155092 0.375632 -0.178398
C93   C     C_R   0.792009 0.200376 0.328127 -0.130676
C94   C     C_R   0.780814 0.187083 0.256649 -0.112439
C95   C     C_R   0.712641 0.129628 0.232589 -0.155189
C96   C     C_R   0.654880 0.086223 0.279914 -0.123953
H50   H     H_    0.745309 0.165655 0.430889 0.157912
H51   H     H_    0.844380 0.245546 0.346708 0.136776
H52   H     H_    0.824822 0.221478 0.219899 0.124953
H53   H     H_    0.704205 0.119262 0.177183 0.124595
H54   H     H_    0.601524 0.043060 0.260452 0.129864
C97   C     C_R   0.665318 0.890360 0.352301 0.104777
C98   C     C_R   0.628047 0.841108 0.296090 -0.197559
C99   C     C_R   0.682987 0.790499 0.248591 -0.130852
C100  C     C_R   0.775147 0.789410 0.256438 -0.118258
C101  C     C_R   0.812606 0.838622 0.312051 -0.105237
C102  C     C_R   0.757883 0.888481 0.360125 -0.086886
H55   H     H_    0.556731 0.842125 0.289167 0.133538
H56   H     H_    0.654309 0.752301 0.205602 0.152243
H57   H     H_    0.817520 0.750511 0.219383 0.123506
H58   H     H_    0.884029 0.838118 0.317823 0.123445
H59   H     H_    0.787267 0.925829 0.403290 0.130571
C103  C     C_R   0.324501 0.109953 0.640655 0.102275
C104  C     C_R   0.232682 0.105285 0.629751 -0.082936
C105  C     C_R   0.172705 0.156016 0.673290 -0.106829
C106  C     C_R   0.204109 0.213877 0.726829 -0.119469
C107  C     C_R   0.295409 0.219732 0.737601 -0.126109
C108  C     C_R   0.355583 0.166756 0.695593 -0.193314
H60   H     H_    0.208002 0.062150 0.587609 0.128923
H61   H     H_    0.101922 0.151027 0.665298 0.120917
H62   H     H_    0.157734 0.254335 0.759884 0.121644
H63   H     H_    0.319279 0.265748 0.778307 0.141321
H64   H     H_    0.426184 0.171110 0.705018 0.135123

loop_
_geom_bond_atom_site_label_1
_geom_bond_atom_site_label_2
_ccdc_geom_bond_type
C100  H57   S    
C95   H53   S    
C84   H42   S    
C9    C45   A    
C63   C64   A    
C15   H9    S    
C97   C98   A    
C19   C23   A    
C85   C86   A    
C81   H39   S    
O6    Zn2   S    
C102  H59   S    
O10   H44   S    
C57   C58   A    
O1    Zn1   S    
C43   N3    A    
C75   C76   A    
C101  C102  A    
C44   N4    A    
C25   C28   A    
C14   O10   S    
C62   H23   S    
C52   H15   S    
C77   C78   A    
O8    Zn2   S    
C33   C42   A    
C49   C54   A    
C5    C11   A    
C37   C40   A    
C2    O2    A    
C92   C93   A    
C6    C12   A    
C66   H27   S    
C98   C99   A    
O9    H43   S    
C15   N5    A    
C104  C105  A    
C74   H33   S    
C107  C108  A    
C56   H18   S    
N1    N3    A    
C105  C106  A    
C62   C63   A    
N2    N4    A    
C17   C19   A    
C58   H20   S    
C67   C68   A    
C3    H7    S    
C77   H36   S    
C40   C43   S    
C20   C24   A    
C101  H58   S    
C79   C80   A    
C10   C46   A    
C89   C90   A    
O3    Zn1   S    
C65   H26   S    
C38   C67   S    
C2    O3    A    
C12   C79   S    
C27   C97   S    
C18   C20   A    
C71   H31   S    
C61   C66   A    
C21   C27   A    
C45   H5    S    
C80   H38   S    
C22   C28   A    
C4    H8    S    
O7    Zn1   S    
C11   C73   S    
C34   C41   A    
C31   H1    S    
C50   H13   S    
C69   C70   A    
C18   N6    A    
C59   H21   S    
C94   C95   A    
C98   H55   S    
C45   C47   A    
C82   H40   S    
C46   C48   A    
C82   C83   A    
C38   C39   A    
C86   C87   A    
C4    C6    A    
C58   C59   A    
C5    C7    A    
C30   O7    A    
C55   C60   A    
C50   C51   A    
C52   C53   A    
C6    C8    A    
C29   O8    A    
C79   C84   A    
C49   C50   A    
C35   C49   S    
C95   C96   A    
C53   C54   A    
C51   C52   A    
C35   C39   A    
C87   H46   S    
C106  C107  A    
C83   H41   S    
C80   C81   A    
C61   C62   A    
C92   H50   S    
C36   C40   A    
C97   C102  A    
N6    Zn2   S    
C46   H6    S    
C26   C27   A    
C9    C14   A    
C64   H25   S    
C25   C85   S    
C16   H10   S    
C89   H48   S    
C28   C103  S    
C99   C100  A    
C32   H2    S    
C73   C74   A    
C81   C82   A    
C91   C96   A    
C17   H11   S    
C18   H12   S    
C12   C14   A    
C88   H47   S    
C21   C23   A    
O4    Zn2   S    
C91   C92   A    
C2    C47   S    
C22   C24   A    
C33   H3    S    
C86   H45   S    
C100  C101  A    
C32   C36   A    
C37   C61   S    
C103  C104  A    
C70   C71   A    
C4    C48   A    
C63   H24   S    
C7    C9    A    
C90   H49   S    
C16   C22   A    
C31   C41   A    
C68   C69   A    
C29   C41   S    
C34   C38   A    
C17   N5    A    
C53   H16   S    
C83   C84   A    
C3    C5    A    
C10   C13   A    
C57   H19   S    
C30   O6    A    
C104  H60   S    
C1    C48   S    
C71   C72   A    
C39   C44   S    
C44   N1    A    
O2    Zn2   S    
C99   H56   S    
C34   H4    S    
C1    O4    A    
N5    Zn1   S    
C69   H29   S    
C68   H28   S    
C93   C94   A    
C93   H51   S    
C85   C90   A    
C74   C75   A    
C96   H54   S    
C73   C78   A    
C36   C55   S    
C106  H62   S    
O5    Zn1   S    
C11   C13   A    
C75   H34   S    
C51   H14   S    
C20   C26   A    
C78   H37   S    
C60   H22   S    
C3    C47   A    
C59   C60   A    
C1    O1    A    
C108  H64   S    
C76   H35   S    
C26   C91   S    
C31   C35   A    
C105  H61   S    
C13   O9    S    
C64   C65   A    
C19   C25   A    
C33   C37   A    
C7    C8    A    
C103  C108  A    
C23   C24   A    
C70   H30   S    
C15   C21   A    
C16   N6    A    
C55   C56   A    
C8    C10   A    
C72   H32   S    
C65   C66   A    
C32   C42   A    
C88   C89   A    
C30   C42   S    
C56   C57   A    
C87   C88   A    
C67   C72   A    
C107  H63   S    
C94   H52   S    
C54   H17   S    
C43   N2    A    
C76   C77   A    
C29   O5    A    
