data_mof_unit_27655.cif
_audit_creation_date              2013-03-05T16:00:28-0500
_audit_creation_method            fapswitch 2.2
_symmetry_space_group_name_H-M    P1
_symmetry_Int_Tables_number       1
_space_group_crystal_system       triclinic
_cell_length_a                    12.598921
_cell_length_b                    13.165219
_cell_length_c                    27.613878
_cell_angle_alpha                 91.887392
_cell_angle_beta                  102.981739
_cell_angle_gamma                 83.136918
_cell_volume                      4431.11456877

loop_
_atom_site_label
_atom_site_type_symbol
_atom_site_description
_atom_site_fract_x
_atom_site_fract_y
_atom_site_fract_z
_atom_type_partial_charge
O1    O     O_R   0.366730 0.627160 0.487740 -0.612359
O2    O     O_R   0.544830 0.662520 0.504140 -0.620933
C1    C     C_R   0.440112 0.689999 0.489496 0.879582
O3    O     O_R   0.410970 0.482310 0.563040 -0.617629
O4    O     O_R   0.589070 0.517670 0.579450 -0.623716
C2    C     C_R   0.501335 0.500909 0.594022 0.887174
Zn1   Zn    Zn3+2 0.381080 0.476390 0.489050 0.949641
Zn2   Zn    Zn3+2 0.618920 0.523610 0.510950 0.938903
O5    O     O_R   0.455170 0.337480 0.495860 -0.618229
O6    O     O_R   0.633270 0.372840 0.512260 -0.638056
O7    O     O_R   0.410930 0.482330 0.420550 -0.618060
O8    O     O_R   0.589030 0.517690 0.436960 -0.643647
C3    C     C_R   0.560202 0.308630 0.505576 0.868479
C4    C     C_R   0.498610 0.499448 0.405958 0.852144
C5    C     C_R   0.502222 0.611012 0.824043 0.562054
O9    O     O_2   0.467805 0.694857 0.795482 -0.480115
N1    N     N_R   0.525279 0.519270 0.801870 -0.363305
C6    C     C_R   0.564988 0.432632 0.828779 0.487657
C7    C     C_R   0.611949 0.506751 0.731614 -0.101265
C8    C     C_R   0.606972 0.501686 0.681030 -0.211800
C9    C     C_R   0.408411 0.512858 0.664853 -0.257484
C10   C     C_R   0.412487 0.518163 0.715947 0.052100
C11   C     C_R   0.515791 0.514663 0.749354 0.270664
C12   C     C_R   0.545770 0.526138 0.903815 -0.091755
C13   C     C_R   0.514246 0.617331 0.876146 -0.153171
C14   C     C_R   0.502908 0.711476 0.901655 0.314612
C15   C     C_R   0.576313 0.434483 0.880155 -0.010810
C16   C     C_R   0.505329 0.504391 0.647319 -0.050661
H1    H     H_    0.329611 0.515591 0.638846 0.153765
C17   C     C_R   0.494173 0.500107 0.352648 -0.046223
C18   C     C_R   0.496576 0.613412 0.027431 0.058432
C19   C     C_R   0.554998 0.427697 0.029588 0.034404
C20   C     C_R   0.518343 0.518555 0.052784 0.075904
C21   C     C_R   0.444748 0.697667 0.049736 -0.202863
C22   C     C_R   0.433292 0.694183 0.098427 -0.146860
C23   C     C_R   0.463415 0.603225 0.125056 -0.027327
C24   C     C_R   0.499890 0.513849 0.101375 -0.059116
C25   C     C_R   0.516144 0.419522 0.126068 -0.011905
C26   C     C_R   0.504554 0.417743 0.175207 0.492860
N2    N     N_R   0.479060 0.507004 0.198867 -0.354549
C27   C     C_R   0.455229 0.598439 0.174594 0.507961
C28   C     C_R   0.400139 0.466282 0.268095 -0.086692
C29   C     C_R   0.405433 0.463881 0.318880 -0.206126
C30   C     C_R   0.577439 0.538598 0.334985 -0.201493
C31   C     C_R   0.571431 0.541628 0.284202 -0.125124
C32   C     C_R   0.482976 0.505413 0.250802 0.311808
O10   O     O_2   0.424516 0.684218 0.198498 -0.554053
C33   C     C_R   0.516917 0.618530 0.978934 -0.045737
C34   C     C_R   0.546723 0.525908 0.955021 0.051106
C35   C     C_R   0.578231 0.432706 0.981917 0.001877
C36   C     C_R   0.511834 0.712577 0.953548 -0.145275
H2    H     H_    0.340387 0.433486 0.331652 0.178781
H3    H     H_    0.331854 0.438036 0.242175 0.150407
H4    H     H_    0.397559 0.762341 0.114574 0.191129
H5    H     H_    0.408191 0.766336 0.029700 0.160472
O11   O     O_2   0.591925 0.344598 0.805555 -0.556927
C37   C     C_R   0.623502 0.348095 0.908366 -0.174455
H6    H     H_    0.682909 0.495289 0.668378 0.162895
H7    H     H_    0.690954 0.504574 0.757353 0.143279
H8    H     H_    0.659949 0.282137 0.890876 0.195220
C38   C     C_R   0.556912 0.333311 0.052930 -0.212715
C39   C     C_R   0.541401 0.329401 0.100938 -0.156222
O12   O     O_2   0.520255 0.328027 0.199450 -0.594673
C40   C     C_R   0.632018 0.348258 0.959562 -0.022623
H9    H     H_    0.566862 0.260943 0.034103 0.157595
H10   H     H_    0.646587 0.567019 0.360275 0.178887
H11   H     H_    0.547818 0.255292 0.117972 0.183924
H12   H     H_    0.635896 0.571313 0.270691 0.134662
C41   C     C_R   0.729121 0.057282 0.496202 -0.169683
H13   H     H_    0.767862 0.210298 0.512895 0.154828
H14   H     H_    0.814042 0.029744 0.498738 0.191238
C42   C     C_R   0.594493 0.199495 0.503576 -0.041783
C43   C     C_R   0.293128 0.832965 0.467427 -0.240230
C44   C     C_R   0.258392 0.936498 0.458876 0.066335
C45   C     C_R   0.337118 0.004862 0.463047 -0.203320
C46   C     C_R   0.450423 0.968250 0.471090 0.068640
C47   C     C_R   0.480214 0.862635 0.468161 0.028564
C48   C     C_R   0.535302 0.032311 0.482128 0.047986
C49   C     C_R   0.646008 0.992320 0.483080 0.037784
C50   C     C_R   0.669404 0.889527 0.469442 0.271013
C51   C     C_R   0.585256 0.827132 0.460271 -0.254512
C52   C     C_R   0.513150 0.134250 0.495004 -0.214969
C53   C     C_R   0.703301 0.160695 0.505368 -0.238618
C54   C     C_R   0.404102 0.795969 0.473934 -0.110322
H15   H     H_    0.431964 0.164545 0.498605 0.156150
H16   H     H_    0.233042 0.781417 0.469033 0.172069
H17   H     H_    0.307800 0.084962 0.457197 0.140394
H18   H     H_    0.603748 0.749959 0.447456 0.210929
C55   C     C_R   0.081338 0.367371 0.418585 0.216844
H19   H     H_    0.250842 0.350879 0.414597 0.165949
N3    N     N_R   0.222180 0.444690 0.474320 -0.125897
C56   C     C_R   0.804035 0.625137 0.561731 0.036236
C57   C     C_R   0.910623 0.650588 0.575196 -0.173148
C58   C     C_R   0.989595 0.603785 0.551018 -0.147226
C59   C     C_R   0.962461 0.530010 0.513158 0.051751
C60   C     C_R   0.853005 0.506501 0.501283 0.235273
C61   C     C_R   0.039186 0.479161 0.486807 -0.049076
C62   C     C_R   0.002693 0.414459 0.444933 -0.012147
C63   C     C_R   0.890128 0.398915 0.432118 -0.060304
C64   C     C_R   0.822199 0.435638 0.463756 -0.273954
C65   C     C_R   0.151521 0.491631 0.500385 -0.055843
C66   C     C_R   0.190268 0.385006 0.434382 -0.071317
N4    N     N_R   0.776980 0.554780 0.525420 -0.130841
H20   H     H_    0.185625 0.538369 0.531331 0.132567
H21   H     H_    0.742285 0.661480 0.580266 0.137936
H22   H     H_    0.070056 0.628475 0.562192 0.130362
H23   H     H_    0.931874 0.707095 0.604036 0.151536
H24   H     H_    0.742829 0.410596 0.456940 0.213069
C67   C     C_R   0.712383 0.267937 0.988567 0.090855
C68   C     C_R   0.711537 0.164173 0.974589 -0.165880
C69   C     C_R   0.789477 0.089742 0.001069 -0.115323
C70   C     C_R   0.868088 0.117758 0.041983 -0.126428
C71   C     C_R   0.869737 0.220490 0.056177 -0.127635
C72   C     C_R   0.792850 0.295423 0.029459 -0.121469
H25   H     H_    0.650169 0.140764 0.943454 0.160261
H26   H     H_    0.788562 0.010178 0.989984 0.160748
H27   H     H_    0.927909 0.059879 0.062600 0.135846
H28   H     H_    0.931033 0.242171 0.087739 0.141820
H29   H     H_    0.796189 0.374862 0.040557 0.133825
N5    N     N_R   0.777529 0.846044 0.465733 0.192237
O13   O     O_R   0.789763 0.785983 0.428522 -0.423383
O14   O     O_R   0.859257 0.847891 0.503988 -0.420448
C73   C     C_R   0.308609 0.528520 0.733357 0.112424
C74   C     C_R   0.225098 0.607344 0.714837 -0.107457
C75   C     C_R   0.126650 0.617277 0.730849 -0.121071
C76   C     C_R   0.110607 0.548596 0.765335 -0.099453
C77   C     C_R   0.192754 0.469514 0.783645 -0.127140
C78   C     C_R   0.291179 0.459076 0.767597 -0.153305
H30   H     H_    0.236533 0.661504 0.688280 0.137193
H31   H     H_    0.062813 0.678277 0.716527 0.135451
H32   H     H_    0.034361 0.556396 0.777709 0.134063
H33   H     H_    0.179915 0.415882 0.810072 0.144473
H34   H     H_    0.352860 0.396075 0.781352 0.161894
C79   C     C_R   0.139719 0.971586 0.445857 0.115919
C80   C     C_R   0.070310 0.919473 0.408751 -0.129938
C81   C     C_R   0.957832 0.950512 0.396451 -0.025287
C82   C     C_R   0.913565 0.033183 0.421240 -0.046072
C83   C     C_R   0.981617 0.085137 0.458503 -0.071894
C84   C     C_R   0.094587 0.055006 0.470606 -0.097016
H35   H     H_    0.103438 0.855183 0.389061 0.135161
H36   H     H_    0.904909 0.910303 0.367773 0.147759
H37   H     H_    0.826240 0.056167 0.411655 0.112540
H38   H     H_    0.947054 0.149383 0.477671 0.112811
H39   H     H_    0.146343 0.095805 0.499523 0.118865
C85   C     C_R   0.835553 0.352664 0.384647 0.183326
C86   C     C_R   0.775835 0.269208 0.384889 -0.141081
C87   C     C_R   0.723075 0.226673 0.340226 -0.131499
C88   C     C_R   0.728070 0.268060 0.294993 -0.041898
C89   C     C_R   0.783205 0.353818 0.294344 -0.097082
C90   C     C_R   0.835396 0.397052 0.338996 -0.090604
H40   H     H_    0.770807 0.236841 0.419673 0.111229
H41   H     H_    0.678661 0.161370 0.340697 0.138187
H42   H     H_    0.688794 0.233855 0.260491 0.178025
H43   H     H_    0.785121 0.387032 0.259257 0.135812
H44   H     H_    0.876954 0.464142 0.338058 0.136029
N6    N     N_R   0.055271 0.300910 0.376530 0.194612
O15   O     O_R   0.028083 0.210819 0.382479 -0.398623
O16   O     O_R   0.084769 0.319562 0.335766 -0.411125
N7    N     N_R   0.494448 0.806270 0.876199 0.237177
O17   O     O_R   0.398646 0.852524 0.855440 -0.358848
O18   O     O_R   0.582640 0.846371 0.873873 -0.364859
C91   C     C_R   0.536897 0.809215 0.981290 0.133427
C92   C     C_R   0.635174 0.810611 0.017400 -0.114634
C93   C     C_R   0.658353 0.899801 0.044641 -0.147952
C94   C     C_R   0.584123 0.988484 0.035929 -0.111468
C95   C     C_R   0.486612 0.988211 0.999908 -0.141799
C96   C     C_R   0.462719 0.899050 0.972761 -0.103207
H45   H     H_    0.693471 0.742433 0.024588 0.133074
H46   H     H_    0.734050 0.900258 0.072453 0.137199
H47   H     H_    0.602302 0.057486 0.057024 0.135689
H48   H     H_    0.429043 0.056890 0.993334 0.140885
H49   H     H_    0.385193 0.899258 0.946180 0.166372

loop_
_geom_bond_atom_site_label_1
_geom_bond_atom_site_label_2
_geom_bond_distance
_ccdc_geom_bond_type
C82   H37   1.080255 S    
C50   N5    1.437494 S    
C57   C58   1.392910 A    
C55   C66   1.388600 A    
C35   C40   1.427945 A    
C43   C44   1.391883 A    
C30   H10   1.083508 S    
C59   C60   1.413206 A    
C12   C15   1.407481 A    
C87   C88   1.396175 A    
C89   H43   1.082344 S    
C61   C62   1.436628 A    
C93   H46   1.082313 S    
C89   C90   1.398432 A    
C73   C74   1.406305 A    
C31   C32   1.398613 A    
N5    O13   1.301284 A    
Zn1   O7    2.015417 S    
C94   C95   1.396589 A    
C39   H11   1.083520 S    
C23   C24   1.406565 A    
N3    C65   1.348908 A    
C19   C38   1.413755 A    
C71   C72   1.397988 A    
C87   H41   1.082318 S    
C83   H38   1.082226 S    
C28   H3    1.083054 S    
C70   H27   1.082283 S    
O7    C4    1.303427 A    
C29   H2    1.083352 S    
C5    C13   1.413173 A    
C5    O9    1.348258 S    
C60   C64   1.391766 A    
C12   C34   1.411455 A    
C91   C96   1.408169 A    
C36   C91   1.492772 S    
C5    N1    1.365808 A    
C21   C22   1.386947 A    
C28   C32   1.396876 A    
C41   H14   1.075344 S    
O5    C3    1.301698 A    
C68   C69   1.397778 A    
H19   C66   1.082576 S    
C56   N4    1.356571 A    
C77   H33   1.082369 S    
C75   H31   1.082517 S    
C33   C36   1.430587 A    
C2    C16   1.460641 S    
C92   C93   1.398189 A    
N7    O18   1.300738 A    
C69   H26   1.082237 S    
C43   C54   1.398034 A    
C72   H29   1.083072 S    
C6    O11   1.350744 S    
C75   C76   1.397200 A    
C63   C85   1.484741 S    
C21   H5    1.074464 S    
C9    C10   1.399968 A    
C22   H4    1.083480 S    
C17   C30   1.403017 A    
C23   C27   1.398733 A    
C38   C39   1.386213 A    
C4    C17   1.460813 S    
O3    Zn1   1.993288 S    
C70   C71   1.396934 A    
N5    O14   1.300914 A    
C85   C86   1.404857 A    
C80   H35   1.083235 S    
C64   H24   1.064993 S    
C44   C45   1.400830 A    
C42   C53   1.395161 A    
C80   C81   1.394641 A    
C25   C26   1.398224 A    
C46   C47   1.400806 A    
O3    C2    1.305104 A    
C15   C37   1.393750 A    
C26   N2    1.365457 A    
C48   C49   1.425562 A    
C81   C82   1.393381 A    
C55   N6    1.432623 S    
C8    C16   1.401219 A    
C47   C54   1.412197 A    
C7    H7    1.083259 S    
C13   C14   1.413571 A    
C9    H1    1.084216 S    
C20   C24   1.416804 A    
C71   H28   1.082300 S    
C86   H40   1.081175 S    
O1    C1    1.304431 A    
C22   C23   1.393815 A    
N6    O15   1.298577 A    
N2    C32   1.424618 S    
C45   C46   1.421143 A    
C24   C25   1.407595 A    
C41   C53   1.389927 A    
C93   C94   1.397179 A    
C84   H39   1.082984 S    
C48   C52   1.388902 A    
N7    O17   1.301062 A    
C47   C51   1.411510 A    
Zn2   O8    1.993288 S    
Zn1   N3    2.042092 S    
C31   H12   1.083142 S    
C18   C20   1.419284 A    
N1    C6    1.362311 A    
C27   O10   1.349791 S    
C18   C21   1.413756 A    
C14   N7    1.433626 S    
N1    C11   1.427933 S    
C12   C13   1.411749 A    
H13   C53   1.083205 S    
C19   C35   1.416466 A    
C96   H49   1.081745 S    
C67   C72   1.407202 A    
C73   C78   1.405796 A    
C45   H17   1.079770 S    
N2    C27   1.365587 A    
C9    C16   1.402644 A    
O8    C4    1.304611 A    
C62   C63   1.420394 A    
C65   H20   1.075670 S    
C18   C33   1.424065 A    
C95   C96   1.398411 A    
C17   C29   1.405955 A    
C41   C49   1.407967 A    
C88   H42   1.080992 S    
N3    C66   1.347039 A    
C8    H6    1.083268 S    
C77   C78   1.398259 A    
C79   C84   1.404425 A    
C30   C31   1.388931 A    
C7    C11   1.397027 A    
C37   C40   1.393467 A    
C10   C73   1.482673 S    
C86   C87   1.397015 A    
C94   H47   1.082564 S    
Zn1   O5    1.946006 S    
C58   H22   1.077076 S    
C69   C70   1.396596 A    
O1    Zn1   1.972290 S    
O2    Zn2   1.946008 S    
C6    C15   1.393264 A    
C85   C90   1.406318 A    
C46   C48   1.414186 A    
C50   C51   1.391644 A    
C37   H8    1.083925 S    
O6    C3    1.302116 A    
O4    Zn2   2.015410 S    
C59   C61   1.428753 A    
C79   C80   1.407077 A    
C3    C42   1.452993 S    
C91   C92   1.406150 A    
C52   H15   1.077387 S    
C26   O12   1.348727 S    
C82   C83   1.399715 A    
C63   C64   1.392352 A    
C55   C62   1.429259 A    
C90   H44   1.083099 S    
C19   C20   1.415897 A    
C7    C8    1.383823 A    
N6    O16   1.301357 A    
O2    C1    1.300354 A    
C78   H34   1.081760 S    
C57   H23   1.082651 S    
C40   C67   1.490120 S    
O4    C2    1.302480 A    
C76   H32   1.082438 S    
C76   C77   1.397425 A    
C33   C34   1.418761 A    
C44   C79   1.477323 S    
C56   C57   1.388844 A    
C81   H36   1.082340 S    
C74   H30   1.083240 S    
C92   H45   1.083137 S    
C88   C89   1.397106 A    
C58   C59   1.416027 A    
Zn2   N4    2.029946 S    
C42   C52   1.390014 A    
C43   H16   1.084189 S    
C51   H18   1.080994 S    
C83   C84   1.398185 A    
C49   C50   1.407500 A    
C38   H9    1.077874 S    
C56   H21   1.081646 S    
C95   H48   1.082348 S    
Zn2   O6    1.972290 S    
C34   C35   1.423341 A    
C28   C29   1.390137 A    
C60   N4    1.370808 A    
C67   C68   1.407900 A    
C1    C54   1.462010 S    
C10   C11   1.412834 A    
C14   C36   1.411700 A    
C68   H25   1.082937 S    
C61   C65   1.408425 A    
C74   C75   1.398161 A    
C25   C39   1.394719 A    
