data_mof_unit_35294.cif
_audit_creation_date              2012-12-10T19:16:53-0500
_audit_creation_method            fapswitch 2.2
_symmetry_space_group_name_H-M    P1
_symmetry_Int_Tables_number       1
_space_group_crystal_system       triclinic
_cell_length_a                    15.992285
_cell_length_b                    14.742665
_cell_length_c                    10.83339
_cell_angle_alpha                 90.554077
_cell_angle_beta                  90.002898
_cell_angle_gamma                 89.947756
_cell_volume                      2554.05595351

loop_
_atom_site_label
_atom_site_type_symbol
_atom_type_description
_atom_site_fract_x
_atom_site_fract_y
_atom_site_fract_z
_atom_type_partial_charge
C1    C     C_R   0.340854 0.500003 0.499975 0.763308
C2    C     C_3   0.572035 0.490964 0.926958 -0.483262
C3    C     C_R   0.956166 0.559940 0.577579 -0.268131
C4    C     C_R   0.955912 0.438420 0.425241 -0.270431
C5    C     C_R   0.912620 0.499387 0.501319 0.028301
C6    C     C_R   0.043513 0.439248 0.422211 0.391269
C7    C     C_R   0.043729 0.558799 0.579892 0.391886
C8    C     C_R   0.087269 0.499129 0.500710 -0.050640
C9    C     C_1   0.823207 0.499680 0.501153 -0.005912
C10   C     C_1   0.176870 0.499432 0.500216 0.058743
C11   C     C_1   0.251856 0.499846 0.500044 -0.163081
C12   C     C_1   0.748190 0.499848 0.500780 -0.188389
C13   C     C_R   0.570673 0.952130 0.543405 0.352091
C14   C     C_R   0.571064 0.048507 0.540327 0.338984
C15   C     C_R   0.490703 0.499603 0.260277 0.835801
C16   C     C_R   0.500997 0.902796 0.497632 -0.177865
C17   C     C_R   0.500850 0.097033 0.497287 -0.162780
C18   C     C_R   0.430883 0.951620 0.453791 0.072258
C19   C     C_R   0.430648 0.047991 0.454954 0.121284
C20   C     C_1   0.500737 0.802628 0.497493 0.182309
C21   C     C_1   0.500474 0.197297 0.498502 0.254429
C22   C     C_R   0.659139 0.499960 0.500307 0.833534
C23   C     C_R   0.489625 0.500489 0.739663 0.819606
C24   C     C_3   0.453238 0.598382 0.076268 0.212071
C25   C     C_3   0.418620 0.423942 0.072007 0.192976
C26   C     C_3   0.443057 0.596159 0.928730 0.517771
C27   C     C_3   0.426657 0.416592 0.924310 0.533510
C28   C     C_3   0.575256 0.479251 0.069142 0.262325
C29   C     C_3   0.484086 0.499653 0.121831 0.003605
C30   C     C_3   0.480822 0.501363 0.878081 -0.133558
Cu1   Cu    Cu3+1 0.500000 0.589220 0.500040 0.975228
Cu2   Cu    Cu3+1 0.500000 0.410780 0.500040 0.958840
H1    H     H_    0.608359 0.551927 0.899380 0.196680
H2    H     H_    0.604321 0.433090 0.880362 0.194797
H3    H     H_    0.922375 0.607765 0.635601 0.160007
H4    H     H_    0.921850 0.390340 0.368062 0.162465
N1    N     N_1   0.499980 0.276710 0.500040 -0.186092
N2    N     N_1   0.499980 0.723290 0.500040 -0.171202
O1    O     O_R   0.380310 0.575320 0.500060 -0.590124
O2    O     O_R   0.380310 0.424680 0.500060 -0.590344
O3    O     O_R   0.499990 0.575340 0.317720 -0.561268
O4    O     O_R   0.499990 0.424660 0.317720 -0.557898
O5    O     O_R   0.619690 0.575360 0.500000 -0.557157
O6    O     O_R   0.619690 0.424640 0.500000 -0.565765
O7    O     O_R   0.500010 0.575340 0.682340 -0.533987
O8    O     O_R   0.500010 0.424660 0.682340 -0.591801
N3    N     N_3   0.515233 0.667556 0.117011 -0.538389
H5    H     H_    0.487805 0.729600 0.141113 0.200099
H6    H     H_    0.563304 0.679026 0.053984 0.265507
N4    N     N_3   0.435394 0.334020 0.127028 -0.533019
H7    H     H_    0.400948 0.284774 0.080099 0.218470
H8    H     H_    0.409531 0.330207 0.215352 0.233180
N5    N     N_3   0.359043 0.904391 0.406818 -0.592266
H9    H     H_    0.336030 0.862266 0.476023 0.228007
H10   H     H_    0.378057 0.863486 0.332568 0.218293
N6    N     N_3   0.358828 0.096709 0.412066 -0.577989
H11   H     H_    0.307331 0.077406 0.465118 0.241093
H12   H     H_    0.347510 0.077461 0.320443 0.238048
N7    N     N_3   0.371979 0.621665 0.135110 -0.606230
H13   H     H_    0.377927 0.632832 0.229858 0.240827
H14   H     H_    0.347797 0.682168 0.101050 0.214404
N8    N     N_3   0.332631 0.449888 0.107938 -0.609590
H15   H     H_    0.329657 0.459893 0.203573 0.210578
H16   H     H_    0.291861 0.396099 0.089996 0.219876
N9    N     N_3   0.354550 0.604984 0.890853 -0.627881
H17   H     H_    0.347268 0.590044 0.796962 0.206934
H18   H     H_    0.313303 0.565939 0.941960 0.275656
N10   N     N_3   0.342071 0.418204 0.868086 -0.659984
H19   H     H_    0.307836 0.359853 0.886971 0.218433
H20   H     H_    0.342973 0.429279 0.773078 0.185532
O9    O     O_3   0.488539 0.669149 0.873467 -0.607528
C31   C     C_3   0.452418 0.757047 0.890164 0.088343
H21   H     H_    0.505043 0.805930 0.896662 0.145789
H22   H     H_    0.416590 0.765559 0.976318 0.123499
C32   C     C_3   0.395146 0.783706 0.782968 -0.323062
H23   H     H_    0.420091 0.756328 0.695683 0.244214
H24   H     H_    0.331729 0.755048 0.795817 0.220238
C33   C     C_3   0.385702 0.886380 0.775319 -0.972347
H25   H     H_    0.360384 0.913600 0.863667 0.261891
H26   H     H_    0.341783 0.903790 0.699854 0.270912
H27   H     H_    0.446961 0.918647 0.756522 0.244274
O10   O     O_3   0.472015 0.334272 0.895036 -0.623236
C34   C     C_3   0.439169 0.271887 0.806273 0.123698
H28   H     H_    0.493643 0.243288 0.756170 0.166943
H29   H     H_    0.399956 0.302058 0.733336 0.161470
C35   C     C_3   0.394145 0.192277 0.867314 -0.430699
H30   H     H_    0.436961 0.159017 0.933906 0.229527
H31   H     H_    0.337946 0.216016 0.917944 0.207348
C36   C     C_3   0.365844 0.122487 0.771388 -0.910619
H32   H     H_    0.328390 0.155292 0.697858 0.266033
H33   H     H_    0.326202 0.070820 0.816560 0.265232
H34   H     H_    0.420920 0.088358 0.729537 0.250073
N11   N     N_3   0.637161 0.543540 0.120845 -0.577384
H35   H     H_    0.694157 0.536239 0.074267 0.204277
H36   H     H_    0.649543 0.527881 0.213028 0.234916
N12   N     N_3   0.603328 0.386895 0.101931 -0.546253
H37   H     H_    0.668083 0.381644 0.090077 0.200219
H38   H     H_    0.578656 0.337713 0.043175 0.285399
O11   O     O_3   0.086797 0.620521 0.652798 -0.598686
C37   C     C_3   0.087288 0.589507 0.775766 0.047122
H39   H     H_    0.121946 0.524025 0.781800 0.147525
H40   H     H_    0.022404 0.580160 0.811061 0.136998
C38   C     C_3   0.131103 0.660027 0.857284 -0.308202
H41   H     H_    0.196089 0.669742 0.823902 0.225793
H42   H     H_    0.097651 0.725919 0.850499 0.226257
C39   C     C_3   0.133167 0.631212 0.992229 -0.929346
H43   H     H_    0.068610 0.623011 0.028241 0.252701
H44   H     H_    0.165672 0.683847 0.048304 0.264283
H45   H     H_    0.167440 0.566266 0.001952 0.261760
O12   O     O_3   0.086310 0.375930 0.351295 -0.598289
C40   C     C_3   0.083950 0.402038 0.226163 0.052865
H46   H     H_    0.125145 0.461994 0.212365 0.153454
H47   H     H_    0.019273 0.419023 0.195446 0.133571
C41   C     C_3   0.115626 0.323163 0.146271 -0.306582
H48   H     H_    0.180439 0.305423 0.174131 0.214060
H49   H     H_    0.075335 0.262880 0.161455 0.229262
C42   C     C_3   0.114328 0.346387 0.009224 -0.964563
H50   H     H_    0.049596 0.362220 0.979005 0.260896
H51   H     H_    0.137726 0.287600 0.954402 0.260249
H52   H     H_    0.155124 0.405497 0.990753 0.259160
O13   O     O_3   0.642984 0.095570 0.571351 -0.571257
C43   C     C_3   0.645306 0.111901 0.700172 0.059157
H53   H     H_    0.686918 0.060767 0.743142 0.172159
H54   H     H_    0.582724 0.108216 0.745832 0.096017
C44   C     C_3   0.681912 0.206167 0.724246 -0.313330
H55   H     H_    0.745152 0.210510 0.682143 0.233110
H56   H     H_    0.641409 0.258170 0.680784 0.231516
C45   C     C_3   0.688527 0.226346 0.862235 -0.937508
H57   H     H_    0.626167 0.220522 0.906421 0.269824
H58   H     H_    0.712358 0.296345 0.876807 0.250782
H59   H     H_    0.732326 0.178000 0.906440 0.260539
O14   O     O_3   0.642240 0.907388 0.581571 -0.571055
C46   C     C_3   0.629691 0.872819 0.701542 0.043868
H60   H     H_    0.585351 0.814989 0.699187 0.174114
H61   H     H_    0.604946 0.925827 0.765907 0.097066
C47   C     C_3   0.713005 0.838386 0.751784 -0.296218
H62   H     H_    0.740072 0.788002 0.685996 0.234068
H63   H     H_    0.757310 0.896096 0.761090 0.217101
C48   C     C_3   0.701990 0.793654 0.877265 -0.934700
H64   H     H_    0.674395 0.842413 0.944675 0.253994
H65   H     H_    0.763779 0.771197 0.912395 0.259149
H66   H     H_    0.660677 0.733381 0.868708 0.274174

loop_
_geom_bond_atom_site_label_1
_geom_bond_atom_site_label_2
_ccdc_geom_bond_type
C19   N6    S    
C4    H4    S    
N11   H35   S    
C23   O7    A    
C40   H46   S    
C1    C11   S    
C45   H57   S    
C41   H48   S    
C7    C8    A    
N3    H6    S    
Cu1   Cu2   S    
N5    H9    S    
C7    O11   S    
C34   H28   S    
C28   C29   S    
C24   C26   S    
C3    C7    A    
C31   C32   S    
C48   H66   S    
C35   H31   S    
C39   H43   S    
C12   C22   S    
N6    H11   S    
C18   C19   A    
O12   C40   S    
N8    H16   S    
C27   N10   S    
C18   N5    S    
C24   C29   S    
C22   O6    A    
C40   H47   S    
N3    H5    S    
N6    H12   S    
O14   C46   S    
N9    H18   S    
N12   H38   S    
C46   C47   S    
N4    H8    S    
C26   N9    S    
C36   H33   S    
C1    O2    A    
C2    H2    S    
N7    H13   S    
N11   H36   S    
C23   O8    A    
C13   C14   A    
C27   C30   S    
C26   O9    S    
C6    O12   S    
C14   C17   A    
C47   C48   S    
C32   C33   S    
C15   C29   S    
N5    H10   S    
C25   C29   S    
N7    H14   S    
C23   C30   S    
C15   O3    A    
C4    C6    A    
C42   H52   S    
C35   H30   S    
N10   H19   S    
C6    C8    A    
C37   C38   S    
C17   C21   S    
C28   N11   S    
C38   C39   S    
C32   H23   S    
C5    C9    S    
N8    H15   S    
C25   N4    S    
C44   C45   S    
C20   N2    T    
O11   C37   S    
C3    H3    S    
C16   C20   S    
N12   H37   S    
C37   H40   S    
N4    H7    S    
Cu2   O6    S    
C38   H42   S    
C16   C18   A    
Cu2   N1    S    
C36   H34   S    
C44   H56   S    
C32   H24   S    
O13   C43   S    
Cu1   O5    S    
C2    H1    S    
C31   H22   S    
C34   H29   S    
C26   C30   S    
C46   H60   S    
C43   H54   S    
C45   H59   S    
C47   H63   S    
C46   H61   S    
Cu1   O3    S    
C33   H25   S    
C24   N3    S    
Cu2   O8    S    
C27   O10   S    
C15   O4    A    
C31   H21   S    
C3    C5    A    
C35   C36   S    
C45   H58   S    
C41   H49   S    
C48   H64   S    
C25   C27   S    
Cu1   N2    S    
C28   N12   S    
C2    C30   S    
C43   C44   S    
C42   H51   S    
C36   H32   S    
O9    C31   S    
N9    H17   S    
C42   H50   S    
C48   H65   S    
C33   H27   S    
C44   H55   S    
C39   H44   S    
C24   N7    S    
C37   H39   S    
C17   C19   A    
C13   O14   S    
Cu1   O1    S    
C40   C41   S    
C33   H26   S    
C25   N8    S    
Cu2   O2    S    
C9    C12   T    
C41   C42   S    
C10   C11   T    
C1    O1    A    
C4    C5    A    
C34   C35   S    
C21   N1    T    
C8    C10   S    
O10   C34   S    
Cu1   O7    S    
C13   C16   A    
C38   H41   S    
C14   O13   S    
N10   H20   S    
Cu2   O4    S    
C47   H62   S    
C2    C28   S    
C43   H53   S    
C22   O5    A    
C39   H45   S    
