data_mof_unit_14025.cif
_audit_creation_date              2012-12-10T20:34:54-0500
_audit_creation_method            fapswitch 2.2
_symmetry_space_group_name_H-M    P1
_symmetry_Int_Tables_number       1
_space_group_crystal_system       triclinic
_cell_length_a                    10.685672
_cell_length_b                    10.73137
_cell_length_c                    9.934035
_cell_angle_alpha                 90.602214
_cell_angle_beta                  90.576793
_cell_angle_gamma                 89.896165
_cell_volume                      1139.03236714

loop_
_atom_site_label
_atom_site_type_symbol
_atom_type_description
_atom_site_fract_x
_atom_site_fract_y
_atom_site_fract_z
_atom_type_partial_charge
Br1   Br    Br    0.371249 0.132170 0.226748 -0.601028
Br2   Br    Br    0.680601 0.858292 0.843021 -0.586447
Br3   Br    Br    0.877844 0.384174 0.223891 -0.606172
C1    C     C_R   0.495252 0.260445 0.499015 0.911558
C2    C     C_R   0.557284 0.938639 0.604032 0.075833
C3    C     C_3   0.536206 0.931450 0.752335 0.092451
C4    C     C_R   0.257740 0.502983 0.499481 0.816207
C5    C     C_3   0.526656 0.073820 0.751709 -0.111761
C6    C     C_R   0.412284 0.435829 0.068571 0.191167
C7    C     C_R   0.594111 0.554273 0.073424 -0.051352
C8    C     C_R   0.594028 0.554236 0.929790 -0.079625
C9    C     C_R   0.418274 0.426435 0.927214 0.069696
C10   C     C_3   0.279631 0.425843 0.913045 -0.073380
C11   C     C_3   0.274689 0.460855 0.061695 -0.087418
C12   C     C_3   0.878238 0.499601 0.498235 0.076629
C13   C     C_R   0.500158 0.739467 0.500385 0.906744
C14   C     C_R   0.742007 0.500017 0.499967 0.864336
C15   C     C_3   0.072483 0.371440 0.547164 -0.019692
C16   C     C_3   0.928003 0.374967 0.554330 -0.387177
C17   C     C_3   0.071213 0.605017 0.593703 -0.447772
C18   C     C_3   0.069046 0.528401 0.356242 -0.435179
C19   C     C_3   0.120720 0.500807 0.498505 0.084501
C20   C     C_3   0.622952 0.148485 0.837969 -0.222111
C21   C     C_3   0.751050 0.166933 0.773590 -0.793561
C22   C     C_3   0.121031 0.258740 0.462797 -0.361302
C23   C     C_3   0.927628 0.608316 0.588262 -0.449129
C24   C     C_3   0.099023 0.133649 0.531135 -0.875129
C25   C     C_3   0.231394 0.293162 0.882630 -0.423700
C26   C     C_3   0.090496 0.281686 0.905930 -0.828433
C27   C     C_3   0.243872 0.601067 0.082006 -0.399505
C28   C     C_3   0.108897 0.632710 0.041967 -0.864385
C29   C     C_3   0.927241 0.517577 0.351841 0.117730
C30   C     C_R   0.551988 0.066015 0.603183 0.044036
C31   C     C_R   0.495679 0.128181 0.495861 -0.203278
C32   C     C_R   0.452343 0.060506 0.381849 0.276770
C33   C     C_R   0.457615 0.932152 0.384065 -0.229667
C34   C     C_R   0.503423 0.871252 0.498322 -0.195303
H1    H     H_    0.108628 0.359727 0.650312 0.178337
H2    H     H_    0.243143 0.497655 0.844083 0.195362
H3    H     H_    0.222090 0.394775 0.124120 0.197094
H4    H     H_    0.884581 0.295729 0.498222 0.207213
H5    H     H_    0.900007 0.366490 0.661284 0.157457
H6    H     H_    0.102004 0.587812 0.698747 0.179554
H7    H     H_    0.891076 0.601325 0.692500 0.215390
H8    H     H_    0.095717 0.624597 0.327800 0.167945
H9    H     H_    0.109321 0.462510 0.283334 0.216835
H10   H     H_    0.797284 0.076822 0.750717 0.286144
H11   H     H_    0.740049 0.219872 0.679031 0.241594
H12   H     H_    0.888385 0.605776 0.310319 0.133357
H13   H     H_    0.812101 0.221178 0.843606 0.247188
H14   H     H_    0.583454 0.242415 0.857318 0.204962
H15   H     H_    0.634485 0.105019 0.938279 0.249348
H16   H     H_    0.150623 0.129624 0.628349 0.246432
H17   H     H_    0.998044 0.117761 0.549122 0.267265
H18   H     H_    0.134119 0.057154 0.465400 0.271939
H19   H     H_    0.076127 0.256174 0.361806 0.270325
H20   H     H_    0.223254 0.267162 0.447642 0.218430
H21   H     H_    0.071340 0.271961 0.014863 0.296099
H22   H     H_    0.039364 0.364781 0.868573 0.254826
H23   H     H_    0.109017 0.697396 0.564462 0.177946
H24   H     H_    0.054212 0.197353 0.853103 0.252993
H25   H     H_    0.280297 0.223461 0.946534 0.247347
H26   H     H_    0.254094 0.269035 0.776930 0.207884
H27   H     H_    0.099718 0.640797 0.931228 0.251068
H28   H     H_    0.043014 0.560241 0.075800 0.293212
H29   H     H_    0.081933 0.723618 0.087619 0.261693
H30   H     H_    0.261252 0.628479 0.188060 0.235990
H31   H     H_    0.307396 0.659700 0.021168 0.218002
H32   H     H_    0.895416 0.699156 0.547160 0.184992
H33   H     H_    0.418972 0.880131 0.299274 0.197648
H34   H     H_    0.446278 0.885310 0.776941 0.125448
H35   H     H_    0.429156 0.105097 0.771643 0.114829
H36   H     H_    0.668937 0.600521 0.128298 0.173553
H37   H     H_    0.669786 0.598135 0.877354 0.193014
N1    N     N_R   0.499150 0.499140 0.142800 -0.117690
N2    N     N_R   0.499150 0.499180 0.857150 -0.128136
O1    O     O_R   0.500020 0.316790 0.614690 -0.631450
O2    O     O_R   0.500000 0.316760 0.385350 -0.551396
O3    O     O_R   0.314800 0.500000 0.614670 -0.646072
O4    O     O_R   0.314790 0.499960 0.385330 -0.639915
O5    O     O_R   0.500000 0.683240 0.614650 -0.599202
O6    O     O_R   0.499980 0.683210 0.385310 -0.632774
O7    O     O_R   0.685210 0.500040 0.614670 -0.626844
O8    O     O_R   0.685200 0.500000 0.385330 -0.585805
Zn1   Zn    Zn3+2 0.500010 0.500020 0.653130 0.941027
Zn2   Zn    Zn3+2 0.499990 0.499980 0.346870 0.984395

loop_
_geom_bond_atom_site_label_1
_geom_bond_atom_site_label_2
_ccdc_geom_bond_type
C28   H29   S    
C2    C34   A    
C32   C33   A    
C22   H19   S    
C24   H17   S    
C23   H7    S    
C12   C29   S    
C12   C16   S    
C25   C26   S    
O8    Zn2   S    
C15   C16   S    
C8    N2    A    
C27   C28   S    
C7    H36   S    
C24   H18   S    
C5    C20   S    
C28   H28   S    
C31   C32   A    
O4    Zn2   S    
C26   H22   S    
C2    C30   A    
C20   C21   S    
C10   C25   S    
C17   H23   S    
C27   H30   S    
C16   H5    S    
C13   C34   S    
O2    Zn2   S    
O1    Zn1   S    
C10   C11   S    
Br2   C3    S    
C15   C22   S    
C22   H20   S    
C11   C27   S    
C33   H33   S    
C18   H8    S    
C21   H13   S    
C3    H34   S    
C18   C29   S    
C26   H24   S    
C5    H35   S    
C21   H11   S    
C12   C23   S    
C3    C5    S    
O6    Zn2   S    
C14   O7    A    
C6    C11   S    
C1    O2    A    
C7    N1    A    
N1    Zn2   S    
C20   H14   S    
C13   O6    A    
C30   C31   A    
C26   H21   S    
O7    Zn1   S    
C17   C19   S    
C9    N2    A    
O3    Zn1   S    
C17   H6    S    
Br1   C32   S    
C4    O3    A    
C18   H9    S    
C12   C14   S    
C33   C34   A    
C15   C19   S    
C21   H10   S    
C28   H27   S    
C8    H37   S    
C24   H16   S    
C22   C24   S    
C4    C19   S    
C14   O8    A    
C15   H1    S    
C1    O1    A    
C20   H15   S    
C2    C3    S    
C17   C23   S    
C13   O5    A    
C5    C30   S    
C1    C31   S    
Br3   C29   S    
C6    C9    A    
C27   H31   S    
C29   H12   S    
C10   H2    S    
C7    C8    A    
C11   H3    S    
C25   H26   S    
C9    C10   S    
C23   H32   S    
C6    N1    A    
C18   C19   S    
N2    Zn1   S    
O5    Zn1   S    
C16   H4    S    
C4    O4    A    
C25   H25   S    
