data_mof_unit_15344.cif
_audit_creation_date              2012-10-26T21:25:54-0400
_audit_creation_method            fapswitch 2.2
_symmetry_space_group_name_H-M    P1
_symmetry_Int_Tables_number       1
_space_group_crystal_system       triclinic
_cell_length_a                    10.896624
_cell_length_b                    10.899802
_cell_length_c                    12.695666
_cell_angle_alpha                 91.644771
_cell_angle_beta                  91.516413
_cell_angle_gamma                 90.916428
_cell_volume                      1506.51659137

loop_
_atom_site_label
_atom_site_type_symbol
_atom_type_description
_atom_site_fract_x
_atom_site_fract_y
_atom_site_fract_z
_atom_type_partial_charge
C1    C     C_R   0.261849 0.499832 0.501830 0.553188
C2    C     C_R   0.848107 0.573036 0.238315 0.133164
C3    C     C_R   0.121590 0.531235 0.703821 0.086693
C4    C     C_R   0.878444 0.469006 0.296140 0.086721
C5    C     C_R   0.134646 0.648812 0.751212 -0.096755
C6    C     C_R   0.866138 0.351607 0.248297 -0.096998
C7    C     C_R   0.175775 0.662744 0.856092 -0.110315
C8    C     C_R   0.825112 0.337976 0.143369 -0.110443
C9    C     C_R   0.202995 0.559478 0.914450 -0.136053
C10   C     C_R   0.797263 0.441377 0.085401 -0.136090
C11   C     C_R   0.936166 0.517253 0.592405 -0.140639
C12   C     C_R   0.738152 0.500182 0.498169 0.553281
C13   C     C_R   0.063840 0.482755 0.407593 -0.140910
C14   C     C_R   0.871721 0.500527 0.495945 0.013077
C15   C     C_R   0.128283 0.499500 0.504050 0.012842
C16   C     C_R   0.500639 0.261862 0.501868 0.547730
C17   C     C_R   0.499404 0.738140 0.498131 0.547611
C18   C     C_R   0.936759 0.483265 0.402206 -0.001065
C19   C     C_R   0.063248 0.516785 0.597783 -0.001043
C20   C     C_2   0.469541 0.462013 0.031721 -0.183013
C21   C     C_2   0.530378 0.537993 0.968274 -0.183079
C22   C     C_1   0.523649 0.526449 0.852662 0.146838
C23   C     C_R   0.499030 0.871689 0.495625 0.007419
C24   C     C_1   0.476312 0.473550 0.147336 0.146773
C25   C     C_R   0.682303 0.226467 0.829343 -0.139906
C26   C     C_R   0.318092 0.773740 0.170465 -0.139880
C27   C     C_R   0.654656 0.181484 0.727371 -0.101277
C28   C     C_R   0.345647 0.818623 0.272481 -0.101252
C29   C     C_R   0.542011 0.121191 0.704052 0.035778
C30   C     C_R   0.458297 0.878847 0.295923 0.035681
C31   C     C_R   0.457179 0.104881 0.785091 0.276140
C32   C     C_R   0.543231 0.895186 0.214966 0.275883
C33   C     C_R   0.485811 0.149291 0.888195 0.123898
C34   C     C_R   0.501093 0.128317 0.504375 0.007480
C35   C     C_R   0.514702 0.850853 0.111824 0.123775
C36   C     C_R   0.598862 0.210004 0.909446 -0.135615
C37   C     C_R   0.401637 0.790223 0.090445 -0.135671
C38   C     C_R   0.519540 0.936028 0.591750 -0.095043
C39   C     C_R   0.480611 0.063979 0.408250 -0.095013
C40   C     C_R   0.480322 0.936827 0.402016 0.004822
C41   C     C_R   0.519863 0.063186 0.597979 0.004888
C42   C     C_R   0.191841 0.442183 0.867471 -0.100467
C43   C     C_R   0.807684 0.558488 0.132825 -0.100485
C44   C     C_R   0.151293 0.427323 0.762037 0.133032
Cl1   Cl    Cl    0.315765 0.026718 0.758966 -0.665175
Cl2   Cl    Cl    0.684631 0.973325 0.241235 -0.664958
Cu1   Cu    Cu3+1 0.492140 0.492110 0.395880 1.006885
Cu2   Cu    Cu3+1 0.507860 0.507890 0.604120 1.007069
H1    H     H_    0.622532 0.244058 0.988330 0.123036
H2    H     H_    0.412702 0.388567 0.996715 0.144692
H3    H     H_    0.769380 0.272874 0.846611 0.118037
H4    H     H_    0.231000 0.727406 0.153100 0.118126
H5    H     H_    0.721599 0.192388 0.666590 0.128700
H6    H     H_    0.278623 0.807716 0.333195 0.128654
H7    H     H_    0.536102 0.887211 0.663893 0.159442
H8    H     H_    0.464058 0.112793 0.336104 0.159463
H9    H     H_    0.232327 0.570209 0.996271 0.114421
H10   H     H_    0.768025 0.430886 0.003539 0.114455
H11   H     H_    0.212821 0.362528 0.913217 0.134560
H12   H     H_    0.378038 0.756260 0.011522 0.122893
H13   H     H_    0.786249 0.638259 0.087382 0.134972
H14   H     H_    0.435505 0.168728 0.042278 0.216922
H15   H     H_    0.389759 0.037532 0.980917 0.261238
H16   H     H_    0.565207 0.831442 0.957789 0.216865
H17   H     H_    0.610888 0.962626 0.019211 0.261292
H18   H     H_    0.081085 0.254638 0.760393 0.245415
H19   H     H_    0.225509 0.267538 0.715745 0.286643
H20   H     H_    0.917147 0.746184 0.240589 0.246228
H21   H     H_    0.772837 0.732025 0.285274 0.286359
H22   H     H_    0.110546 0.729298 0.707535 0.142156
H23   H     H_    0.890749 0.271047 0.291664 0.142092
H24   H     H_    0.184448 0.753531 0.892630 0.146389
H25   H     H_    0.817012 0.247338 0.106483 0.145874
H26   H     H_    0.887629 0.530272 0.665292 0.138982
H27   H     H_    0.112382 0.469748 0.334707 0.138964
H28   H     H_    0.587189 0.611456 0.003276 0.144412
N1    N     N_1   0.480320 0.480250 0.239400 -0.183776
N2    N     N_1   0.519680 0.519750 0.760600 -0.183716
N3    N     N_3   0.399907 0.131896 0.970668 -0.603111
N4    N     N_3   0.600716 0.868259 0.029436 -0.603215
N5    N     N_3   0.138821 0.307099 0.714243 -0.605714
N6    N     N_3   0.859811 0.693075 0.286567 -0.605533
O1    O     O_R   0.313000 0.493330 0.412070 -0.516490
O2    O     O_R   0.687000 0.506670 0.587930 -0.516549
O3    O     O_R   0.326280 0.506660 0.587930 -0.482708
O4    O     O_R   0.673720 0.493340 0.412070 -0.482734
O5    O     O_R   0.493370 0.312980 0.412070 -0.503537
O6    O     O_R   0.506630 0.687020 0.587930 -0.503552
O7    O     O_R   0.506650 0.326310 0.587930 -0.494973
O8    O     O_R   0.493350 0.673690 0.412070 -0.495198

loop_
_geom_bond_atom_site_label_1
_geom_bond_atom_site_label_2
_ccdc_geom_bond_type
C27   C29   A    
C17   O6    A    
C14   C18   A    
H15   N3    S    
C15   C19   A    
C21   H28   S    
C11   C19   A    
C9    C42   A    
C17   C23   S    
C13   C18   A    
C35   C37   A    
C11   C14   A    
C23   C40   A    
C35   N4    S    
C33   C36   A    
C12   O2    A    
Cu2   N2    S    
C20   H2    S    
H21   N6    S    
C16   C34   S    
C38   H7    S    
Cu1   Cu2   S    
C10   H10   S    
C16   O5    A    
Cu2   O6    S    
C3    C19   S    
C1    C15   S    
Cu1   O1    S    
C4    C18   S    
C16   O7    A    
H17   N4    S    
C21   C22   S    
H16   N4    S    
C34   C41   A    
C42   C44   A    
C13   H27   S    
C1    O3    A    
C6    H23   S    
C3    C44   A    
C34   C39   A    
C32   C35   A    
C20   C24   S    
H14   N3    S    
C22   N2    T    
C38   C41   A    
C4    C6    A    
C44   N5    S    
C39   C40   A    
C5    C7    A    
C28   H6    S    
C33   N3    S    
C6    C8    A    
Cu2   O2    S    
Cu1   O5    S    
C2    C4    A    
C25   H3    S    
C5    H22   S    
C26   H4    S    
C39   H8    S    
C2    C43   A    
C31   C33   A    
C30   C40   S    
C12   C14   S    
H19   N5    S    
Cu2   O7    S    
C13   C15   A    
Cu1   O8    S    
C2    N6    S    
C25   C27   A    
Cu1   N1    S    
C7    H24   S    
C43   H13   S    
C7    C9    A    
C29   C41   S    
C10   C43   A    
C32   Cl2   S    
C17   O8    A    
C3    C5    A    
C11   H26   S    
C42   H11   S    
C27   H5    S    
C26   C37   A    
C1    O1    A    
C23   C38   A    
C26   C28   A    
C12   O4    A    
H20   N6    S    
C28   C30   A    
Cu1   O4    S    
C29   C31   A    
H18   N5    S    
C30   C32   A    
C8    H25   S    
C9    H9    S    
C37   H12   S    
C25   C36   A    
C24   N1    T    
C20   C21   D    
C8    C10   A    
C31   Cl1   S    
Cu2   O3    S    
C36   H1    S    
