data_mof_unit_30079.cif
_audit_creation_date              2012-12-10T17:14:28-0500
_audit_creation_method            fapswitch 2.2
_symmetry_space_group_name_H-M    P1
_symmetry_Int_Tables_number       1
_space_group_crystal_system       triclinic
_cell_length_a                    15.483803
_cell_length_b                    14.840608
_cell_length_c                    10.252007
_cell_angle_alpha                 90.0
_cell_angle_beta                  82.531643
_cell_angle_gamma                 89.999834
_cell_volume                      2335.81423397

loop_
_atom_site_label
_atom_site_type_symbol
_atom_type_description
_atom_site_fract_x
_atom_site_fract_y
_atom_site_fract_z
_atom_type_partial_charge
C1    C     C_R   0.389478 0.122551 0.552964 0.859358
C2    C     C_R   0.614908 0.881954 0.444847 0.875217
C3    C     C_R   0.610522 0.122551 0.447036 0.859363
C4    C     C_R   0.385092 0.881953 0.555153 0.875216
C5    C     C_R   0.889479 0.622551 0.552964 0.859356
C6    C     C_R   0.114908 0.381954 0.444847 0.875214
C7    C     C_R   0.110522 0.622551 0.447036 0.859361
C8    C     C_R   0.885092 0.381954 0.555153 0.875223
C9    C     C_2   0.489490 0.988980 0.931235 0.286326
C10   C     C_2   0.510511 0.988981 0.068765 0.286328
C11   C     C_2   0.989489 0.488979 0.931235 0.286333
C12   C     C_2   0.010510 0.488978 0.068765 0.286334
C13   C     C_2   0.311780 0.821823 0.590085 -0.092511
C14   C     C_2   0.666647 0.200303 0.420345 -0.096372
C15   C     C_2   0.688221 0.821824 0.409914 -0.092509
C16   C     C_2   0.333353 0.200305 0.579653 -0.096369
C17   C     C_2   0.811778 0.321826 0.590086 -0.092504
C18   C     C_2   0.166647 0.700304 0.420346 -0.096380
C19   C     C_2   0.188222 0.321824 0.409914 -0.092505
C20   C     C_2   0.833354 0.700306 0.579654 -0.096356
C21   C     C_2   0.252018 0.816457 0.507199 -0.141361
C22   C     C_2   0.685653 0.248171 0.523408 -0.117773
C23   C     C_2   0.747983 0.816459 0.492799 -0.141371
C24   C     C_2   0.314352 0.248175 0.476589 -0.117773
C25   C     C_2   0.752018 0.316457 0.507197 -0.141365
C26   C     C_2   0.185652 0.748171 0.523409 -0.117774
C27   C     C_2   0.247986 0.316462 0.492797 -0.141370
C28   C     C_2   0.814349 0.748173 0.476590 -0.117769
H1    H     H_    0.658384 0.230906 0.623452 0.196499
H2    H     H_    0.256659 0.857085 0.418470 0.166885
H3    H     H_    0.341623 0.230910 0.376546 0.196494
H4    H     H_    0.743341 0.857086 0.581529 0.166894
H5    H     H_    0.158384 0.730905 0.623453 0.196499
H6    H     H_    0.756662 0.357081 0.418465 0.166888
H7    H     H_    0.841617 0.730906 0.376547 0.196497
H8    H     H_    0.243347 0.357092 0.581523 0.166882
N1    N     N_2   0.549450 0.000000 0.831550 0.025616
N2    N     N_2   0.450550 0.000000 0.168450 0.025619
N3    N     N_2   0.049450 0.500000 0.831550 0.025622
N4    N     N_2   0.950550 0.500000 0.168450 0.025616
O1    O     O_R   0.398960 0.091100 0.433300 -0.611286
O2    O     O_R   0.601040 0.908900 0.566700 -0.637662
O3    O     O_R   0.601040 0.091100 0.566700 -0.611271
O4    O     O_R   0.398960 0.908900 0.433300 -0.637662
O5    O     O_R   0.898960 0.591100 0.433300 -0.611283
O6    O     O_R   0.101040 0.408900 0.566700 -0.637656
O7    O     O_R   0.101040 0.591100 0.566700 -0.611297
O8    O     O_R   0.898960 0.408900 0.433300 -0.637663
O9    O     O_R   0.430710 0.091090 0.646210 -0.619200
O10   O     O_R   0.569290 0.908910 0.353790 -0.636902
O11   O     O_R   0.569290 0.091090 0.353790 -0.619206
O12   O     O_R   0.430710 0.908910 0.646210 -0.636904
O13   O     O_R   0.930710 0.591090 0.646210 -0.619204
O14   O     O_R   0.069290 0.408910 0.353790 -0.636903
O15   O     O_R   0.069290 0.591090 0.353790 -0.619199
O16   O     O_R   0.930710 0.408910 0.646210 -0.636904
Zn1   Zn    Zn3+2 0.478810 0.000000 0.357840 0.936059
Zn2   Zn    Zn3+2 0.521190 0.000000 0.642160 0.936064
Zn3   Zn    Zn3+2 0.978810 0.500000 0.357840 0.936062
Zn4   Zn    Zn3+2 0.021190 0.500000 0.642160 0.936058
O17   O     O_3   0.377530 0.041843 0.141606 -0.574230
C29   C     C_3   0.306135 0.995069 0.208818 0.223790
H9    H     H_    0.298749 0.011266 0.315048 0.175352
H10   H     H_    0.313906 0.920789 0.194969 0.124184
C30   C     C_3   0.223290 0.024238 0.154190 -0.398614
H11   H     H_    0.216517 0.098639 0.161593 0.241791
H12   H     H_    0.227951 0.005139 0.048661 0.228319
C31   C     C_3   0.142653 0.980309 0.229454 -0.978119
H13   H     H_    0.147219 0.905841 0.221165 0.274627
H14   H     H_    0.083696 0.003015 0.187608 0.271784
H15   H     H_    0.135946 0.999749 0.334940 0.265793
O18   O     O_3   0.622468 0.041848 0.858391 -0.574219
C32   C     C_3   0.693865 0.995065 0.791199 0.223760
H16   H     H_    0.701245 0.011235 0.684960 0.175334
H17   H     H_    0.686098 0.920790 0.805090 0.124212
C33   C     C_3   0.776711 0.024262 0.845798 -0.398632
H18   H     H_    0.783502 0.098653 0.838277 0.241790
H19   H     H_    0.772037 0.005242 0.951356 0.228361
C34   C     C_3   0.857341 0.980267 0.770624 -0.978239
H20   H     H_    0.852771 0.905816 0.779082 0.274656
H21   H     H_    0.916303 0.003021 0.812402 0.271795
H22   H     H_    0.864042 0.999592 0.665107 0.265817
O19   O     O_3   0.877531 0.541845 0.141607 -0.574228
C35   C     C_3   0.806135 0.495069 0.208812 0.223785
H23   H     H_    0.798751 0.511258 0.315046 0.175343
H24   H     H_    0.813904 0.420790 0.194950 0.124186
C36   C     C_3   0.723290 0.524248 0.154193 -0.398597
H25   H     H_    0.716512 0.598648 0.161628 0.241779
H26   H     H_    0.727954 0.505169 0.048653 0.228316
C37   C     C_3   0.642655 0.480300 0.229435 -0.978082
H27   H     H_    0.647223 0.405831 0.221104 0.274618
H28   H     H_    0.583696 0.503018 0.187600 0.271774
H29   H     H_    0.635947 0.499713 0.334935 0.265782
O20   O     O_3   0.122471 0.541839 0.858396 -0.574233
C38   C     C_3   0.193866 0.495070 0.791172 0.223778
H30   H     H_    0.201258 0.511290 0.684952 0.175348
H31   H     H_    0.186090 0.420791 0.804986 0.124200
C39   C     C_3   0.276709 0.524216 0.845818 -0.398673
H32   H     H_    0.283484 0.598617 0.838458 0.241783
H33   H     H_    0.272043 0.505086 0.951334 0.228310
C40   C     C_3   0.357350 0.480294 0.770539 -0.977887
H34   H     H_    0.352805 0.405812 0.778875 0.274583
H35   H     H_    0.416308 0.503035 0.812364 0.271754
H36   H     H_    0.364037 0.499708 0.665025 0.265743
N5    N     N_3   0.702578 0.222636 0.287987 -0.469542
H37   H     H_    0.737148 0.166591 0.247478 0.183724
H38   H     H_    0.650875 0.233812 0.233805 0.201761
N6    N     N_3   0.305505 0.767990 0.707333 -0.461053
H39   H     H_    0.363696 0.732103 0.706278 0.186461
H40   H     H_    0.299461 0.811434 0.788129 0.186799
N7    N     N_3   0.297417 0.222636 0.712009 -0.469536
H41   H     H_    0.262845 0.166591 0.752513 0.183723
H42   H     H_    0.349118 0.233809 0.766199 0.201752
N8    N     N_3   0.694497 0.767992 0.292667 -0.461070
H43   H     H_    0.636306 0.732106 0.293720 0.186454
H44   H     H_    0.700542 0.811435 0.211871 0.186805
N9    N     N_3   0.202577 0.722638 0.287988 -0.469543
H45   H     H_    0.237146 0.666593 0.247477 0.183724
H46   H     H_    0.150873 0.733815 0.233807 0.201765
N10   N     N_3   0.805499 0.267999 0.707339 -0.461079
H47   H     H_    0.863691 0.232115 0.706293 0.186451
H48   H     H_    0.799451 0.311446 0.788130 0.186803
N11   N     N_3   0.797424 0.722640 0.712011 -0.469531
H49   H     H_    0.762854 0.666597 0.752522 0.183716
H50   H     H_    0.849128 0.733816 0.766192 0.201761
N12   N     N_3   0.194495 0.267988 0.292670 -0.461061
H51   H     H_    0.136304 0.232101 0.293728 0.186462
H52   H     H_    0.200539 0.311429 0.211871 0.186795
N13   N     N_3   0.595864 0.959650 0.088634 -0.469772
H53   H     H_    0.591570 0.893224 0.121951 0.170105
H54   H     H_    0.621044 0.002079 0.155405 0.223950
N14   N     N_3   0.404137 0.959646 0.911367 -0.469766
H55   H     H_    0.408435 0.893220 0.878048 0.170102
H56   H     H_    0.378956 0.002074 0.844596 0.223952
N15   N     N_3   0.095863 0.459645 0.088634 -0.469764
H57   H     H_    0.091566 0.393218 0.121953 0.170104
H58   H     H_    0.121044 0.502073 0.155404 0.223951
N16   N     N_3   0.904136 0.459649 0.911366 -0.469772
H59   H     H_    0.908431 0.393222 0.878048 0.170106
H60   H     H_    0.878956 0.502078 0.844595 0.223950

loop_
_geom_bond_atom_site_label_1
_geom_bond_atom_site_label_2
_ccdc_geom_bond_type
C21   C26   S    
C40   H34   S    
C22   H1    S    
O15   Zn3   S    
C32   H16   S    
C38   H30   S    
C18   C26   D    
C24   C27   S    
C7    O15   A    
C36   H25   S    
C8    O16   A    
N8    H43   S    
C38   C39   S    
N11   H49   S    
C5    C20   S    
C6    C19   S    
N5    H38   S    
C3    O3    A    
N12   H51   S    
C4    O12   A    
C5    O13   A    
C11   N16   S    
C35   H24   S    
N9    H46   S    
N11   H50   S    
N6    H39   S    
C4    C13   S    
C20   N11   S    
C29   H10   S    
C2    O10   A    
C17   N10   S    
O7    Zn4   S    
C14   N5    S    
N7    H41   S    
C28   H7    S    
N14   H55   S    
C30   H12   S    
C22   C25   S    
C35   C36   S    
O11   Zn1   S    
C19   C27   D    
C9    C10   S    
N1    Zn2   S    
O3    Zn2   S    
C25   H6    S    
N2    O17   S    
C30   C31   S    
C15   C23   D    
C16   C24   D    
N4    Zn3   S    
C32   H17   S    
N4    O19   S    
O2    Zn2   S    
O20   C38   S    
C6    O14   A    
C13   N6    S    
O13   Zn4   S    
N10   H48   S    
O14   Zn3   S    
N15   H57   S    
C33   H18   S    
C34   H21   S    
C3    O11   A    
C31   H13   S    
C4    O4    A    
C5    O5    A    
C12   N15   S    
O9    Zn2   S    
O16   Zn4   S    
C7    O7    A    
C12   N4    D    
C8    O8    A    
N3    O20   S    
C29   H9    S    
N2    Zn1   S    
C26   H5    S    
C37   H28   S    
O19   C35   S    
O4    Zn1   S    
C7    C18   S    
C9    N1    D    
C15   N8    S    
C13   C21   D    
N7    H42   S    
C1    C16   S    
C23   C28   S    
C35   H23   S    
C11   N3    D    
C2    C15   S    
C18   N9    S    
C3    C14   S    
O12   Zn2   S    
N14   H56   S    
C31   H14   S    
C30   H11   S    
C40   H36   S    
C39   H33   S    
C36   H26   S    
C32   C33   S    
N1    O18   S    
N10   H47   S    
O8    Zn3   S    
N13   H53   S    
N5    H37   S    
C9    N14   S    
C1    O1    A    
N15   H58   S    
O5    Zn3   S    
N12   H52   S    
C6    O6    A    
C29   C30   S    
O6    Zn4   S    
O10   Zn1   S    
C33   H19   S    
O18   C32   S    
C34   H22   S    
N8    H44   S    
C11   C12   S    
C38   H31   S    
N16   H60   S    
C27   H8    S    
C39   C40   S    
C20   C28   D    
C21   H2    S    
C19   N12   S    
C8    C17   S    
C10   N2    D    
C17   C25   D    
C23   H4    S    
C14   C22   D    
C37   H29   S    
C10   N13   S    
O1    Zn1   S    
N9    H45   S    
C37   H27   S    
C2    O2    A    
C31   H15   S    
N3    Zn4   S    
N6    H40   S    
O17   C29   S    
C24   H3    S    
N16   H59   S    
C34   H20   S    
C33   C34   S    
C40   H35   S    
C39   H32   S    
C36   C37   S    
C1    O9    A    
C16   N7    S    
N13   H54   S    
