data_mof_unit_29203.cif
_audit_creation_date              2012-12-11T14:56:27-0500
_audit_creation_method            fapswitch 2.2
_symmetry_space_group_name_H-M    P1
_symmetry_Int_Tables_number       1
_space_group_crystal_system       triclinic
_cell_length_a                    10.61631
_cell_length_b                    10.689247
_cell_length_c                    17.202002
_cell_angle_alpha                 80.211245
_cell_angle_beta                  90.024228
_cell_angle_gamma                 119.25828
_cell_volume                      1670.48065352

loop_
_atom_site_label
_atom_site_type_symbol
_atom_type_description
_atom_site_fract_x
_atom_site_fract_y
_atom_site_fract_z
_atom_type_partial_charge
C1    C     C_R   0.224933 0.855539 0.129212 0.537641
C2    C     C_R   0.788569 0.444868 0.260811 -0.133648
C3    C     C_R   0.778190 0.426764 0.182816 0.069055
C4    C     C_R   0.644180 0.327673 0.160970 0.040124
C5    C     C_1   0.668418 0.848539 0.205554 -0.027159
C6    C     C_1   0.680303 0.838783 0.274786 -0.026710
C7    C     C_1   0.182404 0.826650 0.211637 -0.057532
C8    C     C_1   0.152035 0.820301 0.279931 -0.034846
C9    C     C_1   0.624408 0.270429 0.775497 -0.035087
C10   C     C_1   0.638213 0.313312 0.705283 -0.033161
C11   C     C_R   0.534094 0.751878 0.782517 0.109340
C12   C     C_R   0.634913 0.276658 0.087493 0.579412
C13   C     C_R   0.533842 0.769277 0.701235 0.061344
C14   C     C_R   0.663810 0.856339 0.654172 0.035770
C15   C     C_R   0.790735 0.954212 0.686489 0.070822
C16   C     C_R   0.789019 0.945032 0.769059 0.088983
C17   C     C_R   0.659480 0.849107 0.816393 0.033743
C18   C     C_R   0.250665 0.969532 0.756601 0.100923
C19   C     C_R   0.244312 0.948426 0.679117 0.065754
C20   C     C_R   0.148279 0.809787 0.664203 0.005308
C21   C     C_R   0.078439 0.686630 0.727125 0.118520
C22   C     C_R   0.101904 0.704563 0.805003 0.027808
C23   C     C_R   0.639857 0.858546 0.125574 0.552277
C24   C     C_R   0.187625 0.845475 0.819669 0.008936
C25   C     C_R   0.686942 0.809420 0.357055 0.546803
C26   C     C_R   0.687397 0.393376 0.396033 0.536813
C27   C     C_R   0.103323 0.810192 0.359081 0.555123
C28   C     C_R   0.677270 0.806644 0.582323 0.587419
C29   C     C_R   0.676828 0.377563 0.623580 0.573683
C30   C     C_R   0.097026 0.800307 0.586714 0.569700
C31   C     C_R   0.225701 0.865926 0.898736 0.566218
C32   C     C_R   0.615064 0.224114 0.858823 0.571395
C33   C     C_R   0.641188 0.866445 0.897240 0.577416
C34   C     C_R   0.519723 0.255168 0.215786 -0.105782
C35   C     C_R   0.529934 0.273234 0.293868 0.063251
C36   C     C_R   0.666551 0.364958 0.316841 0.026640
Cr1   Cr    Cr6+3 0.402240 0.783890 0.019450 1.030690
Cr2   Cr    Cr6+3 0.382360 0.097900 0.991800 1.011018
Cr3   Cr    Cr6+3 0.715380 0.118170 0.988700 1.020866
Cr4   Cr    Cr6+3 0.936650 0.882420 0.465510 1.044460
Cr5   Cr    Cr6+3 0.605770 0.565620 0.493360 1.024699
Cr6   Cr    Cr6+3 0.921340 0.550490 0.496380 1.017440
H1    H     H_    0.415600 0.177252 0.199377 0.166436
H2    H     H_    0.892790 0.521637 0.277692 0.137625
O1    O     O_R   0.521780 0.757110 0.108900 -0.505675
O2    O     O_R   0.513330 0.228330 0.898660 -0.489741
O3    O     O_R   0.739230 0.266130 0.888050 -0.521527
O4    O     O_R   0.712580 0.991850 0.918770 -0.512571
O5    O     O_3   0.499990 0.999980 0.999980 -0.282475
O6    O     O_R   0.083770 0.911170 0.376030 -0.489002
O7    O     O_R   0.808770 0.880340 0.383890 -0.500059
O8    O     O_R   0.584340 0.689460 0.394160 -0.510513
O9    O     O_R   0.614320 0.443940 0.423590 -0.506443
O10   O     O_R   0.805020 0.410040 0.421340 -0.523811
O11   O     O_R   0.049240 0.685450 0.403290 -0.511344
O12   O     O_R   0.275160 0.783810 0.101120 -0.495445
O13   O     O_R   0.077520 0.903010 0.551800 -0.510441
O14   O     O_R   0.802980 0.872780 0.546830 -0.475733
O15   O     O_R   0.578090 0.681300 0.569920 -0.488009
O16   O     O_R   0.608530 0.436370 0.586530 -0.494807
O17   O     O_R   0.798770 0.401880 0.597100 -0.511751
O18   O     O_R   0.043450 0.677890 0.566230 -0.480137
O19   O     O_3   0.821250 0.666180 0.485090 -0.264307
O20   O     O_R   0.237900 0.972600 0.090980 -0.513367
O21   O     O_R   0.511190 0.220540 0.061620 -0.523566
O22   O     O_R   0.736920 0.257720 0.063840 -0.473782
O23   O     O_R   0.710450 0.984050 0.081720 -0.498416
O24   O     O_R   0.524090 0.765520 0.933110 -0.485436
O25   O     O_R   0.277300 0.791600 0.938160 -0.502376
O26   O     O_R   0.240210 0.981010 0.915190 -0.509714
N1    N     N_3   0.335415 0.068827 0.616208 -0.635261
H3    H     H_    0.275446 0.113179 0.587414 0.256780
H4    H     H_    0.377379 0.032472 0.575804 0.230518
N2    N     N_2   0.981502 0.544893 0.712677 -0.451137
H5    H     H_    0.894896 0.485024 0.755128 0.285661
C37   C     C_3   0.050691 0.462734 0.697479 -0.274248
H6    H     H_    0.111884 0.452171 0.747970 0.112787
H7    H     H_    0.124945 0.516467 0.642257 0.172844
H8    H     H_    0.967476 0.352448 0.689267 0.146166
N3    N     N_3   0.030295 0.579507 0.868504 -0.616162
H9    H     H_    0.107452 0.561241 0.898027 0.249811
H10   H     H_    0.971432 0.600003 0.908348 0.251035
N4    N     N_3   0.402628 0.192292 0.349002 -0.607949
H11   H     H_    0.381366 0.266059 0.371000 0.253295
H12   H     H_    0.423118 0.131063 0.396212 0.226933
N5    N     N_3   0.903312 0.507507 0.126174 -0.603639
H13   H     H_    0.984977 0.487006 0.147597 0.243303
H14   H     H_    0.939390 0.618682 0.122345 0.225863
N6    N     N_2   0.411194 0.629880 0.829987 -0.483458
H15   H     H_    0.311327 0.608151 0.812071 0.246210
C38   C     C_3   0.424687 0.500320 0.851551 -0.261964
H16   H     H_    0.328846 0.414452 0.892041 0.129918
H17   H     H_    0.523637 0.525402 0.882671 0.179909
H18   H     H_    0.430473 0.457481 0.797950 0.133960
N7    N     N_3   0.403273 0.688617 0.665715 -0.618259
H19   H     H_    0.329194 0.717289 0.683390 0.225202
H20   H     H_    0.363424 0.576797 0.685677 0.233789
N8    N     N_3   0.919962 0.058727 0.635003 -0.580970
H21   H     H_    0.005534 0.121785 0.665897 0.226307
H22   H     H_    0.895379 0.131691 0.599077 0.222342
N9    N     N_2   0.920373 0.003270 0.806182 -0.518980
H23   H     H_    0.994990 0.977307 0.787069 0.258140
C39   C     C_3   0.981112 0.150565 0.820174 -0.274183
H24   H     H_    0.081832 0.224171 0.780351 0.078481
H25   H     H_    0.009291 0.152120 0.882254 0.167797
H26   H     H_    0.903382 0.191659 0.810552 0.186022
N10   N     N_3   0.315896 0.116327 0.771517 -0.589189
H27   H     H_    0.349680 0.194660 0.719315 0.243599
H28   H     H_    0.235504 0.128254 0.798309 0.229650

loop_
_geom_bond_atom_site_label_1
_geom_bond_atom_site_label_2
_ccdc_geom_bond_type
Cr2   O26   S    
N9    H23   S    
C23   O1    A    
Cr1   O25   S    
C19   N1    S    
N7    H19   S    
C37   H8    S    
C7    C8    T    
Cr2   O5    S    
C20   C30   S    
Cr4   O19   S    
N2    C37   S    
C13   N7    S    
C18   C24   A    
C1    O12   A    
C37   H7    S    
C18   C19   A    
C5    C6    T    
N5    H14   S    
C6    C25   S    
C15   C16   A    
C30   O13   A    
C34   C35   A    
C23   O23   A    
C18   N10   S    
C9    C32   S    
Cr2   O2    S    
Cr1   O12   S    
C31   O26   A    
C19   C20   A    
C2    H2    S    
C16   C17   A    
N10   H27   S    
C29   O16   A    
N6    C38   S    
C9    C10   T    
Cr6   O18   S    
Cr5   O8    S    
Cr2   O20   S    
C27   O6    A    
C32   O2    A    
N9    C39   S    
C21   C22   A    
C3    N5    S    
N10   H28   S    
C17   C33   S    
C26   O10   A    
C4    C34   A    
C29   O17   A    
Cr4   O14   S    
N2    H5    S    
C26   O9    A    
C37   H6    S    
Cr5   O15   S    
N3    H10   S    
C38   H16   S    
N1    H4    S    
C35   N4    S    
N5    H13   S    
C12   O22   A    
C21   N2    S    
C35   C36   A    
Cr1   O24   S    
C25   O7    A    
Cr6   O11   S    
C38   H17   S    
Cr1   O5    S    
C11   N6    S    
N4    H11   S    
C5    C23   S    
Cr2   O21   S    
C39   H25   S    
Cr6   O17   S    
Cr5   O9    S    
C26   C36   S    
Cr3   O5    S    
N8    H22   S    
C30   O18   A    
Cr3   O22   S    
C22   C24   A    
C4    C12   S    
Cr5   O19   S    
C15   N8    S    
Cr1   O1    S    
C3    C4    A    
C1    O20   A    
Cr3   O3    S    
C28   O15   A    
C2    C36   A    
C8    C27   S    
C11   C17   A    
Cr4   O13   S    
N4    H12   S    
C1    C7    S    
Cr3   O23   S    
C34   H1    S    
Cr5   O16   S    
N3    H9    S    
N7    H20   S    
C28   O14   A    
Cr4   O7    S    
C12   O21   A    
C2    C3    A    
C25   O8    A    
C22   N3    S    
N1    H3    S    
Cr6   O10   S    
C38   H18   S    
C11   C13   A    
C10   C29   S    
Cr4   O6    S    
C32   O3    A    
C39   H26   S    
C27   O11   A    
C24   C31   S    
C16   N9    S    
C31   O25   A    
C20   C21   A    
N8    H21   S    
C39   H24   S    
C33   O4    A    
C14   C15   A    
C14   C28   S    
N6    H15   S    
C13   C14   A    
Cr6   O19   S    
C33   O24   A    
Cr3   O4    S    
