data_mof_unit_5569.cif
_audit_creation_date              2012-12-10T19:22:28-0500
_audit_creation_method            fapswitch 2.2
_symmetry_space_group_name_H-M    P1
_symmetry_Int_Tables_number       1
_space_group_crystal_system       triclinic
_cell_length_a                    17.800821
_cell_length_b                    16.527441
_cell_length_c                    10.97512
_cell_angle_alpha                 90.05746
_cell_angle_beta                  91.138658
_cell_angle_gamma                 90.273484
_cell_volume                      3228.22613435

loop_
_atom_site_label
_atom_site_type_symbol
_atom_type_description
_atom_site_fract_x
_atom_site_fract_y
_atom_site_fract_z
_atom_type_partial_charge
C1    C     C_R   0.355732 0.500058 0.512304 0.916407
C2    C     C_R   0.644282 0.500508 0.487546 0.915857
C3    C     C_R   0.884980 0.499120 0.502070 -0.249766
C4    C     C_R   0.115793 0.501717 0.486479 -0.248413
C5    C     C_1   0.966488 0.499630 0.496880 0.276894
C6    C     C_1   0.034266 0.500644 0.490004 0.278166
C7    C     C_R   0.528345 0.829800 0.600516 0.233760
C8    C     C_R   0.474281 0.828202 0.395866 0.124543
C9    C     C_R   0.531368 0.743853 0.595714 0.491261
C10   C     C_R   0.466533 0.742392 0.405512 0.502042
C11   C     C_R   0.502123 0.873324 0.497086 -0.223186
C12   C     C_1   0.503234 0.963144 0.495598 0.284103
C13   C     C_1   0.503589 0.037544 0.495629 0.302139
C14   C     C_R   0.552294 0.172293 0.574002 0.170162
C15   C     C_R   0.452714 0.171005 0.419106 0.159167
C16   C     C_R   0.544881 0.258085 0.581350 0.495221
C17   C     C_R   0.456831 0.257322 0.416305 0.488095
C18   C     C_R   0.502980 0.127368 0.496165 -0.243126
C19   C     C_R   0.496273 0.499826 0.265021 0.800534
C20   C     C_R   0.503195 0.499740 0.734839 0.798349
C21   C     C_2   0.488156 0.436675 0.932902 0.310295
C22   C     C_2   0.502748 0.435114 0.065622 0.314183
C23   C     C_2   0.516132 0.498086 0.866493 0.280338
C24   C     C_2   0.482462 0.499298 0.133195 0.276188
C25   C     C_R   0.846161 0.572973 0.509860 0.301558
C26   C     C_R   0.155256 0.575543 0.499538 0.300765
C27   C     C_R   0.768882 0.575619 0.479301 0.284703
C28   C     C_R   0.232459 0.574762 0.532253 0.286817
C29   C     C_R   0.727524 0.502056 0.470584 -0.379159
C30   C     C_R   0.272442 0.500738 0.527269 -0.379267
C31   C     C_R   0.767309 0.429180 0.452855 0.309223
C32   C     C_R   0.231272 0.427459 0.526425 0.307371
C33   C     C_R   0.844821 0.426434 0.481661 0.279125
C34   C     C_R   0.155136 0.428052 0.490188 0.279737
Cu1   Cu    Cu3+1 0.500000 0.580420 0.500000 1.136054
Cu2   Cu    Cu3+1 0.500000 0.419580 0.500000 1.158381
N1    N     N_R   0.500000 0.701220 0.500000 -0.228817
N2    N     N_R   0.500000 0.298780 0.500000 -0.237834
O1    O     O_R   0.391260 0.567930 0.500000 -0.518959
O2    O     O_R   0.608740 0.567930 0.500000 -0.517218
O3    O     O_R   0.391280 0.432120 0.500000 -0.508707
O4    O     O_R   0.608720 0.432120 0.500000 -0.507997
O5    O     O_R   0.500000 0.567890 0.321940 -0.545678
O6    O     O_R   0.500000 0.567890 0.678060 -0.576829
O7    O     O_R   0.500030 0.432070 0.321950 -0.508979
O8    O     O_R   0.499970 0.432070 0.678050 -0.510462
O9    O     O_3   0.446366 0.375413 0.878104 -0.682486
H1    H     H_    0.428474 0.338425 0.942568 0.352496
O10   O     O_3   0.536334 0.368222 0.118799 -0.686952
H2    H     H_    0.549536 0.329701 0.053359 0.349721
O11   O     O_3   0.585083 0.302756 0.666294 -0.611028
H3    H     H_    0.588911 0.270628 0.742272 0.358139
O12   O     O_3   0.416132 0.301470 0.332043 -0.601078
H4    H     H_    0.415823 0.271375 0.253965 0.363282
O13   O     O_3   0.561740 0.555928 0.922351 -0.685190
H5    H     H_    0.585817 0.588922 0.858673 0.360423
O14   O     O_3   0.444536 0.562825 0.077434 -0.681074
H6    H     H_    0.427398 0.601020 0.140363 0.379646
S1    S     S_3+6 0.890757 0.657934 0.580420 0.127967
O15   O     O_2   0.926774 0.709840 0.485702 -0.162889
O16   O     O_2   0.834097 0.707313 0.647353 -0.187844
O17   O     O_3   0.956668 0.626262 0.681291 -0.504476
H7    H     H_    0.968627 0.674170 0.732521 0.408560
S2    S     S_3+6 0.111577 0.667092 0.451950 0.127156
O18   O     O_2   0.076039 0.707386 0.558817 -0.162726
O19   O     O_2   0.168684 0.723492 0.398761 -0.196471
O20   O     O_3   0.045429 0.647138 0.344290 -0.503106
H8    H     H_    0.034062 0.700082 0.306120 0.408653
S3    S     S_3+6 0.730188 0.667806 0.421088 0.105329
O21   O     O_2   0.671724 0.650109 0.323748 -0.271120
O22   O     O_2   0.695068 0.714241 0.522741 -0.207676
O23   O     O_3   0.797160 0.725294 0.358230 -0.437995
H9    H     H_    0.771970 0.776903 0.337321 0.392863
S4    S     S_3+6 0.273298 0.660448 0.608553 0.105216
O24   O     O_2   0.332238 0.633415 0.699566 -0.266619
O25   O     O_2   0.308621 0.715655 0.517142 -0.249375
O26   O     O_3   0.207878 0.711900 0.684642 -0.431159
H10   H     H_    0.234278 0.760646 0.716466 0.397809
S5    S     S_3+6 0.726283 0.351290 0.360231 0.121429
O27   O     O_2   0.667243 0.386777 0.276701 -0.256596
O28   O     O_2   0.784997 0.312321 0.283463 -0.188422
O29   O     O_3   0.686722 0.280442 0.447842 -0.428328
H11   H     H_    0.666915 0.239182 0.389921 0.368701
S6    S     S_3+6 0.265842 0.342488 0.609689 0.121119
O30   O     O_2   0.324880 0.369080 0.701118 -0.244260
O31   O     O_2   0.202759 0.303151 0.677114 -0.195257
O32   O     O_3   0.302885 0.274513 0.515019 -0.418581
H12   H     H_    0.315935 0.227621 0.567313 0.375874
S7    S     S_3+6 0.888359 0.332120 0.513981 0.132421
O33   O     O_2   0.924227 0.300111 0.401208 -0.163615
O34   O     O_2   0.946958 0.343163 0.613113 -0.232775
O35   O     O_3   0.824852 0.264543 0.562276 -0.419894
H13   H     H_    0.852808 0.213113 0.570719 0.396230
S8    S     S_3+6 0.114619 0.339557 0.424239 0.130603
O36   O     O_2   0.078530 0.289071 0.520676 -0.156969
O37   O     O_2   0.056998 0.362815 0.328859 -0.233247
O38   O     O_3   0.181302 0.284799 0.356710 -0.427581
H14   H     H_    0.155023 0.235528 0.326557 0.395588
S9    S     S_3+6 0.561262 0.882361 0.733305 0.118016
O39   O     O_2   0.639690 0.911980 0.711229 -0.160372
O40   O     O_2   0.511009 0.953265 0.756671 -0.229221
O41   O     O_3   0.562771 0.824287 0.859034 -0.480935
H15   H     H_    0.581874 0.860169 0.925156 0.405278
S10   S     S_3+6 0.454809 0.876151 0.253703 0.096860
O42   O     O_2   0.374644 0.904099 0.250909 -0.143686
O43   O     O_2   0.505920 0.947613 0.235917 -0.227957
O44   O     O_3   0.467008 0.811065 0.137838 -0.453331
H16   H     H_    0.520338 0.794531 0.144874 0.367864
O45   O     O_3   0.567729 0.702708 0.687033 -0.621247
H17   H     H_    0.532473 0.703043 0.755724 0.366769
O46   O     O_3   0.424281 0.698883 0.321776 -0.665855
H18   H     H_    0.384898 0.734415 0.286484 0.378678
S11   S     S_3+6 0.627046 0.123604 0.654610 0.078342
O47   O     O_2   0.598467 0.092788 0.773813 -0.205500
O48   O     O_2   0.656224 0.054342 0.580778 -0.225421
O49   O     O_3   0.698561 0.188238 0.682679 -0.446246
H19   H     H_    0.735598 0.156818 0.731494 0.396992
S12   S     S_3+6 0.383589 0.118903 0.328845 0.075308
O50   O     O_2   0.419000 0.091391 0.212923 -0.196373
O51   O     O_2   0.354501 0.046715 0.396756 -0.227363
O52   O     O_3   0.310310 0.178936 0.293799 -0.457561
H20   H     H_    0.277235 0.145749 0.239799 0.395485

loop_
_geom_bond_atom_site_label_1
_geom_bond_atom_site_label_2
_ccdc_geom_bond_type
C15   C18   A    
O32   H12   S    
C27   C29   A    
C14   C18   A    
Cu2   O4    S    
Cu1   Cu2   S    
C16   O11   S    
O13   H5    S    
C28   S4    S    
S10   O43   D    
O38   H14   S    
O26   H10   S    
C7    C11   A    
C7    S9    S    
C13   C18   S    
C10   N1    A    
Cu1   N1    S    
S6    O31   D    
C5    C6    T    
C3    C33   A    
C31   S5    S    
O49   H19   S    
C15   C17   A    
S3    O22   D    
C26   S2    S    
S12   O50   D    
O35   H13   S    
O41   H15   S    
O46   H18   S    
C24   O14   S    
S1    O17   S    
S4    O26   S    
O44   H16   S    
S6    O32   S    
Cu2   O8    S    
S7    O34   D    
Cu1   O5    S    
C27   S3    S    
S11   O49   S    
S1    O15   D    
C21   C22   S    
Cu2   O3    S    
S3    O21   D    
S10   O42   D    
C20   O6    A    
C19   O5    A    
C9    O45   S    
C32   S6    S    
C4    C34   A    
S1    O16   D    
S4    O24   D    
O20   H8    S    
S2    O20   S    
C3    C25   A    
S6    O30   D    
C4    C6    S    
S5    O28   D    
S8    O38   S    
O12   H4    S    
O11   H3    S    
S12   O52   S    
S2    O19   D    
S3    O23   S    
Cu1   O1    S    
O17   H7    S    
C33   S7    S    
O9    H1    S    
C20   C23   S    
C9    N1    A    
Cu2   O7    S    
S7    O35   S    
S8    O37   D    
Cu1   O6    S    
C8    S10   S    
O52   H20   S    
S4    O25   D    
C22   O10   S    
C1    O3    A    
S9    O40   D    
O10   H2    S    
C21   C23   D    
C22   C24   D    
C17   O12   S    
S11   O47   D    
C7    C9    A    
C31   C33   A    
C34   S8    S    
O23   H9    S    
C3    C5    S    
S5    O29   S    
C4    C26   A    
C11   C12   S    
C19   O7    A    
C23   O13   S    
C25   C27   A    
C14   S11   S    
C26   C28   A    
C15   S12   S    
S2    O18   D    
Cu2   N2    S    
C19   C24   S    
C29   C31   A    
S9    O39   D    
C30   C32   A    
O14   H6    S    
C2    O4    A    
C8    C11   A    
C28   C30   A    
C1    C30   S    
Cu1   O2    S    
C14   C16   A    
C17   N2    A    
S8    O36   D    
S12   O51   D    
C1    O1    A    
S5    O27   D    
C2    O2    A    
S9    O41   S    
C2    C29   S    
C12   C13   T    
C10   O46   S    
C8    C10   A    
O29   H11   S    
C16   N2    A    
C25   S1    S    
C21   O9    S    
S7    O33   D    
O45   H17   S    
S10   O44   S    
C20   O8    A    
C32   C34   A    
S11   O48   D    
