data_mof_unit_43104.cif
_audit_creation_date              2012-12-10T18:09:30-0500
_audit_creation_method            fapswitch 2.2
_symmetry_space_group_name_H-M    P1
_symmetry_Int_Tables_number       1
_space_group_crystal_system       triclinic
_cell_length_a                    14.860598
_cell_length_b                    15.657255
_cell_length_c                    9.399962
_cell_angle_alpha                 89.875203
_cell_angle_beta                  89.960439
_cell_angle_gamma                 89.872092
_cell_volume                      2187.13602611

loop_
_atom_site_label
_atom_site_type_symbol
_atom_type_description
_atom_site_fract_x
_atom_site_fract_y
_atom_site_fract_z
_atom_type_partial_charge
C1    C     C_R   0.125380 0.385291 0.500140 1.004563
C2    C     C_R   0.123897 0.616223 0.499701 1.010342
C3    C     C_R   0.625381 0.885292 0.500140 1.004543
C4    C     C_R   0.623896 0.116224 0.499701 1.010355
C5    C     C_3   0.090707 0.523249 0.083666 -0.143085
C6    C     C_3   0.090686 0.523348 0.915955 -0.140052
C7    C     C_3   0.590725 0.023163 0.083665 -0.143087
C8    C     C_3   0.590705 0.023261 0.915956 -0.140060
C9    C     C_R   0.879911 0.379505 0.500104 1.019797
C10   C     C_R   0.882643 0.622669 0.499951 1.019353
C11   C     C_R   0.379913 0.879503 0.500104 1.019802
C12   C     C_R   0.382639 0.122666 0.499951 1.019369
C13   C     C_3   0.844734 0.233429 0.596985 0.376624
C14   C     C_3   0.800237 0.272517 0.346383 0.377360
C15   C     C_3   0.819590 0.744128 0.643836 0.375285
C16   C     C_3   0.836977 0.759521 0.378512 0.389074
C17   C     C_3   0.344724 0.733438 0.597018 0.376616
C18   C     C_3   0.300261 0.772496 0.346389 0.377385
C19   C     C_3   0.319557 0.244100 0.643859 0.375271
C20   C     C_3   0.336995 0.259538 0.378552 0.389077
C21   C     C_3   0.277699 0.657502 0.589524 1.045800
C22   C     C_3   0.225155 0.704879 0.343916 1.016245
C23   C     C_3   0.246994 0.314913 0.646536 1.025057
C24   C     C_3   0.266442 0.332730 0.378441 1.030992
C25   C     C_3   0.777709 0.157492 0.589485 1.045812
C26   C     C_3   0.725131 0.204900 0.343912 1.016269
C27   C     C_3   0.747040 0.814955 0.646506 1.025042
C28   C     C_3   0.766406 0.832700 0.378370 1.030967
C29   C     C_3   0.717801 0.340357 0.556412 0.531486
C30   C     C_3   0.718291 0.658369 0.477842 0.525545
C31   C     C_3   0.217797 0.840362 0.556367 0.531470
C32   C     C_3   0.218291 0.158372 0.477775 0.525553
C33   C     C_3   0.812113 0.308599 0.500281 -0.529535
C34   C     C_3   0.815878 0.694326 0.499937 -0.533378
C35   C     C_3   0.312116 0.808596 0.500279 -0.529536
C36   C     C_3   0.315874 0.194322 0.499936 -0.533388
C37   C     C_3   0.193845 0.683770 0.499202 -0.522346
C38   C     C_3   0.196326 0.318334 0.500519 -0.528793
C39   C     C_3   0.693843 0.183771 0.499202 -0.522356
C40   C     C_3   0.696327 0.818335 0.500519 -0.528806
C41   C     C_3   0.151915 0.764419 0.566482 -0.495347
C42   C     C_3   0.149183 0.232135 0.476282 -0.478354
C43   C     C_3   0.651922 0.264412 0.566529 -0.495377
C44   C     C_3   0.649174 0.732127 0.476387 -0.478254
C45   C     C_3   0.935046 0.561664 0.083529 -0.191110
C46   C     C_3   0.934993 0.561629 0.916148 -0.190388
C47   C     C_3   0.978351 0.414695 0.084086 -0.153117
C48   C     C_3   0.978482 0.414665 0.916532 -0.180463
C49   C     C_3   0.435117 0.061723 0.083527 -0.191125
C50   C     C_3   0.435064 0.061688 0.916149 -0.190405
C51   C     C_3   0.478263 0.914724 0.084084 -0.153108
C52   C     C_3   0.478393 0.914694 0.916534 -0.180471
Cu1   Cu    Cu3+1 0.000100 0.500000 0.642410 1.026853
Cu2   Cu    Cu3+1 0.000100 0.500000 0.357590 1.036948
Cu3   Cu    Cu3+1 0.500100 0.000000 0.642410 1.026830
Cu4   Cu    Cu3+1 0.500100 1.000000 0.357590 1.036963
H1    H     H_    0.849583 0.255844 0.708886 0.149222
H2    H     H_    0.782350 0.324615 0.270887 0.157400
H3    H     H_    0.807505 0.699898 0.734513 0.152569
H4    H     H_    0.835228 0.726767 0.273751 0.150965
H5    H     H_    0.349561 0.755866 0.708912 0.149212
H6    H     H_    0.282384 0.824584 0.270871 0.157383
H7    H     H_    0.307469 0.199854 0.734514 0.152585
H8    H     H_    0.335246 0.226803 0.273775 0.150959
H9    H     H_    0.134375 0.750822 0.679444 0.268992
H10   H     H_    0.086681 0.779489 0.513884 0.325072
H11   H     H_    0.097318 0.222730 0.560067 0.309542
H12   H     H_    0.111441 0.234004 0.374014 0.292802
H13   H     H_    0.634402 0.250800 0.679494 0.268978
H14   H     H_    0.586678 0.279487 0.513965 0.325077
H15   H     H_    0.597350 0.722737 0.560242 0.309479
H16   H     H_    0.611383 0.733970 0.374161 0.292872
H17   H     H_    0.950444 0.627208 0.121856 0.199462
H18   H     H_    0.950387 0.627180 0.877339 0.195659
H19   H     H_    0.026521 0.365794 0.124131 0.222628
H20   H     H_    0.026864 0.365897 0.877039 0.224879
H21   H     H_    0.450582 0.127248 0.121865 0.199524
H22   H     H_    0.450526 0.127220 0.877329 0.195720
H23   H     H_    0.526380 0.865780 0.124136 0.222638
H24   H     H_    0.526722 0.865881 0.877034 0.224783
H25   H     H_    0.866377 0.545851 0.122480 0.209874
H26   H     H_    0.866280 0.545854 0.877368 0.210827
H27   H     H_    0.910522 0.394865 0.121017 0.191442
H28   H     H_    0.910845 0.394559 0.879456 0.198271
H29   H     H_    0.366433 0.045973 0.122476 0.209886
H30   H     H_    0.366336 0.045976 0.877371 0.210758
H31   H     H_    0.410414 0.894959 0.121018 0.191385
H32   H     H_    0.410737 0.894654 0.879456 0.198306
H33   H     H_    0.110318 0.587898 0.120423 0.237762
H34   H     H_    0.110110 0.588140 0.878952 0.220554
H35   H     H_    0.143020 0.478381 0.123704 0.241088
H36   H     H_    0.143081 0.478597 0.875894 0.240840
H37   H     H_    0.610405 0.087790 0.120429 0.237766
H38   H     H_    0.610201 0.088029 0.878942 0.220591
H39   H     H_    0.642989 0.978247 0.123706 0.241091
H40   H     H_    0.643050 0.978459 0.875896 0.240846
N1    N     N_3   0.001260 0.500000 0.143650 -0.198815
N2    N     N_3   0.001260 0.500000 0.856350 -0.191721
N3    N     N_3   0.501260 1.000000 0.143650 -0.198844
N4    N     N_3   0.501260 0.000000 0.856350 -0.191745
O1    O     O_R   0.091250 0.408820 0.620260 -0.552605
O2    O     O_R   0.091250 0.408820 0.379740 -0.561154
O3    O     O_R   0.091250 0.591180 0.620260 -0.581365
O4    O     O_R   0.091250 0.591180 0.379740 -0.547126
O5    O     O_R   0.591250 0.908820 0.620260 -0.552624
O6    O     O_R   0.591250 0.908820 0.379740 -0.561133
O7    O     O_R   0.591250 0.091180 0.620260 -0.581377
O8    O     O_R   0.591250 0.091180 0.379740 -0.547114
O9    O     O_R   0.908940 0.408800 0.620260 -0.585001
O10   O     O_R   0.908940 0.408800 0.379740 -0.584136
O11   O     O_R   0.908940 0.591200 0.620260 -0.590760
O12   O     O_R   0.908940 0.591200 0.379740 -0.592448
O13   O     O_R   0.408940 0.908800 0.620260 -0.585024
O14   O     O_R   0.408940 0.908800 0.379740 -0.584148
O15   O     O_R   0.408940 0.091200 0.620260 -0.590769
O16   O     O_R   0.408940 0.091200 0.379740 -0.592431
F1    F     F_    0.930207 0.206768 0.558059 -0.540330
F2    F     F_    0.880491 0.237751 0.297316 -0.529907
F3    F     F_    0.904439 0.778656 0.665323 -0.533384
F4    F     F_    0.923213 0.792145 0.392611 -0.513089
F5    F     F_    0.430202 0.706771 0.558125 -0.540336
F6    F     F_    0.380521 0.737724 0.297360 -0.529892
F7    F     F_    0.404397 0.278640 0.665388 -0.533378
F8    F     F_    0.423237 0.292141 0.392684 -0.513099
F9    F     F_    0.319125 0.586732 0.529558 -0.438105
F10   F     F_    0.256268 0.631634 0.276749 -0.525630
F11   F     F_    0.286223 0.393380 0.674993 -0.488058
F12   F     F_    0.308644 0.410935 0.395760 -0.455134
F13   F     F_    0.819129 0.086732 0.529478 -0.438096
F14   F     F_    0.756238 0.131665 0.276710 -0.525658
F15   F     F_    0.786291 0.893427 0.674857 -0.487987
F16   F     F_    0.808596 0.910922 0.395572 -0.455205
F17   F     F_    0.252387 0.635576 0.726843 -0.640739
F18   F     F_    0.153265 0.736463 0.265281 -0.624896
F19   F     F_    0.187298 0.296997 0.756323 -0.649454
F20   F     F_    0.223980 0.333711 0.246955 -0.646103
F21   F     F_    0.752417 0.135546 0.726804 -0.640706
F22   F     F_    0.653230 0.236492 0.265312 -0.624842
F23   F     F_    0.687376 0.797084 0.756359 -0.649455
F24   F     F_    0.723907 0.833618 0.246912 -0.646116
Cl1   Cl    Cl    0.724962 0.389312 0.729009 -0.456307
Cl2   Cl    Cl    0.669298 0.416686 0.437193 -0.303678
Cl3   Cl    Cl    0.688620 0.587029 0.619815 -0.361144
Cl4   Cl    Cl    0.708971 0.601626 0.312306 -0.434132
Cl5   Cl    Cl    0.224937 0.889333 0.728952 -0.456276
Cl6   Cl    Cl    0.169315 0.916681 0.437108 -0.303704
Cl7   Cl    Cl    0.188579 0.087031 0.619723 -0.361018
Cl8   Cl    Cl    0.209003 0.101632 0.312232 -0.434202

loop_
_geom_bond_atom_site_label_1
_geom_bond_atom_site_label_2
_ccdc_geom_bond_type
C16   C28   S    
C42   H12   S    
Cu3   Cu4   S    
C1    O1    A    
C27   F15   S    
C48   H20   S    
C25   F21   S    
C28   F24   S    
C25   F13   S    
C14   C33   S    
C7    C8    S    
C32   Cl7   S    
C45   C46   S    
C3    O5    A    
C4    O8    A    
C19   F7    S    
C7    N3    S    
Cu3   O5    S    
C32   C36   S    
Cu2   O4    S    
C38   C42   S    
C19   C36   S    
C16   F4    S    
C5    C6    S    
C26   C39   S    
C22   F10   S    
C13   H1    S    
C28   C40   S    
C29   C33   S    
C30   Cl4   S    
Cu2   O10   S    
C44   H15   S    
C45   H17   S    
C16   H4    S    
C11   O14   A    
Cu4   O8    S    
C16   C34   S    
C46   H26   S    
C31   Cl6   S    
C20   C24   S    
Cu1   O1    S    
C14   F2    S    
C8    H40   S    
Cu3   N4    S    
C24   C38   S    
C15   F3    S    
Cu2   N1    S    
C10   O12   A    
C47   H27   S    
C12   C36   S    
C18   C35   S    
C15   C34   S    
C26   F14   S    
C12   O15   A    
C17   H5    S    
C24   F20   S    
C46   N2    S    
C43   H13   S    
C29   C43   S    
C9    C33   S    
C30   C44   S    
C7    H37   S    
C50   H22   S    
C21   F17   S    
C51   H23   S    
C3    O6    A    
C51   N3    S    
C14   H2    S    
C4    O7    A    
C30   C34   S    
C51   C52   S    
C49   H29   S    
C52   H32   S    
C8    H38   S    
C19   H7    S    
C18   H6    S    
C41   H9    S    
Cu3   O13   S    
C26   F22   S    
C6    H34   S    
C22   C37   S    
C52   N4    S    
C17   C21   S    
C30   Cl3   S    
C48   H28   S    
Cu3   O7    S    
C28   F16   S    
C9    O9    A    
C20   C36   S    
C20   H8    S    
C19   C23   S    
C13   C33   S    
C49   N3    S    
C15   C27   S    
C47   C48   S    
C4    C39   S    
C2    O4    A    
C27   C40   S    
C29   Cl1   S    
Cu4   O16   S    
Cu2   O12   S    
C10   O11   A    
C10   C34   S    
C14   C26   S    
Cu4   O6    S    
C5    H35   S    
C1    C38   S    
C18   F6    S    
C17   F5    S    
C22   F18   S    
C3    C40   S    
C43   H14   S    
C42   H11   S    
C31   C35   S    
C51   H31   S    
C6    N2    S    
C46   H18   S    
C7    H39   S    
C23   F11   S    
Cu1   O9    S    
C9    O10   A    
Cu4   O14   S    
C31   C41   S    
C18   C22   S    
C15   H3    S    
Cu2   O2    S    
C45   H25   S    
C5    N1    S    
C13   C25   S    
C13   F1    S    
Cu1   Cu2   S    
C41   H10   S    
C32   Cl8   S    
Cu1   N2    S    
C23   C38   S    
C48   N2    S    
C50   N4    S    
C47   N1    S    
C23   F19   S    
C11   C35   S    
C8    N4    S    
C47   H19   S    
C45   N1    S    
C25   C39   S    
C2    C37   S    
Cu1   O11   S    
Cu3   O15   S    
C2    O3    A    
Cu1   O3    S    
C6    H36   S    
C29   Cl2   S    
C49   H21   S    
C44   H16   S    
C37   C41   S    
C11   O13   A    
C27   F23   S    
C20   F8    S    
C50   H30   S    
C31   Cl5   S    
C40   C44   S    
C21   C37   S    
C39   C43   S    
C49   C50   S    
C24   F12   S    
C32   C42   S    
C17   C35   S    
Cu4   N3    S    
C52   H24   S    
C21   F9    S    
C1    O2    A    
C5    H33   S    
C12   O16   A    
