data_mof_unit_66871.cif
_audit_creation_date              2013-03-05T15:57:22-0500
_audit_creation_method            fapswitch 2.2
_symmetry_space_group_name_H-M    P1
_symmetry_Int_Tables_number       1
_space_group_crystal_system       triclinic
_cell_length_a                    17.339879
_cell_length_b                    18.46635
_cell_length_c                    8.364002
_cell_angle_alpha                 90.0
_cell_angle_beta                  101.934496
_cell_angle_gamma                 90.095449
_cell_volume                      2620.29542096

loop_
_atom_site_label
_atom_site_type_symbol
_atom_site_description
_atom_site_fract_x
_atom_site_fract_y
_atom_site_fract_z
_atom_type_partial_charge
P1    P     P_3+3 0.834140 0.419320 0.003900 0.964659
P2    P     P_3+3 0.834140 0.580680 0.503900 0.965371
P3    P     P_3+3 0.334140 0.919320 0.003900 0.962905
P4    P     P_3+3 0.334140 0.080680 0.503900 0.969696
O1    O     O_2   0.841960 0.394640 0.833410 -0.475190
O2    O     O_2   0.841960 0.605360 0.333410 -0.475690
O3    O     O_2   0.341960 0.894640 0.833410 -0.467766
O4    O     O_2   0.341960 0.105360 0.333410 -0.479501
O5    O     O_3   0.907950 0.463080 0.102990 -0.486447
O6    O     O_3   0.907950 0.536920 0.602990 -0.485507
O7    O     O_3   0.407950 0.963080 0.102990 -0.494736
O8    O     O_3   0.407950 0.036920 0.602990 -0.483393
O9    O     O_3   0.972780 0.329600 0.629720 -0.483106
O10   O     O_3   0.972780 0.670400 0.129720 -0.482887
O11   O     O_3   0.472780 0.829600 0.629720 -0.482659
O12   O     O_3   0.472780 0.170400 0.129720 -0.485396
O13   O     O_2   0.848974 0.265312 0.704916 -0.474661
O14   O     O_2   0.848404 0.733532 0.204003 -0.474388
O15   O     O_2   0.348647 0.765956 0.704149 -0.474793
O16   O     O_2   0.347712 0.232477 0.204137 -0.469591
O17   O     O_3   0.752285 0.476720 0.966624 -0.652163
O18   O     O_3   0.751852 0.523545 0.466759 -0.651745
O19   O     O_3   0.252152 0.976248 0.962892 -0.649637
O20   O     O_3   0.252097 0.023244 0.468634 -0.645856
O21   O     O_3   0.955789 0.179383 0.630338 -0.609228
O22   O     O_3   0.955607 0.820625 0.135013 -0.605810
O23   O     O_3   0.455834 0.679265 0.634311 -0.606644
O24   O     O_3   0.454770 0.320411 0.135717 -0.606919
H1    H     H_    0.065706 0.226903 0.705384 0.105186
H2    H     H_    0.066265 0.773530 0.201746 0.100560
H3    H     H_    0.566355 0.726734 0.702687 0.101767
H4    H     H_    0.565502 0.273477 0.203255 0.101896
C1    C     C_3   0.076684 0.119392 0.620547 -0.394718
C2    C     C_3   0.075395 0.882775 0.125212 -0.402660
C3    C     C_3   0.575941 0.617785 0.624646 -0.401432
C4    C     C_3   0.574864 0.382613 0.126567 -0.403748
H5    H     H_    0.636828 0.625415 0.606139 0.069597
H6    H     H_    0.635226 0.375427 0.104699 0.068768
H7    H     H_    0.140753 0.128698 0.632035 0.070449
H8    H     H_    0.135573 0.875885 0.102103 0.069262
H9    H     H_    0.065808 0.089954 0.728009 0.132193
H10   H     H_    0.078478 0.904925 0.249164 0.133551
H11   H     H_    0.577148 0.594524 0.746842 0.134178
H12   H     H_    0.577563 0.404992 0.250209 0.134641
P5    P     P_3+3 0.165830 0.418670 0.685610 0.956391
P6    P     P_3+3 0.165830 0.581330 0.185610 0.956480
P7    P     P_3+3 0.665830 0.918670 0.685610 0.956481
P8    P     P_3+3 0.665830 0.081330 0.185610 0.956183
P9    P     P_3+3 0.103190 0.265567 0.110985 0.940996
P10   P     P_3+3 0.103488 0.734375 0.610386 0.942919
P11   P     P_3+3 0.603294 0.765626 0.110404 0.942456
P12   P     P_3+3 0.603400 0.234406 0.610512 0.942410
O25   O     O_2   0.157990 0.394030 0.856030 -0.465217
O26   O     O_2   0.157990 0.605970 0.356030 -0.465833
O27   O     O_2   0.657990 0.894030 0.856030 -0.465491
O28   O     O_2   0.657990 0.105970 0.356030 -0.465935
O29   O     O_3   0.027110 0.329490 0.059550 -0.468538
O30   O     O_3   0.027110 0.670510 0.559550 -0.468687
O31   O     O_3   0.527110 0.829490 0.059550 -0.468442
O32   O     O_3   0.527110 0.170510 0.559550 -0.468891
O33   O     O_2   0.166101 0.282826 0.010865 -0.484321
O34   O     O_2   0.166393 0.717108 0.510403 -0.482258
O35   O     O_2   0.666081 0.782714 0.009877 -0.482736
O36   O     O_2   0.666297 0.217239 0.510432 -0.482419
O37   O     O_3   0.245297 0.478410 0.728238 -0.649186
O38   O     O_3   0.245224 0.521717 0.227549 -0.649402
O39   O     O_3   0.745215 0.978465 0.728150 -0.649341
O40   O     O_3   0.745213 0.021712 0.227449 -0.649159
O41   O     O_3   0.066949 0.182712 0.029178 -0.598336
O42   O     O_3   0.067806 0.817297 0.528791 -0.599624
O43   O     O_3   0.567103 0.682728 0.029086 -0.598725
O44   O     O_3   0.567529 0.317274 0.529097 -0.599835
C5    C     C_3   0.026721 0.150628 0.139194 0.324897
C6    C     C_3   0.027950 0.849510 0.639076 0.320360
C7    C     C_3   0.527186 0.650631 0.139586 0.321468
C8    C     C_3   0.527540 0.349378 0.639333 0.320837
H13   H     H_    0.974852 0.184425 0.149673 0.009545
H14   H     H_    0.975800 0.815879 0.649208 0.011754
H15   H     H_    0.475201 0.684282 0.149977 0.010796
H16   H     H_    0.475236 0.315851 0.648909 0.011608
H17   H     H_    0.066453 0.143326 0.260364 -0.025851
H18   H     H_    0.067636 0.856652 0.760585 -0.020658
H19   H     H_    0.566960 0.643443 0.260930 -0.022009
H20   H     H_    0.567066 0.356341 0.761088 -0.021967
C9    C     C_3   0.999137 0.075906 0.075205 -0.184949
C10   C     C_3   0.001008 0.924366 0.575655 -0.181693
C11   C     C_3   0.499916 0.575829 0.075984 -0.183454
C12   C     C_3   0.500952 0.424324 0.576111 -0.183495
H21   H     H_    0.455474 0.581258 0.961036 0.120294
H22   H     H_    0.456532 0.419123 0.461033 0.120072
H23   H     H_    0.955007 0.081552 0.959847 0.119091
H24   H     H_    0.956737 0.918981 0.460417 0.120184
H25   H     H_    0.050388 0.046683 0.046853 0.089470
H26   H     H_    0.052404 0.953861 0.547558 0.092734
H27   H     H_    0.551247 0.546833 0.047022 0.089458
H28   H     H_    0.552565 0.453224 0.547570 0.090616
C13   C     C_3   0.218895 0.451900 0.252686 0.285771
C14   C     C_3   0.218872 0.548190 0.752602 0.285380
C15   C     C_3   0.718877 0.951861 0.252270 0.285560
C16   C     C_3   0.718727 0.048179 0.752857 0.285826
H29   H     H_    0.193524 0.451469 0.363527 0.002440
H30   H     H_    0.192456 0.548640 0.862105 0.003787
H31   H     H_    0.693721 0.951247 0.363390 0.001878
H32   H     H_    0.691840 0.048423 0.861747 0.004404
H33   H     H_    0.174779 0.432364 0.146210 0.097090
H34   H     H_    0.175532 0.567653 0.644990 0.097222
H35   H     H_    0.674601 0.932444 0.145933 0.096949
H36   H     H_    0.675742 0.067828 0.644895 0.097362
C17   C     C_3   0.288869 0.401018 0.275505 -0.366084
C18   C     C_3   0.289002 0.599123 0.777874 -0.369219
C19   C     C_3   0.788795 0.900965 0.274121 -0.364406
C20   C     C_3   0.788945 0.099024 0.779847 -0.372133
H37   H     H_    0.327369 0.411334 0.395639 0.084966
H38   H     H_    0.326276 0.589177 0.899423 0.085085
H39   H     H_    0.827743 0.911401 0.393678 0.085422
H40   H     H_    0.825710 0.088795 0.901790 0.085724
H41   H     H_    0.269263 0.344158 0.271855 0.113646
H42   H     H_    0.269397 0.655933 0.772449 0.115134
H43   H     H_    0.769175 0.844138 0.271184 0.113712
H44   H     H_    0.769428 0.155856 0.774577 0.115252
H45   H     H_    0.322207 0.409191 0.176965 0.142993
H46   H     H_    0.323590 0.590671 0.681557 0.143832
H47   H     H_    0.821632 0.908985 0.174708 0.142056
H48   H     H_    0.824022 0.090724 0.684311 0.144475
Ba1   Ba    Ba6+2 0.000000 0.447380 0.844850 1.633587
Ba2   Ba    Ba6+2 0.000000 0.552620 0.344850 1.633591
Ba3   Ba    Ba6+2 0.500000 0.947380 0.844850 1.634087
Ba4   Ba    Ba6+2 0.500000 0.052620 0.344850 1.632772
C21   C     C_3   0.767825 0.539813 0.885810 0.272665
C22   C     C_3   0.765517 0.461700 0.379990 0.272587
C23   C     C_3   0.272490 0.044718 0.911871 0.267182
C24   C     C_3   0.265317 0.961926 0.379656 0.273854
H49   H     H_    0.741059 0.533306 0.754602 0.054361
H50   H     H_    0.734451 0.468847 0.251491 0.056076
H51   H     H_    0.262109 0.045026 0.776879 0.033548
H52   H     H_    0.233982 0.969754 0.251398 0.046068
H53   H     H_    0.831613 0.552254 0.899842 0.030292
H54   H     H_    0.828844 0.450867 0.383631 0.027654
H55   H     H_    0.334098 0.061488 0.963870 0.050591
H56   H     H_    0.328585 0.951083 0.382333 0.025069
C25   C     C_3   0.727976 0.603127 0.952272 -0.387861
C26   C     C_3   0.729911 0.396848 0.450638 -0.387960
C27   C     C_3   0.218658 0.099673 0.966634 -0.359149
C28   C     C_3   0.229956 0.896693 0.449426 -0.376177
H57   H     H_    0.671183 0.585790 0.980917 0.141492
H58   H     H_    0.674541 0.412361 0.487999 0.143427
H59   H     H_    0.157470 0.078864 0.938725 0.128866
H60   H     H_    0.174525 0.911877 0.486991 0.144195
H61   H     H_    0.717310 0.648020 0.862858 0.077881
H62   H     H_    0.717379 0.352440 0.360172 0.076438
H63   H     H_    0.222101 0.153084 0.906228 0.091528
H64   H     H_    0.217614 0.852494 0.358404 0.072490
H65   H     H_    0.765738 0.623805 0.065203 0.152871
H66   H     H_    0.771421 0.376394 0.558746 0.151749
H67   H     H_    0.234941 0.106086 0.101004 0.137395
H68   H     H_    0.271535 0.876176 0.557447 0.151954
O45   O     O_3   0.092100 0.536880 0.086720 -0.498648
O46   O     O_3   0.092100 0.463120 0.586720 -0.498781
O47   O     O_3   0.592100 0.036880 0.086720 -0.499052
O48   O     O_3   0.592100 0.963120 0.586720 -0.498708
P13   P     P_3+3 0.903977 0.739779 0.081892 0.956146
P14   P     P_3+3 0.903905 0.260180 0.581291 0.955545
P15   P     P_3+3 0.403453 0.239361 0.082501 0.958118
P16   P     P_3+3 0.404102 0.759974 0.581754 0.955583
C29   C     C_3   0.033185 0.190726 0.607963 0.374495
C30   C     C_3   0.032533 0.810909 0.108754 0.384562
C31   C     C_3   0.532881 0.689460 0.608884 0.382381
C32   C     C_3   0.531855 0.310795 0.110015 0.383557
H69   H     H_    0.033310 0.214151 0.485612 -0.088835
H70   H     H_    0.031509 0.789658 0.983943 -0.095435
H71   H     H_    0.532090 0.711119 0.484539 -0.094296
H72   H     H_    0.531080 0.289467 0.985353 -0.093699
H73   H     H_    0.545799 0.579722 0.531174 0.109374
H74   H     H_    0.543813 0.421065 0.035316 0.110208
H75   H     H_    0.055417 0.085871 0.511498 0.103980
H76   H     H_    0.043732 0.921280 0.034925 0.110463
C33   C     C_R   0.137122 0.678923 0.926798 -0.275759
C34   C     C_R   0.137541 0.321355 0.427078 -0.276409
C35   C     C_R   0.637005 0.178993 0.926884 -0.275662
C36   C     C_R   0.637370 0.821034 0.426818 -0.276215
C37   C     C_R   0.864582 0.321025 0.266721 -0.267060
C38   C     C_R   0.864879 0.679397 0.766457 -0.267060
C39   C     C_R   0.364798 0.820811 0.266694 -0.265645
C40   C     C_R   0.363640 0.178367 0.768215 -0.274551
C41   C     C_R   0.791859 0.212464 0.303942 -0.110081
C42   C     C_R   0.792179 0.787755 0.804018 -0.109788
C43   C     C_R   0.292180 0.712167 0.303781 -0.109754
C44   C     C_R   0.292206 0.287751 0.804617 -0.112306
C45   C     C_R   0.849487 0.264076 0.365951 -0.014753
C46   C     C_R   0.849863 0.736283 0.865938 -0.016286
C47   C     C_R   0.349909 0.763697 0.365872 -0.016938
C48   C     C_R   0.349315 0.235797 0.866902 -0.016101
C49   C     C_R   0.817710 0.332462 0.111027 0.055190
C50   C     C_R   0.817923 0.667776 0.610826 0.055192
C51   C     C_R   0.317813 0.832346 0.111000 0.054676
C52   C     C_R   0.317364 0.167411 0.611840 0.057837
C53   C     C_R   0.757102 0.280732 0.048088 -0.045259
C54   C     C_R   0.757359 0.719463 0.547937 -0.044720
C55   C     C_R   0.257275 0.780583 0.048024 -0.045134
C56   C     C_R   0.256983 0.219346 0.549120 -0.044903
C57   C     C_R   0.244794 0.719133 0.145307 -0.058280
C58   C     C_R   0.244811 0.280891 0.646162 -0.059496
C59   C     C_R   0.744582 0.219306 0.145403 -0.059092
C60   C     C_R   0.744893 0.780870 0.645388 -0.058271
C61   C     C_R   0.184001 0.667635 0.081547 0.045989
C62   C     C_R   0.184234 0.332474 0.582050 0.046073
C63   C     C_R   0.683890 0.167713 0.081610 0.046296
C64   C     C_R   0.684166 0.832341 0.581653 0.045215
C65   C     C_R   0.152247 0.735547 0.828396 -0.035566
C66   C     C_R   0.152110 0.264480 0.329184 -0.033472
C67   C     C_R   0.652111 0.235631 0.828498 -0.034547
C68   C     C_R   0.652336 0.764435 0.328352 -0.034666
C69   C     C_R   0.210026 0.787175 0.889512 -0.100687
C70   C     C_R   0.209289 0.212608 0.391316 -0.093992
C71   C     C_R   0.709860 0.287299 0.889580 -0.100264
C72   C     C_R   0.710015 0.712825 0.389439 -0.099099
H77   H     H_    0.284852 0.667280 0.381801 0.112732
H78   H     H_    0.285208 0.332780 0.882495 0.112874
H79   H     H_    0.784585 0.167582 0.382016 0.113462
H80   H     H_    0.784798 0.832539 0.882213 0.112625
H81   H     H_    0.717838 0.331309 0.809940 0.100151
H82   H     H_    0.717822 0.668747 0.309949 0.098903
H83   H     H_    0.218000 0.831188 0.809885 0.103127
H84   H     H_    0.216329 0.167934 0.313983 0.090170
H85   H     H_    0.091710 0.640042 0.876982 0.059549
H86   H     H_    0.092447 0.360344 0.376978 0.058806
H87   H     H_    0.591625 0.140087 0.877049 0.059641
H88   H     H_    0.592046 0.859863 0.377041 0.059023
H89   H     H_    0.910809 0.359283 0.315325 0.063997
H90   H     H_    0.911116 0.641265 0.814850 0.062702
H91   H     H_    0.410926 0.859148 0.315386 0.064459
H92   H     H_    0.408931 0.139464 0.817425 0.060491
C73   C     C_3   0.467987 0.530548 0.201284 -0.295412
C74   C     C_3   0.407134 0.570330 0.275640 -0.389594
H93   H     H_    0.433213 0.617553 0.347912 0.115283
H94   H     H_    0.358655 0.589683 0.177718 0.148367
H95   H     H_    0.384387 0.533681 0.359764 0.164424
H96   H     H_    0.440658 0.480409 0.141955 0.152957
H97   H     H_    0.517990 0.514408 0.299447 0.121687
C75   C     C_3   0.469210 0.469531 0.701582 -0.296119
C76   C     C_3   0.407387 0.430043 0.774061 -0.390487
H98   H     H_    0.358931 0.411233 0.675173 0.148555
H99   H     H_    0.432640 0.382544 0.846230 0.114804
H100  H     H_    0.384713 0.466765 0.858001 0.164570
H101  H     H_    0.519193 0.484927 0.800709 0.121796
H102  H     H_    0.442825 0.520063 0.642897 0.153473
C77   C     C_3   0.966680 0.030423 0.199556 -0.293785
C78   C     C_3   0.906946 0.070594 0.276338 -0.388024
H103  H     H_    0.934042 0.117218 0.349355 0.117945
H104  H     H_    0.858420 0.090880 0.179731 0.147110
H105  H     H_    0.884095 0.033900 0.360220 0.165001
H106  H     H_    0.938329 0.980967 0.138793 0.152273
H107  H     H_    0.016461 0.012888 0.296634 0.121362
C79   C     C_3   0.968766 0.969102 0.701034 -0.296880
C80   C     C_3   0.906679 0.929439 0.772224 -0.389933
H108  H     H_    0.858371 0.910813 0.672813 0.148058
H109  H     H_    0.931849 0.881903 0.844411 0.114306
H110  H     H_    0.883927 0.966027 0.856278 0.164919
H111  H     H_    0.018448 0.983821 0.801320 0.119138
H112  H     H_    0.942807 0.019896 0.642807 0.153191

loop_
_geom_bond_atom_site_label_1
_geom_bond_atom_site_label_2
_geom_bond_distance
_ccdc_geom_bond_type
C24   C28   1.520909 S    
P6    C61   1.873117 S    
C15   H31   1.105375 S    
C80   H109  1.103575 S    
P1    O17   1.748507 S    
P5    C62   1.871290 S    
C14   C18   1.515892 S    
C39   H91   1.081759 S    
C26   H58   1.107491 S    
P3    O19   1.745628 S    
O3    Ba3   2.889653 S    
C2    H10   1.105436 S    
O4    Ba4   2.892728 S    
C4    C32   1.512678 S    
C28   H60   1.107686 S    
O24   P15   1.749790 S    
C7    H19   1.110917 S    
C3    H11   1.104857 S    
C18   H42   1.101359 S    
C12   H28   1.108840 S    
C9    H23   1.105558 S    
C25   H61   1.106379 S    
O9    P14   1.740286 S    
O8    Ba3   2.836760 S    
P2    O2    1.529470 D    
C77   H106  1.108693 S    
C75   H101  1.105162 S    
C4    H74   1.099056 S    
O26   Ba2   2.892989 S    
C1    H7    1.108229 S    
P11   O43   1.737844 S    
P7    C64   1.874722 S    
P1    O1    1.529604 D    
C79   H111  1.104522 S    
O38   C13   1.397351 S    
P7    O27   1.528789 D    
C3    H5    1.107055 S    
P1    Ba1   3.447737 S    
O37   C14   1.397328 S    
C20   H48   1.110520 S    
P3    O3    1.529604 D    
O29   Ba1   2.799875 S    
P4    O20   1.748489 S    
O14   P13   1.546518 D    
P3    Ba3   3.447737 S    
C21   C25   1.521502 S    
C67   C71   1.399753 A    
O2    Ba2   2.892728 S    
O31   Ba3   2.799875 S    
C12   C75   1.530238 S    
C35   C67   1.388488 A    
C16   H32   1.105665 S    
P9    O29   1.757628 S    
C34   C66   1.386990 A    
C19   H43   1.101314 S    
C76   H98   1.105585 S    
C14   H34   1.106891 S    
C33   C65   1.388488 A    
C36   C68   1.388282 A    
C75   C76   1.521377 S    
C10   H26   1.109578 S    
C9    H25   1.107224 S    
P11   C68   1.845427 S    
C38   H90   1.081737 S    
C60   C64   1.437903 A    
P10   C65   1.844598 S    
C37   H89   1.081783 S    
C77   H107  1.104672 S    
C11   H27   1.108331 S    
P9    C66   1.846737 S    
P2    O18   1.748503 S    
P12   C67   1.844213 S    
C39   C51   1.402393 A    
C40   C48   1.397637 A    
O41   C5    1.395863 S    
P15   C48   1.853921 S    
C38   C50   1.401600 A    
P4    O8    1.594575 S    
O6    Ba1   2.836760 S    
P12   O32   1.756540 S    
C73   C74   1.521147 S    
C18   H38   1.101661 S    
C43   C47   1.399654 A    
C53   C71   1.412280 A    
C78   H105  1.105655 S    
P4    O4    1.529470 D    
O9    Ba1   2.799330 S    
C33   H85   1.082399 S    
C27   H63   1.115293 S    
C80   H110  1.105429 S    
C54   C72   1.412784 A    
P9    O41   1.738688 S    
O18   C22   1.399685 S    
C75   H102  1.108842 S    
C8    H20   1.111021 S    
C22   H50   1.106125 S    
C74   H94   1.105168 S    
C6    H18   1.110980 S    
C1    H75   1.100540 S    
C71   H81   1.077520 S    
C5    H17   1.109718 S    
C78   H104  1.105030 S    
C51   C55   1.435624 A    
P7    O48   1.599539 S    
Ba2   O46   2.836739 S    
O12   P15   1.741117 S    
C29   H69   1.111425 S    
P8    O47   1.597352 S    
C35   C63   1.394462 A    
C16   H36   1.106862 S    
P9    O33   1.539304 D    
P4    Ba4   3.449177 S    
C17   H41   1.101585 S    
P10   O30   1.757146 S    
C68   C72   1.400510 A    
O11   P16   1.740555 S    
O32   Ba4   2.798657 S    
P1    O5    1.592413 S    
H2    C30   1.112065 S    
P12   O36   1.539276 D    
C40   H92   1.081874 S    
P5    Ba1   3.451430 S    
C52   C56   1.437852 A    
C37   C45   1.397228 A    
C23   H55   1.110401 S    
Ba1   O46   2.953074 S    
O16   P15   1.546504 D    
C31   H71   1.111721 S    
O21   C29   1.408156 S    
C40   C52   1.400303 A    
P6    O45   1.597352 S    
C19   H47   1.110419 S    
C36   H88   1.082438 S    
C35   H87   1.082397 S    
P3    C51   1.888249 S    
O19   C23   1.402120 S    
C39   C47   1.398156 A    
C76   H99   1.103371 S    
C74   H95   1.105687 S    
C3    H73   1.099177 S    
C28   H68   1.100515 S    
C27   H59   1.106376 S    
C73   H96   1.108754 S    
C36   C64   1.394264 A    
C2    H76   1.098688 S    
O42   C6    1.395482 S    
C79   C80   1.520703 S    
P12   O44   1.737905 S    
C14   H30   1.105557 S    
O23   P16   1.749444 S    
P8    Ba4   3.449958 S    
C13   C17   1.516406 S    
O20   C24   1.399980 S    
C3    C31   1.513051 S    
C37   C49   1.401356 A    
C79   H112  1.109198 S    
O21   P14   1.748038 S    
C24   H52   1.107293 S    
C15   C19   1.516177 S    
P6    O26   1.528925 D    
C42   C60   1.413689 A    
O44   C8    1.395773 S    
P7    O39   1.741565 S    
C9    C77   1.531164 S    
C26   H66   1.100034 S    
C41   C45   1.399408 A    
O12   Ba4   2.800551 S    
O17   C21   1.400448 S    
O25   Ba1   2.896097 S    
O39   C16   1.397204 S    
C21   H49   1.106048 S    
P2    Ba2   3.449177 S    
C7    C11   1.519342 S    
H3    C31   1.112005 S    
O30   Ba2   2.798657 S    
C44   H78   1.078637 S    
H4    C32   1.112043 S    
P5    O37   1.742017 S    
Ba1   Ba2   4.611499 S    
P10   O34   1.539201 D    
C32   H72   1.112051 S    
C2    H8    1.107354 S    
C4    H12   1.105593 S    
P11   O31   1.757742 S    
C74   H93   1.102720 S    
C80   H108  1.105574 S    
P2    O6    1.594575 S    
Ba3   O47   2.833637 S    
C41   C59   1.413182 A    
C20   H40   1.101738 S    
C23   C27   1.513598 S    
C78   H103  1.102256 S    
Ba4   O48   2.836739 S    
C20   H44   1.101313 S    
C43   H77   1.078417 S    
Ba2   O45   2.953598 S    
C58   C62   1.438262 A    
P4    C52   1.890761 S    
P11   O35   1.539257 D    
C8    C12   1.519475 S    
O22   C30   1.407723 S    
C57   C61   1.436721 A    
C41   H79   1.078415 S    
P16   C47   1.856492 S    
C55   C69   1.412403 A    
Ba1   O45   2.833637 S    
C56   C70   1.410568 A    
P6    Ba2   3.449958 S    
C1    C29   1.511842 S    
P5    O46   1.599539 S    
C8    H16   1.113750 S    
C12   H22   1.105477 S    
P13   C46   1.856331 S    
P8    O40   1.742151 S    
C11   C73   1.530519 S    
C6    C10   1.519891 S    
O27   Ba3   2.896097 S    
C19   H39   1.101562 S    
C77   C78   1.520921 S    
C59   C63   1.436786 A    
P6    O38   1.742259 S    
C16   C20   1.515748 S    
Ba3   Ba4   4.611499 S    
C17   H37   1.101692 S    
C24   H56   1.111178 S    
C15   H35   1.107109 S    
C43   C57   1.413677 A    
O22   P13   1.748932 S    
C23   H51   1.105978 S    
O5    Ba2   2.833659 S    
O10   Ba2   2.800551 S    
C27   H67   1.107008 S    
C44   C48   1.400813 A    
C76   H100  1.105608 S    
C1    H9    1.099426 S    
C26   H62   1.106181 S    
O10   P13   1.741399 S    
C4    H6    1.107346 S    
O7    Ba4   2.833659 S    
C73   H97   1.105052 S    
O40   C15   1.397385 S    
C13   H33   1.107140 S    
C5    C9    1.520227 S    
C28   H64   1.106162 S    
C10   H24   1.105404 S    
C18   H46   1.110495 S    
C54   C60   1.438966 A    
C69   H83   1.077484 S    
C25   H65   1.100058 S    
C50   C54   1.437159 A    
C42   H80   1.078447 S    
P7    Ba3   3.451430 S    
C49   C53   1.435963 A    
C34   C62   1.393985 A    
P8    C63   1.873584 S    
C44   C58   1.413184 A    
C25   H57   1.107354 S    
C30   H70   1.111917 S    
C33   C61   1.394598 A    
C53   C59   1.438246 A    
C17   H45   1.110409 S    
H1    C29   1.112186 S    
O15   P16   1.546715 D    
O28   Ba4   2.892989 S    
P10   O42   1.738364 S    
C22   C26   1.520850 S    
C65   C69   1.399634 A    
C34   H86   1.082464 S    
C72   H82   1.077259 S    
P3    O7    1.592413 S    
O13   P14   1.546937 D    
O24   C32   1.408553 S    
P5    O25   1.528789 D    
C10   C79   1.529296 S    
C21   H53   1.111483 S    
P8    O28   1.528925 D    
C56   C58   1.437578 A    
C6    H14   1.113721 S    
O1    Ba1   2.889653 S    
C55   C57   1.438258 A    
C11   H21   1.105470 S    
C5    H13   1.113812 S    
P1    C49   1.886977 S    
O11   Ba3   2.799330 S    
C42   C46   1.400371 A    
C38   C46   1.397899 A    
P2    C50   1.889763 S    
C66   C70   1.400242 A    
C2    C30   1.512260 S    
C7    H15   1.113784 S    
Ba3   O48   2.953074 S    
P14   C45   1.853880 S    
C13   H29   1.105322 S    
C70   H84   1.070907 S    
Ba4   O47   2.953598 S    
O23   C31   1.407898 S    
O43   C7    1.395635 S    
C22   H54   1.110703 S    
