data_mof_unit_32650.cif
_audit_creation_date              2013-03-05T16:45:09-0500
_audit_creation_method            fapswitch 2.2
_symmetry_space_group_name_H-M    P1
_symmetry_Int_Tables_number       1
_space_group_crystal_system       triclinic
_cell_length_a                    14.80559
_cell_length_b                    15.60998
_cell_length_c                    9.947091
_cell_angle_alpha                 88.642676
_cell_angle_beta                  92.309717
_cell_angle_gamma                 90.841933
_cell_volume                      2296.19211417

loop_
_atom_site_label
_atom_site_type_symbol
_atom_site_description
_atom_site_fract_x
_atom_site_fract_y
_atom_site_fract_z
_atom_type_partial_charge
O1    O     O_R   0.408400 0.908380 0.614690 -0.612775
O2    O     O_R   0.408400 0.091620 0.614690 -0.574163
O3    O     O_R   0.908400 0.408380 0.614690 -0.612795
O4    O     O_R   0.908400 0.591620 0.614690 -0.574166
O5    O     O_R   0.408370 0.908370 0.385350 -0.590545
O6    O     O_R   0.408370 0.091630 0.385350 -0.601069
O7    O     O_R   0.908370 0.408370 0.385350 -0.590550
O8    O     O_R   0.908370 0.591630 0.385350 -0.601095
C1    C     C_R   0.386993 0.874226 0.499630 0.914966
C2    C     C_R   0.380932 0.121267 0.496895 0.948883
C3    C     C_R   0.886995 0.374225 0.499630 0.914965
C4    C     C_R   0.880904 0.621245 0.496900 0.948775
Zn1   Zn    Zn3+2 0.500010 0.000000 0.653130 1.064186
Zn2   Zn    Zn3+2 0.000010 0.500000 0.653130 1.064192
Zn3   Zn    Zn3+2 0.499980 0.000000 0.346870 1.044339
Zn4   Zn    Zn3+2 0.999980 0.500000 0.346870 1.044299
O9    O     O_R   0.591610 0.091610 0.614650 -0.598223
O10   O     O_R   0.591610 0.908390 0.614650 -0.561260
O11   O     O_R   0.091610 0.591610 0.614650 -0.598180
O12   O     O_R   0.091610 0.408390 0.614650 -0.561261
O13   O     O_R   0.591590 0.091600 0.385310 -0.632704
O14   O     O_R   0.591590 0.908400 0.385310 -0.613433
O15   O     O_R   0.091590 0.591600 0.385310 -0.632740
O16   O     O_R   0.091590 0.408400 0.385310 -0.613440
C5    C     C_R   0.622992 0.117406 0.500558 0.933905
C6    C     C_R   0.618137 0.878819 0.502769 0.902669
C7    C     C_R   0.122990 0.617407 0.500558 0.933905
C8    C     C_R   0.118136 0.378817 0.502765 0.902695
C9    C     C_R   0.299880 0.229517 0.611168 0.101228
C10   C     C_R   0.311072 0.757598 0.621285 0.020277
C11   C     C_R   0.799844 0.729489 0.611184 0.101086
C12   C     C_R   0.811066 0.257602 0.621289 0.020245
C13   C     C_R   0.313226 0.187288 0.492286 -0.220250
C14   C     C_R   0.340365 0.792176 0.499656 -0.183135
C15   C     C_R   0.813144 0.687217 0.492323 -0.220237
C16   C     C_R   0.840368 0.292173 0.499660 -0.183113
C17   C     C_R   0.254477 0.203724 0.379408 0.283695
C18   C     C_R   0.318156 0.747848 0.379666 0.312913
C19   C     C_R   0.754305 0.703567 0.379519 0.284005
C20   C     C_R   0.818170 0.247837 0.379674 0.312906
C21   C     C_R   0.683554 0.759621 0.390870 -0.165574
C22   C     C_R   0.747450 0.187701 0.381534 -0.223237
C23   C     C_R   0.183674 0.259717 0.390778 -0.165646
C24   C     C_R   0.247438 0.687711 0.381528 -0.223249
H1    H     H_    0.640876 0.773748 0.302242 0.245867
H2    H     H_    0.725456 0.157536 0.288624 0.214060
H3    H     H_    0.141029 0.273877 0.302128 0.245893
H4    H     H_    0.225438 0.657553 0.288616 0.214057
C25   C     C_R   0.675923 0.806205 0.507712 -0.225219
C26   C     C_R   0.702815 0.170270 0.501418 -0.108279
C27   C     C_R   0.175953 0.306222 0.507683 -0.225193
C28   C     C_R   0.202812 0.670272 0.501417 -0.108325
C29   C     C_R   0.730794 0.787096 0.621012 0.143922
C30   C     C_R   0.741698 0.198579 0.622084 0.019990
C31   C     C_R   0.230807 0.287103 0.620994 0.143966
C32   C     C_R   0.241704 0.698574 0.622082 0.020013
C33   C     C_3   0.789716 0.847247 0.701885 0.112002
C34   C     C_3   0.701773 0.236871 0.742846 0.145507
C35   C     C_3   0.289700 0.347266 0.701888 0.111966
C36   C     C_3   0.201787 0.736858 0.742856 0.145491
C37   C     C_3   0.366513 0.286985 0.682173 -0.424078
C38   C     C_3   0.278862 0.801175 0.741571 -0.399130
C39   C     C_3   0.866505 0.786933 0.682175 -0.424065
C40   C     C_3   0.778846 0.301189 0.741557 -0.399081
H5    H     H_    0.799694 0.911799 0.654711 0.135650
H6    H     H_    0.703669 0.195450 0.834351 0.158317
H7    H     H_    0.299660 0.411825 0.654730 0.135667
H8    H     H_    0.203688 0.695434 0.834356 0.158317
H9    H     H_    0.417541 0.314177 0.613552 0.225851
H10   H     H_    0.326880 0.795212 0.830037 0.217968
H11   H     H_    0.917543 0.814099 0.613549 0.225825
H12   H     H_    0.826859 0.295236 0.830032 0.217956
H13   H     H_    0.395293 0.258024 0.775973 0.312800
H14   H     H_    0.256599 0.866238 0.713968 0.277310
H15   H     H_    0.895269 0.757965 0.775981 0.312781
H16   H     H_    0.756584 0.366249 0.713929 0.277298
C41   C     C_R   0.427224 0.968210 0.068420 0.162499
C42   C     C_R   0.927239 0.468179 0.068421 0.162323
N1    N     N_R   0.499140 0.000000 0.142800 -0.106017
N2    N     N_R   0.999140 0.500000 0.142800 -0.106049
C43   C     C_R   0.575699 0.018688 0.078250 -0.030495
C44   C     C_R   0.075694 0.518707 0.078250 -0.030504
H17   H     H_    0.635691 0.034099 0.139058 0.182421
H18   H     H_    0.135681 0.534134 0.139057 0.182423
C45   C     C_R   0.577938 0.015955 0.935603 0.049068
C46   C     C_R   0.077935 0.515967 0.935603 0.049122
N3    N     N_R   0.499160 1.000000 0.857150 -0.129198
N4    N     N_R   0.999160 0.500000 0.857150 -0.129166
C47   C     C_R   0.423967 0.976271 0.925701 0.019813
C48   C     C_R   0.923973 0.476254 0.925703 0.019828
C49   C     C_3   0.336610 0.025324 0.935760 0.445176
C50   C     C_3   0.836608 0.525295 0.935794 0.445114
C51   C     C_3   0.334642 0.997839 0.083237 -0.452455
C52   C     C_3   0.834651 0.497774 0.083255 -0.452160
H19   H     H_    0.333737 0.049454 0.155483 0.259448
H20   H     H_    0.289213 0.942817 0.107419 0.238540
H21   H     H_    0.833757 0.549363 0.155538 0.259494
H22   H     H_    0.789239 0.442735 0.107418 0.238561
N5    N     N_R   0.273445 0.177421 0.247666 0.196362
O17   O     O_R   0.346623 0.207191 0.194186 -0.282395
O18   O     O_R   0.207011 0.150849 0.168832 -0.310416
N6    N     N_R   0.363514 0.764394 0.256456 0.223355
O19   O     O_R   0.451422 0.767277 0.257664 -0.362477
O20   O     O_R   0.318773 0.760736 0.141335 -0.382585
N7    N     N_R   0.773134 0.677115 0.247812 0.196234
O21   O     O_R   0.846120 0.707030 0.193964 -0.282393
O22   O     O_R   0.706649 0.650280 0.169314 -0.310598
N8    N     N_R   0.863544 0.264371 0.256475 0.223339
O23   O     O_R   0.951453 0.267267 0.257711 -0.362466
O24   O     O_R   0.818821 0.260688 0.141343 -0.382576
N9    N     N_R   0.765819 0.849199 0.843290 0.287341
O25   O     O_R   0.685449 0.825998 0.879985 -0.302343
O26   O     O_R   0.823735 0.879440 0.932514 -0.280462
N10   N     N_R   0.614278 0.277429 0.716123 0.231112
O27   O     O_R   0.596742 0.318960 0.603203 -0.384831
O28   O     O_R   0.561568 0.286761 0.815953 -0.306986
N11   N     N_R   0.265791 0.349196 0.843290 0.287380
O29   O     O_R   0.185416 0.325996 0.879960 -0.302303
O30   O     O_R   0.323700 0.379424 0.932536 -0.280412
N12   N     N_R   0.114290 0.777417 0.716147 0.231140
O31   O     O_R   0.096762 0.818984 0.603258 -0.384812
O32   O     O_R   0.061554 0.786686 0.815962 -0.307067
C53   C     C_2   0.669045 0.028380 0.880727 0.923636
O33   O     O_2   0.685490 0.004034 0.769646 -0.607192
O34   O     O_R   0.739648 0.062696 0.961643 -0.797119
H23   H     H_    0.799156 0.066113 0.914596 0.376644
C54   C     C_2   0.169045 0.528384 0.880732 0.923591
O35   O     O_2   0.185487 0.504042 0.769648 -0.607217
O36   O     O_R   0.239652 0.562685 0.961656 -0.797115
H24   H     H_    0.299161 0.566097 0.914610 0.376650
N13   N     N_R   0.348184 0.118381 0.921129 0.221343
O37   O     O_R   0.276553 0.165292 0.905618 -0.245649
O38   O     O_R   0.424689 0.155030 0.957087 -0.361160
N14   N     N_R   0.260330 0.993846 0.851625 0.192086
O39   O     O_R   0.190313 0.957708 0.905703 -0.303028
O40   O     O_R   0.253090 0.019524 0.726285 -0.367247
N15   N     N_R   0.848162 0.618357 0.921221 0.221329
O41   O     O_R   0.924677 0.655005 0.957131 -0.361252
O42   O     O_R   0.776516 0.665262 0.905874 -0.245478
N16   N     N_R   0.760330 0.493826 0.851650 0.192070
O43   O     O_R   0.753075 0.519539 0.726328 -0.367278
O44   O     O_R   0.690323 0.457660 0.905718 -0.302942

loop_
_geom_bond_atom_site_label_1
_geom_bond_atom_site_label_2
_geom_bond_distance
_ccdc_geom_bond_type
C24   H4    1.083389 S    
C31   C35   1.498319 S    
Zn4   O16   2.004917 S    
N9    O25   1.302463 A    
O10   C6    1.292567 A    
N10   O27   1.302407 A    
C53   O33   1.211972 D    
C19   C21   1.384488 A    
C42   C48   1.421181 A    
C18   C24   1.396299 A    
N15   O42   1.299654 A    
C41   C47   1.421177 A    
C26   C30   1.388999 A    
Zn1   O10   2.038510 S    
C12   C16   1.395590 A    
C3    C16   1.446056 S    
N16   O44   1.302176 A    
N11   O30   1.300939 A    
C8    C27   1.428922 S    
C42   N2    1.365914 A    
C53   O34   1.401291 S    
C49   N13   1.464689 S    
C52   H22   1.110966 S    
C9    C13   1.389800 A    
N8    O23   1.301239 A    
C38   H10   1.111803 S    
C36   C38   1.509054 S    
C22   H2    1.083390 S    
C21   C25   1.394769 A    
O2    Zn1   2.005142 S    
C5    C26   1.431294 S    
C35   H7    1.111845 S    
O6    Zn3   2.038833 S    
C34   H6    1.103598 S    
Zn3   O14   2.004917 S    
Zn3   N1    2.029441 S    
C33   C39   1.508494 S    
O15   C7    1.290749 A    
C47   C49   1.520632 S    
O11   C7    1.296659 A    
C27   C31   1.391566 A    
C20   N8    1.437355 S    
C24   C28   1.405586 A    
C41   N1    1.365912 A    
N15   O41   1.302393 A    
O8    Zn4   2.038833 S    
C50   N15   1.464699 S    
C12   C30   1.369763 A    
C43   H17   1.081644 S    
N12   O32   1.299595 A    
O7    C3    1.292978 A    
C45   N3    1.399537 A    
C34   C40   1.509055 S    
C9    C37   1.491537 S    
C35   C37   1.508454 S    
C10   C14   1.395593 A    
C11   C39   1.491523 S    
C16   C20   1.418556 A    
O1    C1    1.299732 A    
N16   O43   1.301299 A    
C12   C40   1.488552 S    
N2    C44   1.349919 A    
C6    C25   1.428885 S    
C33   H5    1.111849 S    
N1    C43   1.349921 A    
C29   C33   1.498324 S    
N14   O40   1.301302 A    
C9    C31   1.379380 A    
C52   H21   1.092782 S    
C37   H13   1.100060 S    
C44   C46   1.422312 A    
C10   C32   1.369767 A    
C13   C17   1.413260 A    
C32   C36   1.500423 S    
Zn4   N2    2.029441 S    
C17   C23   1.384483 A    
C15   C19   1.413253 A    
C54   O36   1.401291 S    
O5    C1    1.292973 A    
Zn2   O12   2.038510 S    
C49   C51   1.519919 S    
N7    O22   1.302136 A    
C48   C50   1.520662 S    
N5    O17   1.301064 A    
O8    C4    1.294791 A    
Zn1   N3    2.029953 S    
C50   C52   1.519909 S    
C40   H16   1.097670 S    
N9    O26   1.300933 A    
C11   C29   1.379336 A    
C4    C15   1.446896 S    
N6    O20   1.301603 A    
O3    Zn2   1.989571 S    
C22   C26   1.405593 A    
O7    Zn4   1.997735 S    
N5    O18   1.302179 A    
C39   H11   1.111422 S    
C51   H20   1.110964 S    
C44   H18   1.081642 S    
N3    C47   1.370643 A    
O34   H23   1.014290 S    
C11   C15   1.389828 A    
O4    C4    1.301460 A    
C35   N11   1.465262 S    
C54   O35   1.211966 D    
O2    C2    1.301505 A    
C17   N5    1.422414 S    
C7    C28   1.431289 S    
C41   C51   1.467203 S    
O36   H24   1.014292 S    
C30   C34   1.500427 S    
C37   H9    1.111424 S    
C19   N7    1.422329 S    
O13   C5    1.290748 A    
C46   C54   1.483827 S    
C14   C18   1.418560 A    
Zn2   O11   1.997415 S    
O16   C8    1.294407 A    
N4    C48   1.370638 A    
N13   O38   1.302388 A    
O6    C2    1.294737 A    
N10   O28   1.299612 A    
N14   O39   1.302155 A    
Zn4   O15   1.989348 S    
O12   C8    1.292610 A    
N7    O21   1.301009 A    
Zn1   O9    1.997415 S    
O9    C5    1.296661 A    
C10   C38   1.488563 S    
Zn2   N4    2.029953 S    
C18   N6    1.437353 S    
N11   O29   1.302457 A    
C23   C27   1.394802 A    
C33   N9    1.465263 S    
C49   N14   1.464349 S    
C39   H15   1.100067 S    
C42   C52   1.467135 S    
C25   C29   1.391578 A    
C20   C22   1.396314 A    
N8    O24   1.301603 A    
C1    C14   1.446048 S    
C45   C53   1.483832 S    
C2    C13   1.446883 S    
C46   N4    1.399543 A    
C40   H12   1.111804 S    
O4    Zn2   2.005142 S    
N6    O19   1.301235 A    
O5    Zn3   1.997735 S    
O3    C3    1.299731 A    
C36   N12   1.462197 S    
C28   C32   1.389001 A    
Zn3   O13   1.989348 S    
O1    Zn1   1.989572 S    
C36   H8    1.103590 S    
C51   H19   1.092848 S    
O14   C6    1.294436 A    
C34   N10   1.462188 S    
C21   H1    1.084012 S    
N12   O31   1.302405 A    
C38   H14   1.097656 S    
C23   H3    1.084014 S    
C43   C45   1.422309 A    
N13   O37   1.299647 A    
C50   N16   1.464331 S    
