data_mof_unit_31782.cif
_audit_creation_date              2012-12-11T14:49:50-0500
_audit_creation_method            fapswitch 2.2
_symmetry_space_group_name_H-M    P1
_symmetry_Int_Tables_number       1
_space_group_crystal_system       monoclinic
_cell_length_a                    10.994355
_cell_length_b                    10.994355
_cell_length_c                    18.963226
_cell_angle_alpha                 90.0
_cell_angle_beta                  90.0
_cell_angle_gamma                 120.000182
_cell_volume                      1985.09624554

loop_
_atom_site_label
_atom_site_type_symbol
_atom_type_description
_atom_site_fract_x
_atom_site_fract_y
_atom_site_fract_z
_atom_type_partial_charge
C1    C     C_R   0.529768 0.465411 0.645682 0.570971
C2    C     C_R   0.463671 0.527367 0.354469 0.552010
C3    C     C_R   0.472633 0.936304 0.145530 0.552010
C4    C     C_R   0.063696 0.536329 0.354469 0.552010
C5    C     C_R   0.430725 0.063642 0.530279 -0.136106
C6    C     C_R   0.632917 0.569273 0.969721 -0.136106
C7    C     C_R   0.936359 0.367083 0.530279 -0.136106
C8    C     C_R   0.430727 0.063644 0.969721 -0.136106
C9    C     C_R   0.632917 0.569276 0.530279 -0.136106
C10   C     C_R   0.936357 0.367084 0.969721 -0.136106
C11   C     C_R   0.960822 0.381636 0.041807 -0.144152
C12   C     C_R   0.935642 0.470232 0.854318 0.570970
C13   C     C_R   0.618365 0.579188 0.458193 -0.144150
C14   C     C_R   0.420815 0.039179 0.041807 -0.144151
C15   C     C_R   0.960823 0.381636 0.458193 -0.144151
C16   C     C_R   0.618364 0.579185 0.041807 -0.144151
C17   C     C_R   0.420813 0.039177 0.458193 -0.144150
C18   C     C_R   0.498496 0.984861 0.427465 0.000747
C19   C     C_R   0.486365 0.501504 0.072535 0.000748
C20   C     C_R   0.015138 0.513634 0.427465 0.000747
C21   C     C_R   0.498495 0.984860 0.072535 0.000747
C22   C     C_R   0.486366 0.501504 0.427465 0.000747
C23   C     C_R   0.534589 0.064357 0.645682 0.570970
C24   C     C_R   0.015139 0.513635 0.072535 0.000747
C25   C     C_R   0.984061 0.486910 0.926735 0.015088
C26   C     C_R   0.513091 0.497152 0.573265 0.015088
C27   C     C_R   0.502848 0.015939 0.926735 0.015088
C28   C     C_R   0.984061 0.486910 0.573265 0.015088
C29   C     C_R   0.513091 0.497151 0.926735 0.015088
C30   C     C_R   0.502848 0.015939 0.573265 0.015088
C31   C     C_R   0.589365 0.957678 0.470128 0.092769
C32   C     C_R   0.368312 0.410636 0.029872 0.092769
C33   C     C_R   0.042322 0.631687 0.470128 0.092769
C34   C     C_R   0.529768 0.465410 0.854318 0.570971
C35   C     C_R   0.589363 0.957675 0.029872 0.092770
C36   C     C_R   0.368313 0.410635 0.470128 0.092769
C37   C     C_R   0.042323 0.631687 0.029872 0.092769
C38   C     C_R   0.046655 0.621069 0.957100 0.095212
C39   C     C_R   0.378931 0.425586 0.542900 0.095212
C40   C     C_R   0.574412 0.953343 0.957099 0.095212
C41   C     C_R   0.046654 0.621070 0.542900 0.095212
C42   C     C_R   0.378931 0.425586 0.957100 0.095212
C43   C     C_R   0.574414 0.953345 0.542900 0.095212
C44   C     C_R   0.935642 0.470232 0.645682 0.570970
C45   C     C_R   0.534589 0.064358 0.854318 0.570970
C46   C     C_R   0.463671 0.527366 0.145531 0.552011
C47   C     C_R   0.472633 0.936304 0.354469 0.552010
C48   C     C_R   0.063696 0.536329 0.145530 0.552010
Cr1   Cr    Cr6+3 0.776430 0.541680 0.750000 1.111646
Cr2   Cr    Cr6+3 0.765250 0.223570 0.750000 1.111646
Cr3   Cr    Cr6+3 0.458320 0.234750 0.750000 1.111647
Cr4   Cr    Cr6+3 0.541680 0.776430 0.250000 1.101725
Cr5   Cr    Cr6+3 0.223570 0.765250 0.250000 1.101724
Cr6   Cr    Cr6+3 0.234750 0.458320 0.250000 1.101724
H1    H     H_    0.379939 0.117637 0.552556 0.186055
H2    H     H_    0.933202 0.290033 0.426137 0.182791
H3    H     H_    0.709967 0.643165 0.073864 0.182789
H4    H     H_    0.356831 0.066798 0.426137 0.182790
H5    H     H_    0.737699 0.620058 0.947444 0.186053
H6    H     H_    0.882364 0.262301 0.552557 0.186056
H7    H     H_    0.379943 0.117641 0.947444 0.186053
H8    H     H_    0.737699 0.620062 0.552556 0.186055
H9    H     H_    0.882361 0.262302 0.947444 0.186054
H10   H     H_    0.933200 0.290034 0.073863 0.182790
H11   H     H_    0.709967 0.643170 0.426137 0.182791
H12   H     H_    0.356836 0.066802 0.073864 0.182789
I1    I     I_    0.771469 0.952566 0.431698 -0.247990
I2    I     I_    0.146496 0.808833 0.606500 -0.229024
I3    I     I_    0.191168 0.337666 0.893499 -0.229022
I4    I     I_    0.662334 0.853502 0.606501 -0.229024
I5    I     I_    0.181095 0.228533 0.068302 -0.247987
I6    I     I_    0.047433 0.818903 0.431698 -0.247989
I7    I     I_    0.771465 0.952560 0.068301 -0.247987
I8    I     I_    0.181097 0.228531 0.431698 -0.247989
I9    I     I_    0.047437 0.818904 0.068302 -0.247987
I10   I     I_    0.146497 0.808832 0.893499 -0.229022
I11   I     I_    0.191168 0.337666 0.606501 -0.229024
I12   I     I_    0.662329 0.853499 0.893498 -0.229023
O1    O     O_R   0.916700 0.566820 0.669930 -0.480818
O2    O     O_R   0.566820 0.916700 0.330070 -0.484268
O3    O     O_R   0.083300 0.650120 0.169930 -0.484268
O4    O     O_R   0.349880 0.433180 0.330070 -0.484268
O5    O     O_R   0.649840 0.534790 0.674920 -0.493138
O6    O     O_R   0.884950 0.350160 0.825080 -0.493138
O7    O     O_R   0.465210 0.115050 0.674920 -0.493138
O8    O     O_R   0.649840 0.534790 0.825080 -0.493137
O9    O     O_R   0.884950 0.350160 0.674920 -0.493138
O10   O     O_R   0.465210 0.115050 0.825080 -0.493138
O11   O     O_R   0.534790 0.649840 0.174920 -0.486689
O12   O     O_R   0.650120 0.083300 0.830070 -0.480818
O13   O     O_R   0.350160 0.884950 0.325080 -0.486689
O14   O     O_R   0.115050 0.465210 0.174920 -0.486689
O15   O     O_R   0.534790 0.649840 0.325080 -0.486689
O16   O     O_R   0.350160 0.884950 0.174920 -0.486689
O17   O     O_R   0.115050 0.465210 0.325080 -0.486689
O18   O     O_3   0.666667 0.333333 0.750000 -0.311402
O19   O     O_3   0.333333 0.666667 0.250000 -0.289468
O20   O     O_R   0.433180 0.349880 0.669930 -0.480818
O21   O     O_R   0.916700 0.566820 0.830070 -0.480819
O22   O     O_R   0.650120 0.083300 0.669930 -0.480818
O23   O     O_R   0.433180 0.349880 0.830070 -0.480819
O24   O     O_R   0.566820 0.916700 0.169930 -0.484268
O25   O     O_R   0.083300 0.650120 0.330070 -0.484267
O26   O     O_R   0.349880 0.433180 0.169930 -0.484268

loop_
_geom_bond_atom_site_label_1
_geom_bond_atom_site_label_2
_ccdc_geom_bond_type
C29   C42   A    
Cr4   O19   S    
C10   H9    S    
C18   C47   S    
Cr3   O7    S    
C19   C46   S    
Cr2   O6    S    
C46   O11   A    
C13   H11   S    
C31   I1    S    
Cr4   O24   S    
C31   C43   A    
C39   I11   S    
C14   C21   A    
Cr6   O26   S    
C26   C39   A    
C5    C17   A    
C4    O25   A    
C11   C24   A    
C48   O3    A    
C12   O6    A    
Cr5   O3    S    
C34   O8    A    
C9    C13   A    
C12   O21   A    
C33   I6    S    
Cr2   O12   S    
Cr5   O13   S    
Cr6   O19   S    
C41   I2    S    
C44   O9    A    
C2    O15   A    
Cr3   O18   S    
C27   C45   S    
Cr3   O20   S    
C7    C15   A    
C23   O22   A    
C37   I9    S    
Cr4   O11   S    
C47   O2    A    
C19   C32   A    
C6    H5    S    
C9    C26   A    
C24   C37   A    
C32   I5    S    
C36   C39   A    
C15   C20   A    
C34   O23   A    
C9    H8    S    
C24   C48   S    
C23   C30   S    
C45   O10   A    
C11   H10   S    
C38   I10   S    
Cr5   O19   S    
C46   O26   A    
C29   C34   S    
C28   C44   S    
C42   I3    S    
C7    C28   A    
Cr1   O1    S    
C1    O20   A    
Cr6   O14   S    
C37   C38   A    
C25   C38   A    
Cr1   O21   S    
C4    O17   A    
C27   C40   A    
C17   C18   A    
C14   H12   S    
Cr4   O15   S    
C45   O12   A    
Cr6   O17   S    
C36   I8    S    
Cr2   O9    S    
C20   C33   A    
C3    O24   A    
C43   I4    S    
C48   O14   A    
C1    C26   S    
C40   I12   S    
C30   C43   A    
C2    O4    A    
Cr3   O23   S    
C7    H6    S    
Cr6   O4    S    
C10   C25   A    
C5    C30   A    
C35   I7    S    
C8    C14   A    
Cr5   O16   S    
C47   O13   A    
Cr1   O8    S    
C5    H1    S    
C44   O1    A    
Cr3   O10   S    
C21   C35   A    
C1    O5    A    
C22   C36   A    
C17   H4    S    
Cr2   O22   S    
C12   C25   S    
C33   C41   A    
C15   H2    S    
Cr1   O5    S    
C35   C40   A    
C2    C22   S    
Cr2   O18   S    
Cr5   O25   S    
C16   C19   A    
C13   C22   A    
C3    O16   A    
C16   H3    S    
Cr1   O18   S    
C8    H7    S    
C3    C21   S    
C10   C11   A    
C6    C16   A    
C4    C20   S    
C6    C29   A    
C23   O7    A    
C8    C27   A    
C32   C42   A    
C18   C31   A    
Cr4   O2    S    
C28   C41   A    
