data_mof_unit_53439.cif
_audit_creation_date              2012-12-10T18:47:41-0500
_audit_creation_method            fapswitch 2.2
_symmetry_space_group_name_H-M    P1
_symmetry_Int_Tables_number       1
_space_group_crystal_system       triclinic
_cell_length_a                    9.944418
_cell_length_b                    10.718996
_cell_length_c                    15.153624
_cell_angle_alpha                 92.836067
_cell_angle_beta                  70.568261
_cell_angle_gamma                 90.060082
_cell_volume                      1521.2094438

loop_
_atom_site_label
_atom_site_type_symbol
_atom_type_description
_atom_site_fract_x
_atom_site_fract_y
_atom_site_fract_z
_atom_type_partial_charge
C1    C     C_R   0.500311 0.739820 0.499556 0.895833
C2    C     C_R   0.499848 0.260201 0.500268 0.886813
C3    C     C_R   0.453664 0.265083 0.051842 0.132212
C4    C     C_R   0.718067 0.433204 0.876905 0.126510
C5    C     C_R   0.350891 0.237702 0.007554 0.249183
C6    C     C_R   0.806616 0.483394 0.924581 0.252107
C7    C     C_R   0.626410 0.935754 0.491907 -0.150698
C8    C     C_R   0.374264 0.064321 0.507648 -0.144609
C9    C     C_R   0.625930 0.063569 0.492986 -0.121640
C10   C     C_R   0.375030 0.936581 0.505883 -0.124310
C11   C     C_R   0.499909 0.127635 0.500565 -0.039154
C12   C     C_R   0.500707 0.872441 0.498873 -0.040388
C13   C     C_R   0.956862 0.418377 0.441843 0.257663
C14   C     C_R   0.043857 0.584440 0.555976 0.279170
C15   C     C_R   0.099350 0.416667 0.443152 0.138713
C16   C     C_R   0.900053 0.583969 0.556797 0.155107
C17   C     C_R   0.412778 0.493185 0.675856 0.911243
C18   C     C_R   0.588518 0.498985 0.323817 0.901678
C19   C     C_R   0.371461 0.449469 0.771699 -0.087624
C20   C     C_R   0.646241 0.492953 0.221346 -0.104041
C21   C     C_R   0.239258 0.304510 0.887620 0.234923
C22   C     C_R   0.843301 0.531247 0.079575 0.244444
C23   C     C_R   0.255689 0.371282 0.807127 -0.184146
C24   C     C_R   0.782219 0.538166 0.176768 -0.184732
C25   C     C_R   0.470334 0.461816 0.817781 -0.143033
C26   C     C_R   0.573126 0.432493 0.168518 -0.165466
C27   C     C_R   0.468162 0.385417 0.890150 0.046719
C28   C     C_R   0.632615 0.419148 0.070686 0.063877
C29   C     C_R   0.348617 0.308320 0.930266 -0.026661
C30   C     C_R   0.763716 0.479670 0.023787 -0.017067
C31   C     C_R   0.580267 0.393335 0.927421 -0.044858
C32   C     C_R   0.553328 0.360308 0.018825 -0.054194
H1    H     H_    0.467629 0.398456 0.203698 0.189444
H2    H     H_    0.554646 0.528683 0.793596 0.195072
H3    H     H_    0.842399 0.579237 0.218458 0.187094
H4    H     H_    0.178878 0.360050 0.770832 0.203106
H5    H     H_    0.724903 0.887105 0.485446 0.184888
H6    H     H_    0.275549 0.112872 0.514601 0.190281
H7    H     H_    0.723956 0.111561 0.487719 0.201014
H8    H     H_    0.277333 0.888806 0.510263 0.197918
N1    N     N_R   0.142780 0.500030 0.500020 -0.158483
N2    N     N_R   0.857220 0.499970 0.499980 -0.155220
O1    O     O_R   0.385370 0.683250 0.500010 -0.591872
O2    O     O_R   0.614630 0.316750 0.499990 -0.586794
O3    O     O_R   0.614700 0.683220 0.500000 -0.613624
O4    O     O_R   0.385300 0.316780 0.500000 -0.611893
O5    O     O_R   0.319830 0.500020 0.632250 -0.561308
O6    O     O_R   0.680170 0.499980 0.367750 -0.581628
O7    O     O_R   0.549160 0.499990 0.632240 -0.594431
O8    O     O_R   0.450840 0.500010 0.367760 -0.598956
Zn1   Zn    Zn3+2 0.346870 0.500020 0.500000 1.035552
Zn2   Zn    Zn3+2 0.653130 0.499980 0.500000 1.030515
Br1   Br    Br    0.232319 0.095353 0.049569 -0.321554
Br2   Br    Br    0.963994 0.577475 0.850220 -0.375323
I1    I     I_    0.038343 0.214257 0.934111 -0.169286
I2    I     I_    0.060726 0.588159 0.037294 -0.194592
I3    I     I_    0.503815 0.130939 0.137439 -0.163862
I4    I     I_    0.810895 0.368544 0.733240 -0.281988
Br3   Br    Br    0.903987 0.307635 0.355456 -0.403983
Br4   Br    Br    0.099809 0.704869 0.634511 -0.365075
I5    I     I_    0.241907 0.280286 0.355485 -0.227902
I6    I     I_    0.751849 0.714163 0.650995 -0.200684

loop_
_geom_bond_atom_site_label_1
_geom_bond_atom_site_label_2
_ccdc_geom_bond_type
C19   C23   A    
C13   Br3   S    
C14   C16   A    
C16   N2    A    
C25   C27   A    
C14   Br4   S    
C26   H1    S    
C26   C28   A    
C31   C32   A    
C13   C15   A    
C9    H7    S    
C25   H2    S    
O7    Zn2   S    
O1    Zn1   S    
O2    Zn2   S    
C28   C30   A    
O8    Zn1   S    
C15   I5    S    
C21   I1    S    
C2    O4    A    
C9    C11   A    
C1    O3    A    
C7    C12   A    
C1    C12   S    
C20   C26   A    
C6    Br2   S    
C8    C11   A    
C2    C11   S    
C10   C12   A    
C28   C32   A    
C5    Br1   S    
C13   N2    A    
C17   C19   S    
N1    Zn1   S    
C5    C29   A    
C8    H6    S    
C21   C23   A    
C7    H5    S    
C3    C32   A    
C19   C25   A    
C14   N1    A    
C22   C24   A    
C4    C31   A    
C27   C29   A    
C15   N1    A    
C27   C31   A    
C24   H3    S    
C22   I2    S    
C3    I3    S    
O6    Zn2   S    
C2    O2    A    
C18   O8    A    
C18   C20   S    
C8    C10   A    
C23   H4    S    
C16   I6    S    
C4    I4    S    
C7    C9    A    
C10   H8    S    
O5    Zn1   S    
C22   C30   A    
O3    Zn2   S    
C6    C30   A    
C4    C6    A    
C21   C29   A    
O4    Zn1   S    
C1    O1    A    
C17   O7    A    
C20   C24   A    
C17   O5    A    
N2    Zn2   S    
C3    C5    A    
C18   O6    A    
