data_mof_unit_11272.cif
_audit_creation_date              2012-12-10T20:53:11-0500
_audit_creation_method            fapswitch 2.2
_symmetry_space_group_name_H-M    P1
_symmetry_Int_Tables_number       1
_space_group_crystal_system       triclinic
_cell_length_a                    18.362174
_cell_length_b                    18.362176
_cell_length_c                    18.361275
_cell_angle_alpha                 59.870664
_cell_angle_beta                  59.867491
_cell_angle_gamma                 59.864432
_cell_volume                      4364.44121986

loop_
_atom_site_label
_atom_site_type_symbol
_atom_type_description
_atom_site_fract_x
_atom_site_fract_y
_atom_site_fract_z
_atom_type_partial_charge
C1    C     C_R   0.389918 0.110168 0.110167 0.783050
C2    C     C_R   0.380853 0.805486 0.780042 -0.123504
C3    C     C_R   0.036113 0.549533 0.909315 0.071571
C4    C     C_R   0.450457 0.090689 0.963891 0.071608
C5    C     C_R   0.549526 0.909313 0.036105 0.071620
C6    C     C_R   0.945900 0.946019 0.553810 -0.158134
C7    C     C_R   0.054095 0.053984 0.446196 -0.158133
C8    C     C_R   0.946009 0.553841 0.945906 -0.157673
C9    C     C_R   0.053995 0.446165 0.054091 -0.157665
C10   C     C_R   0.553831 0.945911 0.946003 -0.157680
C11   C     C_R   0.446169 0.054096 0.053990 -0.157694
C12   C     C_R   0.194561 0.220196 0.618912 -0.123364
C13   C     C_R   0.805410 0.779650 0.381277 -0.123313
C14   C     C_R   0.177840 0.577567 0.284644 -0.129274
C15   C     C_R   0.822071 0.422512 0.715300 -0.129325
C16   C     C_R   0.577983 0.284451 0.177436 -0.129192
C17   C     C_R   0.422313 0.715475 0.822328 -0.128975
C18   C     C_R   0.284563 0.177859 0.577458 -0.128807
C19   C     C_R   0.715428 0.822004 0.422765 -0.128530
C20   C     C_R   0.088116 0.585340 0.314627 0.150107
C21   C     C_R   0.610082 0.889832 0.889831 0.783057
C22   C     C_R   0.911810 0.414673 0.685360 0.150158
C23   C     C_R   0.585439 0.314544 0.087794 0.149898
C24   C     C_R   0.414598 0.685425 0.912047 0.150027
C25   C     C_R   0.314604 0.088081 0.585369 0.150064
C26   C     C_R   0.685381 0.911849 0.414644 0.150154
C27   C     C_R   0.041233 0.635030 0.253935 -0.140869
C28   C     C_R   0.958673 0.364897 0.746076 -0.140852
C29   C     C_R   0.634783 0.253909 0.040870 -0.140718
C30   C     C_R   0.364972 0.746074 0.958978 -0.140970
C31   C     C_R   0.253956 0.041145 0.635189 -0.141115
C32   C     C_R   0.110165 0.110166 0.389924 0.782865
C33   C     C_R   0.746007 0.958829 0.364581 -0.141335
C34   C     C_R   0.083722 0.676531 0.164108 -0.123972
C35   C     C_R   0.916150 0.323377 0.835884 -0.124036
C36   C     C_R   0.676237 0.164020 0.083250 -0.123750
C37   C     C_R   0.323482 0.835926 0.916538 -0.123909
C38   C     C_R   0.164116 0.083635 0.676669 -0.124009
C39   C     C_R   0.835826 0.916321 0.323065 -0.124149
C40   C     C_R   0.173095 0.668523 0.134482 -0.111963
C41   C     C_R   0.826764 0.331447 0.865466 -0.111963
C42   C     C_R   0.668532 0.134280 0.172550 -0.111918
C43   C     C_R   0.889835 0.889834 0.610077 0.782878
C44   C     C_R   0.331440 0.865620 0.827166 -0.111952
C45   C     C_R   0.134430 0.173064 0.668511 -0.111973
C46   C     C_R   0.865517 0.826827 0.331434 -0.112037
C47   C     C_R   0.988064 0.591043 0.464656 -0.274685
C48   C     C_R   0.011922 0.408956 0.535346 -0.274606
C49   C     C_R   0.591079 0.464622 0.987938 -0.274294
C50   C     C_R   0.408928 0.535376 0.012019 -0.274310
C51   C     C_R   0.464636 0.988005 0.591064 -0.274275
C52   C     C_R   0.535365 0.011984 0.408938 -0.274219
C53   C     C_R   0.944458 0.552456 0.555084 -0.049427
C54   C     C_R   0.110164 0.389916 0.110171 0.783140
C55   C     C_R   0.055527 0.447544 0.444918 -0.049407
C56   C     C_R   0.552452 0.555086 0.944464 -0.049564
C57   C     C_R   0.447555 0.444912 0.055495 -0.049550
C58   C     C_R   0.555079 0.944437 0.552459 -0.049548
C59   C     C_R   0.444920 0.055547 0.447544 -0.049518
C60   C     C_R   0.956398 0.460168 0.590905 -0.011886
C61   C     C_R   0.043574 0.539835 0.409094 -0.011892
C62   C     C_R   0.460130 0.590936 0.956515 -0.011938
C63   C     C_R   0.539884 0.409056 0.043416 -0.011962
C64   C     C_R   0.590917 0.956427 0.460153 -0.011891
C65   C     C_R   0.889839 0.610084 0.889825 0.783146
C66   C     C_R   0.409080 0.043545 0.539853 -0.011914
C67   C     C_R   0.110866 0.390421 0.389756 0.784169
C68   C     C_R   0.889128 0.609579 0.610244 0.784144
C69   C     C_R   0.390425 0.389756 0.110853 0.784316
C70   C     C_R   0.609576 0.610244 0.889136 0.784294
C71   C     C_R   0.389757 0.110874 0.390422 0.784328
C72   C     C_R   0.610243 0.889121 0.609579 0.784282
C73   C     C_R   0.180780 0.926835 0.400818 -0.145889
C74   C     C_R   0.819207 0.073166 0.599238 -0.145831
C75   C     C_R   0.926151 0.402835 0.181452 -0.145935
C76   C     C_R   0.220175 0.619042 0.194657 -0.123535
C77   C     C_R   0.073837 0.597235 0.818560 -0.145943
C78   C     C_R   0.402748 0.181448 0.926172 -0.145974
C79   C     C_R   0.597187 0.818540 0.073839 -0.145944
C80   C     C_R   0.215812 0.838088 0.405340 -0.145227
C81   C     C_R   0.784171 0.161908 0.594753 -0.145237
C82   C     C_R   0.837026 0.408440 0.216836 -0.145039
C83   C     C_R   0.162954 0.591662 0.783182 -0.145039
C84   C     C_R   0.408288 0.216823 0.837063 -0.145170
C85   C     C_R   0.591572 0.783143 0.162972 -0.145163
C86   C     C_R   0.162186 0.784616 0.458596 -0.153176
C87   C     C_R   0.779703 0.381014 0.805268 -0.123558
C88   C     C_R   0.837807 0.215378 0.541480 -0.153102
C89   C     C_R   0.783499 0.461852 0.163244 -0.153170
C90   C     C_R   0.216484 0.538237 0.836773 -0.153133
C91   C     C_R   0.461691 0.163222 0.783538 -0.153074
C92   C     C_R   0.538184 0.836744 0.216495 -0.153107
C93   C     C_R   0.073253 0.819592 0.507652 -0.153452
C94   C     C_R   0.926739 0.180405 0.492383 -0.153448
C95   C     C_R   0.818822 0.509918 0.073970 -0.153254
C96   C     C_R   0.181173 0.490127 0.926034 -0.153269
C97   C     C_R   0.509818 0.073961 0.818842 -0.153548
C98   C     C_R   0.619411 0.194405 0.219661 -0.123527
C99   C     C_R   0.490143 0.926032 0.181163 -0.153549
C100  C     C_R   0.035794 0.909855 0.503645 0.073259
C101  C     C_R   0.964200 0.090147 0.496369 0.073196
C102  C     C_R   0.909458 0.504772 0.036169 0.073314
C103  C     C_R   0.090542 0.495247 0.963831 0.073284
C104  C     C_R   0.504731 0.036169 0.909462 0.073166
C105  C     C_R   0.495261 0.963834 0.090532 0.073177
C106  C     C_R   0.090325 0.964258 0.449438 0.071691
C107  C     C_R   0.909666 0.035746 0.550584 0.071665
C108  C     C_R   0.963886 0.450493 0.090687 0.071595
H1    H     H_    0.810280 0.284443 0.537744 0.128980
H2    H     H_    0.338568 0.563003 0.019875 0.173841
H3    H     H_    0.437022 0.980197 0.661412 0.173814
H4    H     H_    0.562977 0.019795 0.338588 0.173772
H5    H     H_    0.225604 0.965284 0.359365 0.125649
H6    H     H_    0.774383 0.034716 0.640697 0.125666
H7    H     H_    0.964669 0.361289 0.226224 0.124812
H8    H     H_    0.035311 0.638798 0.773795 0.124852
H9    H     H_    0.361200 0.226217 0.964696 0.124799
H10   H     H_    0.638730 0.773770 0.035314 0.124771
H11   H     H_    0.205764 0.700473 0.064847 0.127510
H12   H     H_    0.189710 0.715547 0.462356 0.129004
H13   H     H_    0.794069 0.299477 0.935086 0.127559
H14   H     H_    0.700436 0.064595 0.205142 0.127450
H15   H     H_    0.299506 0.935275 0.794531 0.127491
H16   H     H_    0.064782 0.205736 0.700434 0.127485
H17   H     H_    0.935149 0.794145 0.299482 0.127531
H18   H     H_    0.289515 0.612509 0.171563 0.120999
H19   H     H_    0.710355 0.387589 0.828329 0.121009
H20   H     H_    0.613103 0.171231 0.288947 0.120948
H21   H     H_    0.387351 0.828628 0.710704 0.120989
H22   H     H_    0.171422 0.289576 0.612268 0.121064
H23   H     H_    0.285838 0.533638 0.808977 0.128807
H24   H     H_    0.828553 0.710223 0.388078 0.121079
H25   H     H_    0.214890 0.538967 0.330733 0.103346
H26   H     H_    0.785038 0.461171 0.669193 0.103303
H27   H     H_    0.539647 0.330498 0.214520 0.103542
H28   H     H_    0.460866 0.669421 0.785240 0.103388
H29   H     H_    0.330614 0.214952 0.538758 0.103326
H30   H     H_    0.669395 0.784880 0.461648 0.103170
H31   H     H_    0.047466 0.714627 0.117403 0.132284
H32   H     H_    0.952390 0.285214 0.882608 0.132285
H33   H     H_    0.714050 0.117352 0.046970 0.132259
H34   H     H_    0.714136 0.466489 0.191049 0.128804
H35   H     H_    0.285441 0.882600 0.952828 0.132284
H36   H     H_    0.117444 0.047340 0.714857 0.132320
H37   H     H_    0.882479 0.952653 0.284685 0.132343
H38   H     H_    0.285037 0.810585 0.367716 0.134020
H39   H     H_    0.714940 0.189409 0.632410 0.133991
H40   H     H_    0.809278 0.371544 0.286303 0.133658
H41   H     H_    0.190692 0.628606 0.713726 0.133658
H42   H     H_    0.371334 0.286280 0.809332 0.133749
H43   H     H_    0.628456 0.713665 0.190725 0.133734
H44   H     H_    0.034690 0.774879 0.549018 0.124625
H45   H     H_    0.533563 0.808935 0.285858 0.128943
H46   H     H_    0.965315 0.225111 0.451001 0.124623
H47   H     H_    0.774117 0.551397 0.035384 0.123482
H48   H     H_    0.225878 0.448639 0.964621 0.123484
H49   H     H_    0.551287 0.035364 0.774143 0.123577
H50   H     H_    0.448689 0.964631 0.225860 0.123568
H51   H     H_    0.972222 0.640888 0.276076 0.115820
H52   H     H_    0.027695 0.358983 0.723970 0.115806
H53   H     H_    0.640389 0.276138 0.971921 0.115691
H54   H     H_    0.359165 0.723884 0.027982 0.115737
H55   H     H_    0.276135 0.972098 0.641148 0.115779
H56   H     H_    0.466258 0.191013 0.714194 0.128951
H57   H     H_    0.723830 0.027925 0.358460 0.115794
H58   H     H_    0.980295 0.661376 0.437057 0.173781
H59   H     H_    0.019691 0.338623 0.562944 0.173745
H60   H     H_    0.661439 0.436992 0.980080 0.173870
O1    O     O_3   0.250000 0.250000 0.250000 -0.486559
O2    O     O_R   0.865800 0.694910 0.573470 -0.642044
O3    O     O_R   0.305090 0.426530 0.134200 -0.641861
O4    O     O_R   0.694910 0.573470 0.865800 -0.641863
O5    O     O_R   0.426530 0.134200 0.305090 -0.641897
O6    O     O_R   0.573470 0.865800 0.694910 -0.641904
O7    O     O_R   0.134190 0.426530 0.134200 -0.637890
O8    O     O_R   0.865810 0.573470 0.865800 -0.637875
O9    O     O_R   0.426530 0.134200 0.134190 -0.637896
O10   O     O_R   0.573470 0.865800 0.865810 -0.637857
O11   O     O_R   0.134200 0.134190 0.426530 -0.638086
O12   O     O_3   0.750000 0.750000 0.750000 -0.486563
O13   O     O_R   0.865800 0.865810 0.573470 -0.638037
O14   O     O_R   0.426530 0.305080 0.134210 -0.630773
O15   O     O_R   0.573470 0.694920 0.865790 -0.630782
O16   O     O_R   0.305080 0.134210 0.426530 -0.630720
O17   O     O_R   0.694920 0.865790 0.573470 -0.630721
O18   O     O_R   0.134210 0.426530 0.305080 -0.630732
O19   O     O_R   0.865790 0.573470 0.694920 -0.630740
O20   O     O_R   0.305080 0.134200 0.134200 -0.637783
O21   O     O_R   0.694920 0.865800 0.865800 -0.637799
O22   O     O_R   0.134200 0.134200 0.305080 -0.637800
O23   O     O_R   0.865800 0.865800 0.694920 -0.637834
O24   O     O_R   0.134200 0.305080 0.134200 -0.637650
O25   O     O_R   0.865800 0.694920 0.865800 -0.637663
O26   O     O_R   0.134200 0.305090 0.426530 -0.642028
Zn1   Zn    Zn3+2 0.206620 0.206630 0.380140 0.964084
Zn2   Zn    Zn3+2 0.793380 0.793370 0.619860 0.964097
Zn3   Zn    Zn3+2 0.206630 0.380140 0.206620 0.964260
Zn4   Zn    Zn3+2 0.793370 0.619860 0.793380 0.964254
Zn5   Zn    Zn3+2 0.380140 0.206620 0.206630 0.964215
Zn6   Zn    Zn3+2 0.619860 0.793380 0.793370 0.964233
Zn7   Zn    Zn3+2 0.206620 0.206620 0.206620 0.958158
Zn8   Zn    Zn3+2 0.793380 0.793380 0.793380 0.958141

loop_
_geom_bond_atom_site_label_1
_geom_bond_atom_site_label_2
_ccdc_geom_bond_type
C25   C31   A    
C48   C55   A    
C73   C80   A    
C49   C63   A    
O5    Zn5   S    
C76   H18   S    
O20   Zn7   S    
C46   H17   S    
C36   C42   A    
C1    C11   S    
C75   C82   A    
C50   H2    S    
C58   C72   S    
C87   H19   S    
O1    Zn1   S    
C15   H26   S    
O11   Zn1   S    
C9    C108  A    
C29   C36   A    
C59   C71   S    
C33   C39   A    
C82   C89   A    
C12   H22   S    
C34   C40   A    
C23   C29   A    
O1    Zn3   S    
C86   C93   A    
O12   Zn8   S    
C42   C98   A    
C59   C66   A    
C22   C60   S    
C13   C46   A    
C98   H20   S    
C52   H4    S    
C27   H51   S    
C89   H34   S    
C74   H6    S    
C79   H10   S    
C4    C104  A    
C34   H31   S    
C28   H52   S    
C2    H21   S    
C73   H5    S    
C55   C67   S    
C69   O3    A    
C41   H13   S    
C20   C61   S    
O13   Zn2   S    
C19   C26   A    
C70   O4    A    
O7    Zn3   S    
C38   C45   A    
C80   C86   A    
C74   C107  A    
C25   C66   S    
C1    O9    A    
C85   C92   A    
C15   C22   A    
C94   C101  A    
C2    C44   A    
C81   H39   S    
C11   C105  A    
C51   H3    S    
O24   Zn7   S    
O18   Zn3   S    
O4    Zn4   S    
C92   H45   S    
O23   Zn8   S    
C72   O6    A    
C5    C79   A    
C67   O26   A    
O12   Zn2   S    
C95   C102  A    
C94   H46   S    
C69   O14   A    
O1    Zn5   S    
C48   C60   A    
C23   C63   S    
O26   Zn1   S    
C6    C107  A    
C43   O23   A    
C8    C65   S    
C10   C21   S    
C22   C28   A    
C71   O5    A    
C2    C17   A    
C18   C25   A    
C68   O2    A    
C41   C87   A    
C53   C68   S    
C53   C60   A    
C57   C63   A    
C65   O25   A    
C27   C34   A    
C58   C64   A    
C99   C105  A    
C31   H55   S    
C17   C24   A    
C13   C19   A    
O19   Zn4   S    
C97   C104  A    
C14   C20   A    
C78   H9    S    
C28   C35   A    
C49   H60   S    
C3    C8    A    
C52   C64   A    
C47   H58   S    
C5    C105  A    
O1    Zn7   S    
C45   H16   S    
C43   O13   A    
O25   Zn8   S    
C40   C76   A    
C30   C37   A    
C51   C66   A    
C6    C100  A    
C54   O7    A    
C89   C95   A    
C18   H29   S    
C36   H33   S    
C85   H43   S    
C4    C78   A    
O12   Zn6   S    
C52   C59   A    
C29   H53   S    
C35   H32   S    
C14   H25   S    
C26   C33   A    
C21   O21   A    
C9    C103  A    
C39   H37   S    
C17   H28   S    
C88   H1    S    
C7    C106  A    
C32   O22   A    
C32   O11   A    
C51   C58   A    
C91   C97   A    
C4    C11   A    
C102  C108  A    
C93   C100  A    
C54   O24   A    
C39   C46   A    
C90   H23   S    
C21   O10   A    
C84   C91   A    
C16   C23   A    
C56   C70   S    
C6    C43   S    
C65   O8    A    
O9    Zn5   S    
C50   C62   A    
C56   C62   A    
C91   H56   S    
C99   H50   S    
C75   H7    S    
C30   H54   S    
C74   C81   A    
C77   H8    S    
C79   C85   A    
C42   H14   S    
C15   C87   A    
C1    O20   A    
C3    C103  A    
C83   C90   A    
O10   Zn6   S    
C24   C62   S    
C7    C32   S    
C37   H35   S    
C14   C76   A    
C50   C57   A    
C38   H36   S    
C71   O16   A    
C33   H57   S    
O14   Zn5   S    
O8    Zn4   S    
C12   C45   A    
C47   C61   A    
C82   H40   S    
C67   O18   A    
O22   Zn7   S    
C90   C96   A    
C20   C27   A    
C26   C64   S    
O21   Zn8   S    
O16   Zn1   S    
C44   H15   S    
O6    Zn6   S    
O15   Zn6   S    
C31   C38   A    
C47   C53   A    
C37   C44   A    
C10   C104  A    
C5    C10   A    
O3    Zn3   S    
C49   C56   A    
O2    Zn2   S    
C16   C98   A    
C73   C106  A    
C96   H48   S    
C48   H59   S    
C19   H30   S    
C55   C61   A    
C80   H38   S    
C13   H24   S    
C95   H47   S    
C84   H42   S    
C35   C41   A    
C24   C30   A    
C72   O17   A    
C81   C88   A    
O12   Zn4   S    
C100  C106  A    
C68   O19   A    
C78   C84   A    
C70   O15   A    
C75   C108  A    
C40   H11   S    
C7    C101  A    
C96   C103  A    
C12   C18   A    
C101  C107  A    
C88   C94   A    
C77   C83   A    
C93   H44   S    
C86   H12   S    
C9    C54   S    
O17   Zn2   S    
C57   C69   S    
C16   H27   S    
C8    C102  A    
C92   C99   A    
C97   H49   S    
C83   H41   S    
C3    C77   A    
