data_mof_unit_54164.cif
_audit_creation_date              2012-12-11T14:21:04-0500
_audit_creation_method            fapswitch 2.2
_symmetry_space_group_name_H-M    P1
_symmetry_Int_Tables_number       1
_space_group_crystal_system       triclinic
_cell_length_a                    21.971156
_cell_length_b                    7.211021
_cell_length_c                    14.859824
_cell_angle_alpha                 89.552235
_cell_angle_beta                  106.595986
_cell_angle_gamma                 89.830796
_cell_volume                      2256.13198081

loop_
_atom_site_label
_atom_site_type_symbol
_atom_type_description
_atom_site_fract_x
_atom_site_fract_y
_atom_site_fract_z
_atom_type_partial_charge
O1    O     O_R   0.584770 0.505770 0.002090 -0.541545
O2    O     O_R   0.415230 0.005770 0.997910 -0.541540
O3    O     O_R   0.467060 0.173340 0.861950 -0.539724
O4    O     O_R   0.532940 0.673340 0.138050 -0.540055
C1    C     C_R   0.454099 0.344954 0.825882 0.706915
C2    C     C_R   0.545473 0.843185 0.174125 0.708098
O5    O     O_R   0.587510 0.175890 0.993210 -0.540133
O6    O     O_R   0.412490 0.675890 0.006790 -0.540415
O7    O     O_R   0.536540 0.008150 0.130100 -0.535617
O8    O     O_R   0.463460 0.508150 0.869900 -0.537491
C3    C     C_R   0.612988 0.344716 0.997619 0.728953
C4    C     C_R   0.387003 0.845049 0.002390 0.726490
O9    O     O_3   0.483140 0.340040 0.044760 -0.377490
O10   O     O_3   0.516860 0.840040 0.955240 -0.377760
V1    V     V_3+5 0.503130 0.064190 0.991700 1.411451
V2    V     V_3+5 0.496870 0.564190 0.008300 1.406660
C5    C     C_2   0.213963 0.727411 0.002368 -0.131606
C6    C     C_2   0.786357 0.227986 0.997691 -0.129204
C7    C     C_2   0.180279 0.886532 0.996056 -0.305950
C8    C     C_2   0.819663 0.387144 0.003803 -0.307416
H1    H     H_    0.190899 0.596393 0.007542 0.138187
H2    H     H_    0.809775 0.097209 0.992757 0.139685
H3    H     H_    0.201840 0.018948 0.989676 0.127737
H4    H     H_    0.797784 0.519394 0.009866 0.128712
C9    C     C_2   0.281818 0.714789 0.001973 -0.136528
C10   C     C_2   0.718489 0.214617 0.997881 -0.141627
C11   C     C_2   0.319872 0.861606 0.003177 -0.302492
C12   C     C_2   0.680114 0.361136 0.996916 -0.303782
H5    H     H_    0.300982 0.575937 0.001425 0.137301
H6    H     H_    0.699624 0.075634 0.998128 0.136848
H7    H     H_    0.301959 0.001301 0.004458 0.129967
H8    H     H_    0.697813 0.500913 0.996015 0.132922
C13   C     C_R   0.928101 0.894613 0.723345 -0.032013
C14   C     C_R   0.072790 0.380951 0.275992 -0.025626
C15   C     C_R   0.576129 0.846686 0.275809 -0.069719
C16   C     C_R   0.424546 0.353968 0.723785 -0.074278
C17   C     C_R   0.933116 0.996857 0.570476 -0.160391
C18   C     C_R   0.063645 0.310537 0.430634 -0.158474
C19   C     C_R   0.962495 0.968036 0.665691 -0.167353
C20   C     C_R   0.035408 0.336414 0.334765 -0.172621
C21   C     C_R   0.864210 0.848110 0.685381 -0.214924
C22   C     C_R   0.138470 0.399574 0.312866 -0.212783
C23   C     C_R   0.832235 0.885487 0.589794 0.080796
C24   C     C_R   0.168669 0.366783 0.409291 0.081838
C25   C     C_R   0.868223 0.959845 0.532488 0.142652
C26   C     C_R   0.129799 0.323868 0.468218 0.142628
C27   C     C_R   0.765494 0.858762 0.550158 0.061230
C28   C     C_R   0.236051 0.370927 0.448633 0.061511
C29   C     C_R   0.737223 0.890085 0.452149 0.072795
C30   C     C_R   0.262903 0.352560 0.547675 0.072654
C31   C     C_R   0.774099 0.976123 0.400252 -0.196686
C32   C     C_R   0.222729 0.298539 0.602121 -0.197678
C33   C     C_R   0.838561 0.006427 0.439032 -0.207918
C34   C     C_R   0.157406 0.287283 0.563424 -0.207113
C35   C     C_R   0.725416 0.813800 0.606016 -0.194473
C36   C     C_R   0.277580 0.380361 0.391942 -0.195204
C37   C     C_R   0.660051 0.807711 0.568026 -0.187662
C38   C     C_R   0.342715 0.363192 0.430540 -0.188620
C39   C     C_R   0.631732 0.829550 0.471175 0.094156
C40   C     C_R   0.369985 0.352377 0.528062 0.096324
C41   C     C_R   0.671222 0.852204 0.410813 0.037140
C42   C     C_R   0.330104 0.368417 0.588114 0.038087
C43   C     C_R   0.564750 0.827765 0.433465 0.171753
C44   C     C_R   0.436212 0.324260 0.566759 0.169559
C45   C     C_R   0.537926 0.845797 0.336367 -0.216183
C46   C     C_R   0.461876 0.314780 0.664367 -0.212191
C47   C     C_R   0.642827 0.834449 0.312011 0.093853
C48   C     C_R   0.359451 0.397140 0.685853 0.084596
H9    H     H_    0.865102 0.071141 0.396040 0.124737
H10   H     H_    0.128361 0.246765 0.608184 0.123055
H11   H     H_    0.486717 0.849220 0.307044 0.114185
H12   H     H_    0.511948 0.284116 0.694665 0.116642
H13   H     H_    0.632047 0.783800 0.616154 0.137477
H14   H     H_    0.371411 0.358805 0.382335 0.137512
H15   H     H_    0.960575 0.055104 0.527156 0.108804
H16   H     H_    0.033884 0.276283 0.475235 0.108573
H17   H     H_    0.011766 0.006871 0.694963 0.106017
H18   H     H_    0.984519 0.320364 0.306265 0.103926
H19   H     H_    0.840475 0.790067 0.733222 0.101518
H20   H     H_    0.164489 0.438431 0.264203 0.096771
H21   H     H_    0.753024 0.028639 0.329972 0.151451
H22   H     H_    0.241575 0.256062 0.674644 0.148316
H23   H     H_    0.742536 0.794369 0.680943 0.121476
H24   H     H_    0.261158 0.386940 0.316419 0.122364
O11   O     O_R   0.036450 0.233070 0.130130 -0.536911
O12   O     O_R   0.963550 0.733070 0.869870 -0.538443
O13   O     O_R   0.912470 0.560570 0.006790 -0.545214
O14   O     O_R   0.087530 0.060570 0.993210 -0.545201
C49   C     C_R   0.886991 0.392112 0.002623 0.729550
C50   C     C_R   0.112999 0.891764 0.997348 0.730558
O15   O     O_R   0.032920 0.562940 0.138050 -0.538780
O16   O     O_R   0.967080 0.062940 0.861950 -0.538751
O17   O     O_R   0.084790 0.730500 0.002090 -0.537310
O18   O     O_R   0.915210 0.230500 0.997910 -0.536622
C51   C     C_R   0.044505 0.393516 0.174528 0.685147
C52   C     C_R   0.955601 0.895488 0.825303 0.685269
O19   O     O_3   0.016820 0.396170 0.955260 -0.378669
O20   O     O_3   0.983180 0.896170 0.044740 -0.377832
V3    V     V_3+5 0.996880 0.672090 0.008300 1.413725
V4    V     V_3+5 0.003120 0.172090 0.991700 1.414917
C53   C     C_3   0.521183 0.808683 0.495321 -0.810023
H25   H     H_    0.470297 0.810625 0.454066 0.214027
H26   H     H_    0.530949 0.675986 0.535069 0.217089
H27   H     H_    0.529406 0.923858 0.546317 0.216815
C54   C     C_3   0.479683 0.296016 0.505507 -0.810215
H28   H     H_    0.529856 0.274495 0.547592 0.213649
H29   H     H_    0.464203 0.173136 0.460465 0.219661
H30   H     H_    0.477869 0.418858 0.459504 0.215158
C55   C     C_3   0.680400 0.771731 0.246164 -0.798655
H31   H     H_    0.683939 0.886507 0.197675 0.196312
H32   H     H_    0.728269 0.718333 0.284125 0.216657
H33   H     H_    0.656524 0.652689 0.203729 0.215595
C56   C     C_3   0.325664 0.496327 0.747746 -0.780624
H34   H     H_    0.279967 0.559766 0.707234 0.214468
H35   H     H_    0.318099 0.400066 0.802211 0.189942
H36   H     H_    0.354511 0.615210 0.782857 0.222670

loop_
_geom_bond_atom_site_label_1
_geom_bond_atom_site_label_2
_ccdc_geom_bond_type
C43   C45   A    
C22   H20   S    
C53   H25   S    
C14   C22   A    
C43   C53   S    
O2    C4    A    
C2    O7    A    
C44   C54   S    
C27   C29   A    
C18   H16   S    
O5    C3    A    
C54   H29   S    
C38   H14   S    
C13   C19   A    
C14   C20   A    
C19   H17   S    
C55   H32   S    
C16   C46   A    
C37   C39   A    
C15   C45   A    
C38   C40   A    
C1    C16   S    
O16   C52   A    
C2    C15   S    
C40   C42   A    
C37   H13   S    
C49   O18   A    
C47   C55   S    
C46   H12   S    
C8    H4    S    
C24   C26   A    
C29   C31   A    
C6    C10   S    
C30   C32   A    
C15   C47   A    
O17   V3    S    
C48   C56   S    
C56   H36   S    
C28   C30   A    
C17   H15   S    
C33   H9    S    
C53   H26   S    
C21   C23   A    
C22   C24   A    
C32   C34   A    
C36   H24   S    
O13   V3    S    
C9    H5    S    
C54   H30   S    
C39   C41   A    
C29   C41   A    
C4    C11   S    
C11   H7    S    
C12   H8    S    
C14   C51   S    
O4    C2    A    
C55   H33   S    
C45   H11   S    
O15   C51   A    
C5    H1    S    
C31   C33   A    
C44   C46   A    
O4    V2    S    
C7    H3    S    
O2    V1    S    
C35   H23   S    
C41   C47   A    
C34   H10   S    
O18   V4    S    
O6    C4    A    
C26   C34   A    
O1    V2    S    
C32   H22   S    
O12   V3    S    
C23   C25   A    
O14   V4    S    
O12   C52   A    
O14   C50   A    
C10   H6    S    
C53   H27   S    
O13   C49   A    
C30   C42   A    
C20   H18   S    
C17   C25   A    
C13   C52   S    
O19   V4    S    
O3    V1    S    
O16   V4    S    
C50   O17   A    
C27   C35   A    
C56   H34   S    
C8    C49   S    
C28   C36   A    
C31   H21   S    
C6    H2    S    
C10   C12   D    
O3    C1    A    
C21   H19   S    
C16   C48   A    
C9    C11   D    
C54   H28   S    
C39   C43   A    
C42   C48   A    
C40   C44   A    
C13   C21   A    
C35   C37   A    
O7    V1    S    
C5    C9    S    
C1    O8    A    
C17   C19   A    
C7    C50   S    
O8    V2    S    
C55   H31   S    
C18   C20   A    
O11   C51   A    
C3    C12   S    
O5    V1    S    
C5    C7    D    
C36   C38   A    
C6    C8    D    
C18   C26   A    
C25   C33   A    
O6    V2    S    
O20   V3    S    
O9    V2    S    
O11   V4    S    
O10   V1    S    
O1    C3    A    
O15   V3    S    
C23   C27   A    
C24   C28   A    
C56   H35   S    
