data_mof_unit_51656.cif
_audit_creation_date              2012-12-10T19:45:01-0500
_audit_creation_method            fapswitch 2.2
_symmetry_space_group_name_H-M    P1
_symmetry_Int_Tables_number       1
_space_group_crystal_system       triclinic
_cell_length_a                    15.067237
_cell_length_b                    10.843972
_cell_length_c                    13.67029
_cell_angle_alpha                 90.376849
_cell_angle_beta                  89.411392
_cell_angle_gamma                 89.245271
_cell_volume                      2233.20890365

loop_
_atom_site_label
_atom_site_type_symbol
_atom_type_description
_atom_site_fract_x
_atom_site_fract_y
_atom_site_fract_z
_atom_type_partial_charge
C1    C     C_R   0.497543 0.262124 0.499337 0.793290
C2    C     C_R   0.560192 0.883111 0.678254 0.090534
C3    C     C_R   0.488200 0.091087 0.232902 -0.182287
C4    C     C_R   0.514740 0.907347 0.766664 -0.182542
C5    C     C_R   0.459585 0.141578 0.144802 -0.183828
C6    C     C_R   0.544675 0.856004 0.853900 -0.184206
C7    C     C_R   0.384624 0.218557 0.143065 -0.147660
C8    C     C_R   0.620029 0.779711 0.853916 -0.149790
C9    C     C_R   0.477102 0.932531 0.417019 -0.240746
C10   C     C_R   0.522649 0.067407 0.582796 -0.241779
C11   C     C_R   0.504179 0.871681 0.501847 -0.085641
C12   C     C_R   0.502444 0.737870 0.500609 0.781422
C13   C     C_R   0.495693 0.128312 0.497929 -0.089919
C14   C     C_R   0.528169 0.939774 0.586047 0.013422
C15   C     C_R   0.472076 0.060197 0.413506 0.012447
C16   C     C_R   0.328688 0.497636 0.500543 0.842025
C17   C     C_R   0.671247 0.503521 0.499494 0.814839
C18   C     C_R   0.558870 0.425982 0.791884 0.002434
C19   C     C_R   0.441455 0.574506 0.208121 0.000330
C20   C     C_R   0.441017 0.573351 0.794240 0.065751
C21   C     C_R   0.558420 0.425794 0.205747 0.032161
C22   C     C_R   0.439768 0.575067 0.897251 -0.021184
C23   C     C_R   0.041809 0.361227 0.641130 -0.224725
C24   C     C_R   0.560064 0.424668 0.102752 -0.017547
C25   C     C_R   0.500016 0.499449 0.948155 0.017334
C26   C     C_R   0.500051 0.500636 0.051851 0.019859
C27   C     C_R   0.560117 0.422704 0.895272 -0.027901
C28   C     C_R   0.440097 0.577600 0.104735 -0.027190
C29   C     C_R   0.380252 0.651455 0.949914 -0.286177
C30   C     C_R   0.619729 0.348502 0.050102 -0.285610
C31   C     C_R   0.380451 0.654470 0.052980 0.250072
C32   C     C_R   0.619788 0.345866 0.947028 0.250131
C33   C     C_R   0.814758 0.577302 0.428747 0.192189
C34   C     C_R   0.958002 0.641045 0.360271 -0.196462
C35   C     C_R   0.185442 0.428355 0.574082 0.193736
C36   C     C_R   0.767776 0.507210 0.498518 -0.135353
C37   C     C_R   0.232093 0.494299 0.501663 -0.109025
C38   C     C_R   0.812978 0.437189 0.567987 -0.304652
C39   C     C_R   0.186810 0.560502 0.430079 -0.319221
C40   C     C_R   0.905092 0.434298 0.569168 0.119249
C41   C     C_R   0.094734 0.564385 0.429795 0.122567
C42   C     C_R   0.953270 0.501578 0.499162 0.021961
C43   C     C_R   0.046662 0.498040 0.500563 0.038053
C44   C     C_R   0.908277 0.573375 0.428499 0.076308
C45   C     C_R   0.336999 0.245041 0.229678 0.218372
C46   C     C_R   0.091726 0.428776 0.572836 0.045705
C47   C     C_R   0.949561 0.364239 0.639239 -0.201492
C48   C     C_R   0.050207 0.635260 0.360247 -0.226523
C49   C     C_3   0.759135 0.614632 0.263785 -0.666053
C50   C     C_3   0.259075 0.238799 0.622330 -0.671069
C51   C     C_3   0.358505 0.852423 0.130433 -0.710756
C52   C     C_3   0.642177 0.148181 0.869236 -0.710046
C53   C     C_3   0.258271 0.332415 0.228284 -0.424061
C54   C     C_3   0.172685 0.269184 0.259469 -0.838479
C55   C     C_3   0.746063 0.668348 0.766225 -0.425780
C56   C     C_R   0.666718 0.754679 0.766418 0.217897
C57   C     C_3   0.830790 0.732849 0.733877 -0.838792
C58   C     C_R   0.365416 0.192639 0.318056 -0.093901
C59   C     C_R   0.636801 0.807554 0.678776 -0.095636
C60   C     C_R   0.441691 0.116606 0.320452 0.089657
Cu1   Cu    Cu3+1 0.500010 0.499980 0.597420 0.942476
Cu2   Cu    Cu3+1 0.499990 0.500020 0.402580 0.926475
H1    H     H_    0.457346 0.880195 0.353156 0.156524
H2    H     H_    0.223698 0.612027 0.375729 0.159450
H3    H     H_    0.912861 0.311557 0.692874 0.143024
H4    H     H_    0.086826 0.687401 0.306208 0.146547
H5    H     H_    0.072994 0.304620 0.696094 0.149485
H6    H     H_    0.926313 0.698710 0.306285 0.178467
H7    H     H_    0.364333 0.258294 0.074212 0.126524
H8    H     H_    0.641410 0.739435 0.922169 0.125499
H9    H     H_    0.329207 0.212642 0.385124 0.102010
H10   H     H_    0.672003 0.788322 0.610741 0.103783
H11   H     H_    0.546821 0.032193 0.232961 0.134388
H12   H     H_    0.542409 0.119676 0.646691 0.156479
H13   H     H_    0.455848 0.965732 0.767911 0.131019
H14   H     H_    0.495953 0.121625 0.077729 0.145282
H15   H     H_    0.509055 0.874812 0.921653 0.145410
H16   H     H_    0.713883 0.703713 0.392164 0.249846
H17   H     H_    0.784362 0.685729 0.212972 0.213622
H18   H     H_    0.688031 0.599982 0.247781 0.238562
H19   H     H_    0.796391 0.526889 0.249903 0.222623
H20   H     H_    0.208741 0.374055 0.717935 0.241128
H21   H     H_    0.299913 0.198874 0.681717 0.224218
H22   H     H_    0.299501 0.237226 0.554101 0.214871
H23   H     H_    0.604795 0.369678 0.749085 0.161148
H24   H     H_    0.199304 0.181342 0.612331 0.213425
H25   H     H_    0.260242 0.746234 0.069564 0.249851
H26   H     H_    0.374835 0.905789 0.063616 0.226618
H27   H     H_    0.419670 0.838450 0.173855 0.229404
H28   H     H_    0.310052 0.906549 0.175582 0.236953
H29   H     H_    0.740151 0.254475 0.930564 0.249570
H30   H     H_    0.625901 0.094487 0.935896 0.226250
H31   H     H_    0.690765 0.094405 0.824005 0.237060
H32   H     H_    0.581023 0.162094 0.825783 0.229397
H33   H     H_    0.160351 0.188165 0.211593 0.249816
H34   H     H_    0.395770 0.631178 0.250925 0.162243
H35   H     H_    0.176427 0.238840 0.336761 0.249954
H36   H     H_    0.116045 0.335149 0.253222 0.251924
H37   H     H_    0.248933 0.370969 0.153868 0.196432
H38   H     H_    0.270734 0.411191 0.278100 0.228712
H39   H     H_    0.825777 0.763628 0.656797 0.248788
H40   H     H_    0.843256 0.813732 0.781853 0.250249
H41   H     H_    0.887942 0.667547 0.738919 0.251915
H42   H     H_    0.756701 0.629518 0.840331 0.196407
H43   H     H_    0.733448 0.589664 0.716436 0.228647
H44   H     H_    0.395410 0.631387 0.753982 0.127117
H45   H     H_    0.603741 0.367322 0.246006 0.134865
H46   H     H_    0.334340 0.710679 0.910954 0.138139
H47   H     H_    0.665570 0.289184 0.089073 0.138673
H48   H     H_    0.775980 0.383614 0.620957 0.158439
N1    N     N_R   0.499960 0.499900 0.743810 -0.192234
N2    N     N_R   0.500040 0.500100 0.256190 -0.195448
N3    N     N_2   0.768790 0.657782 0.363671 -0.437304
N4    N     N_2   0.233527 0.364035 0.647751 -0.414610
N5    N     N_2   0.320492 0.735236 0.103837 -0.455458
N6    N     N_2   0.679954 0.265403 0.896164 -0.455647
O1    O     O_R   0.500000 0.319630 0.582270 -0.584733
O2    O     O_R   0.500000 0.680370 0.417730 -0.595547
O3    O     O_R   0.499990 0.319660 0.417730 -0.576541
O4    O     O_R   0.500010 0.680340 0.582270 -0.579008
O5    O     O_R   0.370260 0.499960 0.582280 -0.551644
O6    O     O_R   0.629740 0.500040 0.417720 -0.573188
O7    O     O_R   0.370250 0.499990 0.417740 -0.609964
O8    O     O_R   0.629750 0.500010 0.582260 -0.604094

loop_
_geom_bond_atom_site_label_1
_geom_bond_atom_site_label_2
_ccdc_geom_bond_type
C40   C47   A    
C49   N3    S    
C55   C56   S    
C22   C29   A    
C15   C60   S    
C8    C56   A    
C50   H22   S    
C39   C41   A    
C19   N2    A    
C53   H37   S    
C57   H40   S    
C55   H43   S    
Cu1   O8    S    
C7    C45   A    
C35   C37   A    
C16   O7    A    
C24   C26   A    
C51   H28   S    
C11   C14   A    
C58   H9    S    
C49   H19   S    
C33   C36   A    
H29   N6    S    
C35   N4    S    
Cu1   O5    S    
C1    O3    A    
C23   H5    S    
C4    H13   S    
C12   O4    A    
C22   C25   A    
C54   H35   S    
C52   H32   S    
C17   C36   S    
C38   H48   S    
H25   N5    S    
C16   C37   S    
C3    C60   A    
C40   C42   A    
C45   C53   S    
C23   C46   A    
Cu1   O4    S    
C41   C43   A    
C42   C44   A    
C2    C14   S    
C31   N5    S    
Cu2   O7    S    
C50   H21   S    
C20   H44   S    
C52   N6    S    
C53   H38   S    
C57   H41   S    
C45   C58   A    
C18   H23   S    
C23   C47   A    
C30   H47   S    
Cu1   O1    S    
C34   C44   A    
C18   N1    A    
H20   N4    S    
C4    C6    A    
C10   C14   A    
C34   H6    S    
C5    C7    A    
C2    C59   A    
C6    H15   S    
C6    C8    A    
C25   C26   A    
C53   C54   S    
C55   H42   S    
C51   N5    S    
C49   H17   S    
C50   N4    S    
C2    C4    A    
C16   O5    A    
C39   H2    S    
C20   N1    A    
C17   O8    A    
C54   H33   S    
Cu2   N2    S    
C52   H31   S    
C29   H46   S    
C1    O1    A    
C32   N6    S    
C19   C28   A    
C9    C11   A    
Cu2   O3    S    
C21   H45   S    
C12   O2    A    
C20   C22   A    
C55   C57   S    
C52   H30   S    
H16   N3    S    
C1    C13   S    
C42   C43   A    
Cu1   N1    S    
Cu2   O6    S    
C21   N2    A    
C33   N3    S    
C27   C32   A    
C9    H1    S    
C33   C44   A    
C26   C28   A    
C28   C31   A    
C18   C27   A    
C3    C5    A    
C10   C13   A    
C51   H26   S    
C7    H7    S    
C11   C12   S    
C56   C59   A    
C25   C27   A    
C57   H39   S    
C59   H10   S    
C8    H8    S    
C49   H18   S    
C5    H14   S    
C13   C15   A    
C9    C15   A    
C37   C39   A    
C51   H27   S    
C30   C32   A    
C10   H12   S    
C38   C40   A    
C36   C38   A    
C41   C48   A    
Cu1   Cu2   S    
C3    H11   S    
C43   C46   A    
C24   C30   A    
Cu2   O2    S    
C50   H24   S    
C17   O6    A    
C34   C48   A    
C29   C31   A    
C21   C24   A    
C54   H36   S    
C48   H4    S    
C35   C46   A    
C58   C60   A    
C47   H3    S    
C19   H34   S    
