data_mof_unit_27231.cif
_audit_creation_date              2012-12-10T16:42:56-0500
_audit_creation_method            fapswitch 2.2
_symmetry_space_group_name_H-M    P1
_symmetry_Int_Tables_number       1
_space_group_crystal_system       triclinic
_cell_length_a                    7.616752
_cell_length_b                    8.665269
_cell_length_c                    12.979306
_cell_angle_alpha                 85.094095
_cell_angle_beta                  77.846426
_cell_angle_gamma                 102.115107
_cell_volume                      811.223766754

loop_
_atom_site_label
_atom_site_type_symbol
_atom_type_description
_atom_site_fract_x
_atom_site_fract_y
_atom_site_fract_z
_atom_type_partial_charge
C1    C     C_R   0.453507 0.200126 0.506759 0.861170
C2    C     C_R   0.546477 0.799869 0.493365 0.859625
C3    C     C_R   0.464814 0.496205 0.701332 0.793499
C4    C     C_R   0.535077 0.503308 0.298687 0.798264
C5    C     C_R   0.554832 0.505406 0.184185 -0.029700
C6    C     C_R   0.444708 0.492959 0.815893 -0.038069
C7    C     C_R   0.252778 0.460081 0.994074 -0.208010
C8    C     C_R   0.746481 0.536956 0.006042 -0.196603
C9    C     C_R   0.269365 0.464285 0.885016 -0.179770
C10   C     C_R   0.729958 0.532525 0.115066 -0.187070
C11   C     C_R   0.603460 0.517309 0.856677 -0.209649
C12   C     C_R   0.395973 0.481172 0.143440 -0.209714
C13   C     C_R   0.587986 0.513177 0.965456 0.159501
C14   C     C_R   0.411316 0.484635 0.034673 0.160295
C15   C     C_2   0.431416 0.031446 0.522564 -0.255229
C16   C     C_2   0.568599 0.968558 0.477702 -0.235464
Cu1   Cu    Cu3+1 0.686350 0.517570 0.488220 1.128422
Cu2   Cu    Cu3+1 0.313650 0.482430 0.511780 1.138693
H1    H     H_    0.259769 0.459618 0.196073 0.166294
H2    H     H_    0.739736 0.539466 0.804047 0.173678
H3    H     H_    0.853972 0.551010 0.145017 0.145232
H4    H     H_    0.145313 0.444277 0.854974 0.180086
H5    H     H_    0.116527 0.437156 0.046572 0.139517
H6    H     H_    0.882687 0.559232 0.953563 0.137019
H7    H     H_    0.306503 0.959475 0.576206 0.186715
H8    H     H_    0.693541 0.040554 0.424103 0.203456
N1    N     N_2   0.033570 0.455950 0.529530 0.081912
N2    N     N_2   0.966430 0.544050 0.470470 0.055106
O1    O     O_R   0.621060 0.286250 0.492350 -0.541870
O2    O     O_R   0.378940 0.713750 0.507650 -0.544861
O3    O     O_R   0.306310 0.256580 0.512240 -0.516992
O4    O     O_R   0.693690 0.743420 0.487760 -0.510655
O5    O     O_R   0.631800 0.512400 0.642670 -0.562199
O6    O     O_R   0.368200 0.487600 0.357330 -0.560662
O7    O     O_R   0.317060 0.482730 0.662570 -0.570124
O8    O     O_R   0.682940 0.517270 0.337430 -0.598135
S1    S     S_3+6 0.915932 0.270041 0.599312 0.132866
O9    O     O_2   0.725106 0.260825 0.663057 -0.303468
O10   O     O_2   0.911781 0.150339 0.522539 -0.281973
O11   O     O_3   0.035005 0.218669 0.686826 -0.519539
H9    H     H_    0.984271 0.102832 0.709323 0.353408
S2    S     S_3+6 0.084378 0.730144 0.400910 0.137627
O12   O     O_2   0.088806 0.849797 0.477614 -0.252943
O13   O     O_2   0.275803 0.740022 0.337574 -0.317002
O14   O     O_3   0.966044 0.783936 0.313659 -0.494357
H10   H     H_    0.009602 0.736752 0.248941 0.331673

loop_
_geom_bond_atom_site_label_1
_geom_bond_atom_site_label_2
_ccdc_geom_bond_type
C4    O8    A    
S1    O9    D    
C1    C15   S    
Cu1   O8    S    
C7    C14   A    
Cu1   O1    S    
Cu2   O7    S    
C3    O7    A    
C2    O2    A    
C3    C6    S    
C6    C9    A    
C1    O1    A    
Cu1   Cu2   S    
S2    O13   D    
C5    C10   A    
S1    O10   D    
O14   H10   S    
C11   C13   A    
C8    C13   A    
Cu1   O5    S    
N1    S1    S    
C7    H5    S    
C12   H1    S    
N2    S2    S    
O11   H9    S    
C8    H6    S    
C12   C14   A    
S1    O11   S    
Cu2   O6    S    
C10   H3    S    
C16   H8    S    
Cu2   O2    S    
C11   H2    S    
C4    O6    A    
C9    H4    S    
C15   H7    S    
S2    O12   D    
C3    O5    A    
C15   C16   D    
C1    O3    A    
C2    C16   S    
C5    C12   A    
C2    O4    A    
C6    C11   A    
C7    C9    A    
Cu1   O4    S    
Cu2   O3    S    
C13   C14   A    
Cu1   N2    S    
C8    C10   A    
Cu2   N1    S    
C4    C5    S    
N1    N2    D    
S2    O14   S    
