data_mof_unit_34038.cif
_audit_creation_date              2013-03-05T15:39:54-0500
_audit_creation_method            fapswitch 2.2
_symmetry_space_group_name_H-M    P1
_symmetry_Int_Tables_number       1
_space_group_crystal_system       triclinic
_cell_length_a                    12.14156
_cell_length_b                    12.099181
_cell_length_c                    7.82809
_cell_angle_alpha                 90.307994
_cell_angle_beta                  94.930475
_cell_angle_gamma                 90.020877
_cell_volume                      1145.69722072

loop_
_atom_site_label
_atom_site_type_symbol
_atom_site_description
_atom_site_fract_x
_atom_site_fract_y
_atom_site_fract_z
_atom_type_partial_charge
O1    O     O_R   0.375700 0.885870 0.609240 -0.601044
O2    O     O_R   0.624300 0.114130 0.390760 -0.601061
O3    O     O_R   0.624300 0.885870 0.390760 -0.619750
O4    O     O_R   0.375700 0.114130 0.609240 -0.619725
O5    O     O_R   0.875700 0.385870 0.609240 -0.601149
O6    O     O_R   0.124300 0.614130 0.390760 -0.601102
O7    O     O_R   0.124300 0.385870 0.390760 -0.619841
O8    O     O_R   0.875700 0.614130 0.609240 -0.619920
O9    O     O_R   0.402280 0.885870 0.324040 -0.579836
O10   O     O_R   0.597720 0.114130 0.675960 -0.579823
O11   O     O_R   0.597720 0.885870 0.675960 -0.601883
O12   O     O_R   0.402280 0.114130 0.324040 -0.602084
O13   O     O_R   0.902280 0.385870 0.324040 -0.579780
O14   O     O_R   0.097720 0.614130 0.675960 -0.579823
O15   O     O_R   0.097720 0.385870 0.675960 -0.601954
O16   O     O_R   0.902280 0.614130 0.324040 -0.601506
C1    C     C_R   0.354809 0.850665 0.455030 0.943220
C2    C     C_R   0.645187 0.149338 0.544967 0.943279
C3    C     C_R   0.645258 0.850823 0.544721 0.940846
C4    C     C_R   0.354742 0.149177 0.455279 0.940730
C5    C     C_R   0.854805 0.350669 0.455028 0.943339
C6    C     C_R   0.145195 0.649332 0.544972 0.943222
C7    C     C_R   0.145258 0.350823 0.544721 0.940782
C8    C     C_R   0.854741 0.649176 0.455279 0.940982
Zn1   Zn    Zn3+2 0.482250 0.000000 0.690430 1.102851
Zn2   Zn    Zn3+2 0.517750 0.000000 0.309570 1.102768
Zn3   Zn    Zn3+2 0.982250 0.500000 0.690430 1.102643
Zn4   Zn    Zn3+2 0.017750 0.500000 0.309570 1.102860
C9    C     C_2   0.274154 0.232030 0.431742 -0.326914
C10   C     C_2   0.725846 0.767970 0.568258 -0.326969
C11   C     C_2   0.725203 0.232984 0.568144 -0.320407
C12   C     C_2   0.274773 0.767036 0.431842 -0.320331
C13   C     C_2   0.774151 0.732027 0.431741 -0.326683
C14   C     C_2   0.225848 0.267972 0.568258 -0.326771
C15   C     C_2   0.225237 0.732955 0.568168 -0.320253
C16   C     C_2   0.774771 0.267037 0.431833 -0.320256
H1    H     H_    0.754830 0.763192 0.302538 0.208352
H2    H     H_    0.245167 0.236805 0.697461 0.208284
H3    H     H_    0.242694 0.766538 0.696641 0.247311
H4    H     H_    0.757356 0.233416 0.303378 0.247301
H5    H     H_    0.254835 0.263198 0.302540 0.208267
H6    H     H_    0.745167 0.736805 0.697461 0.208312
H7    H     H_    0.742608 0.266610 0.696591 0.247363
H8    H     H_    0.257320 0.733452 0.303373 0.247336
N1    N     N_2   0.541470 0.000000 0.055820 0.034736
N2    N     N_2   0.458530 0.000000 0.944180 0.034712
N3    N     N_2   0.041470 0.500000 0.055820 0.034626
N4    N     N_2   0.958530 0.500000 0.944180 0.034659
N5    N     N_R   0.630818 0.060024 0.008234 0.304702
O17   O     O_R   0.630698 0.167128 0.023800 -0.360850
O18   O     O_R   0.723273 0.009325 0.988204 -0.371336
N6    N     N_R   0.369219 0.939892 0.991705 0.304706
O19   O     O_R   0.369540 0.832773 0.976414 -0.360789
O20   O     O_R   0.276617 0.990456 0.011166 -0.371368
N7    N     N_R   0.130901 0.559865 0.008142 0.304718
O21   O     O_R   0.130957 0.666980 0.023702 -0.360853
O22   O     O_R   0.223286 0.509013 0.988159 -0.371301
N8    N     N_R   0.869006 0.440338 0.992006 0.304703
O23   O     O_R   0.868472 0.333253 0.975802 -0.360997
O24   O     O_R   0.776973 0.491510 0.013326 -0.371251

loop_
_geom_bond_atom_site_label_1
_geom_bond_atom_site_label_2
_geom_bond_distance
_ccdc_geom_bond_type
Zn3   N4    2.031496 S    
O16   Zn4   1.977941 S    
C15   H3    1.086446 S    
N7    O21   1.301058 A    
O1    Zn1   1.957630 S    
O13   Zn4   1.978079 S    
N4    N8    1.383839 S    
O14   Zn3   1.978078 S    
O2    C2    1.282477 A    
O15   Zn3   1.977942 S    
C8    C13   1.402842 S    
Zn2   N1    2.031495 S    
N1    N5    1.383770 S    
C7    C14   1.402844 S    
O12   C4    1.290670 A    
O15   C7    1.290670 A    
O4    Zn1   1.963107 S    
C12   H8    1.086422 S    
O13   C5    1.292742 A    
O16   C8    1.290669 A    
C5    C16   1.402889 S    
O5    Zn3   1.957630 S    
N1    N2    1.275368 D    
O3    C3    1.284510 A    
C6    C15   1.402890 S    
O11   C3    1.290670 A    
C11   H7    1.086379 S    
O10   C2    1.292756 A    
O7    C7    1.284511 A    
C9    C14   1.333441 D    
Zn4   N3    2.031495 S    
O9    C1    1.292749 A    
O8    C8    1.284511 A    
N6    O20   1.300221 A    
O9    Zn2   1.978079 S    
C4    C9    1.402844 S    
N7    O22   1.300326 A    
O14   C6    1.292745 A    
O6    Zn4   1.957629 S    
O11   Zn1   1.977942 S    
N8    O24   1.300485 A    
O6    C6    1.282502 A    
C12   C15   1.336231 D    
N2    N6    1.383779 S    
C16   H4    1.086430 S    
O5    C5    1.282502 A    
N6    O19   1.300968 A    
O10   Zn1   1.978078 S    
N3    N7    1.383827 S    
N5    O17   1.300958 A    
C1    C12   1.402877 S    
O8    Zn3   1.963107 S    
C11   C16   1.336223 D    
C10   H6    1.087913 S    
C2    C11   1.402862 S    
C10   C13   1.333442 D    
C9    H5    1.087913 S    
N8    O23   1.301118 A    
C14   H2    1.087913 S    
C3    C10   1.402844 S    
O1    C1    1.282489 A    
Zn1   N2    2.031496 S    
O3    Zn2   1.963108 S    
C13   H1    1.087913 S    
O7    Zn4   1.963108 S    
N3    N4    1.275368 D    
O12   Zn2   1.977941 S    
O2    Zn2   1.957629 S    
N5    O18   1.300263 A    
O4    C4    1.284510 A    
