data_mof_unit_31933.cif
_audit_creation_date              2012-10-26T19:50:22-0400
_audit_creation_method            fapswitch 2.2
_symmetry_space_group_name_H-M    P1
_symmetry_Int_Tables_number       1
_space_group_crystal_system       triclinic
_cell_length_a                    13.808862
_cell_length_b                    15.122086
_cell_length_c                    15.583766
_cell_angle_alpha                 89.659657
_cell_angle_beta                  71.454019
_cell_angle_gamma                 89.208321
_cell_volume                      3084.8907406

loop_
_atom_site_label
_atom_site_type_symbol
_atom_type_description
_atom_site_fract_x
_atom_site_fract_y
_atom_site_fract_z
_atom_type_partial_charge
C1    C     C_R   0.498936 0.670364 0.500842 0.549636
C2    C     C_R   0.552323 0.182160 0.548482 -0.005566
C3    C     C_R   0.498345 0.767298 0.498233 0.004284
C4    C     C_R   0.502587 0.233074 0.498239 0.008276
C5    C     C_R   0.589171 0.809764 0.449779 -0.100299
C6    C     C_R   0.453703 0.191168 0.443570 -0.101722
C7    C     C_R   0.593404 0.902006 0.442799 0.014364
C8    C     C_R   0.454673 0.098953 0.436528 0.016411
C9    C     C_R   0.504559 0.951901 0.486446 -0.048159
C10   C     C_R   0.504736 0.048676 0.486665 -0.048050
C11   C     C_R   0.911897 0.558071 0.445704 -0.149298
C12   C     C_R   0.500386 0.329760 0.500854 0.546687
C13   C     C_R   0.085041 0.554277 0.558002 -0.143542
C14   C     C_R   0.809903 0.557177 0.445938 0.046720
C15   C     C_R   0.187045 0.553397 0.557755 0.043102
C16   C     C_R   0.438820 0.498462 0.673051 0.541449
C17   C     C_R   0.561435 0.497995 0.326973 0.553956
C18   C     C_R   0.771437 0.442444 0.554625 0.062638
C19   C     C_R   0.231411 0.445367 0.442381 0.073346
C20   C     C_R   0.873467 0.439763 0.555861 -0.021582
C21   C     C_R   0.129672 0.443351 0.440462 -0.038465
C22   C     C_R   0.945202 0.499225 0.500866 0.031359
C23   C     C_R   0.395098 0.387690 0.087743 0.004539
C24   C     C_R   0.054899 0.499307 0.498965 0.030671
C25   C     C_R   0.404214 0.484228 0.771918 -0.040205
C26   C     C_R   0.598912 0.484427 0.228036 -0.013991
C27   C     C_R   0.269704 0.451682 0.912637 -0.005208
C28   C     C_R   0.740661 0.451430 0.091850 0.028152
C29   C     C_R   0.301082 0.473595 0.820271 -0.092201
C30   C     C_R   0.703643 0.474429 0.183313 -0.155039
C31   C     C_R   0.476004 0.476084 0.817258 -0.135943
C32   C     C_R   0.530435 0.469627 0.180440 -0.140876
C33   C     C_R   0.449945 0.441730 0.905656 0.013008
C34   C     C_R   0.632184 0.419776 0.900496 -0.036608
C35   C     C_R   0.564844 0.443344 0.088958 -0.009137
C36   C     C_R   0.344940 0.428485 0.954814 -0.034433
C37   C     C_R   0.671383 0.445146 0.040928 0.065742
C38   C     C_R   0.525922 0.427079 0.948303 0.029005
C39   C     C_R   0.494101 0.421709 0.043284 0.011889
C40   C     C_2   0.222115 0.342769 0.081380 0.198024
C41   C     C_2   0.808300 0.464186 0.888011 0.293040
C42   C     C_3   0.904592 0.373865 0.615255 -0.414924
C43   C     C_3   0.102113 0.382167 0.376335 -0.375344
C44   C     C_2   0.159370 0.463255 0.963978 0.216503
C45   C     C_R   0.320238 0.390187 0.042674 0.012149
C46   C     C_2   0.849060 0.421893 0.058363 0.305160
C47   C     C_3   0.376353 0.332861 0.173394 -0.344344
C48   C     C_3   0.670758 0.378293 0.807342 -0.433946
C49   C     C_3   0.310710 0.776506 0.597541 -0.375512
C50   C     C_3   0.603624 0.223634 0.610143 -0.383464
C51   C     C_2   0.689850 0.945198 0.389051 0.231312
C52   C     C_2   0.404990 0.056254 0.375974 0.228270
C53   C     C_R   0.703961 0.438401 0.944999 0.047911
C54   C     C_R   0.414246 0.910011 0.535641 -0.108691
C55   C     C_R   0.552302 0.090201 0.542192 -0.108515
C56   C     C_R   0.409623 0.818011 0.542043 -0.009231
Cu1   Cu    Cu3+1 0.403570 0.500010 0.500000 0.941132
Cu2   Cu    Cu3+1 0.596430 0.499990 0.500000 0.938827
H1    H     H_    0.964820 0.604140 0.402170 0.116919
H2    H     H_    0.244562 0.485924 0.786593 0.178382
H3    H     H_    0.347255 0.949887 0.569620 0.130050
H4    H     H_    0.589329 0.050123 0.580926 0.129347
H5    H     H_    0.656581 0.770401 0.415887 0.166026
H6    H     H_    0.416329 0.230995 0.404942 0.158034
H7    H     H_    0.190362 0.306418 0.036954 0.139294
H8    H     H_    0.848567 0.427144 0.827643 0.113244
H9    H     H_    0.968664 0.331730 0.574049 0.152626
H10   H     H_    0.929546 0.409356 0.666512 0.148081
H11   H     H_    0.840916 0.329441 0.650385 0.111149
H12   H     H_    0.029654 0.597240 0.604589 0.119674
H13   H     H_    0.038709 0.338584 0.413912 0.145449
H14   H     H_    0.077700 0.421671 0.326398 0.184519
H15   H     H_    0.167452 0.338899 0.339710 0.164228
H16   H     H_    0.134839 0.477737 0.035805 0.127228
H17   H     H_    0.904989 0.453168 0.083527 0.128092
H18   H     H_    0.447892 0.315601 0.187922 0.131620
H19   H     H_    0.324284 0.369268 0.231730 0.142229
H20   H     H_    0.342511 0.268271 0.166192 0.188440
H21   H     H_    0.609007 0.347160 0.787213 0.140953
H22   H     H_    0.709977 0.428570 0.756518 0.120266
H23   H     H_    0.785615 0.602588 0.402692 0.132537
H24   H     H_    0.725528 0.323900 0.807587 0.133868
H25   H     H_    0.275967 0.741943 0.552186 0.151362
H26   H     H_    0.324679 0.729206 0.647249 0.141391
H27   H     H_    0.254447 0.826788 0.636019 0.126016
H28   H     H_    0.551699 0.272916 0.655204 0.135988
H29   H     H_    0.624711 0.173620 0.653823 0.122147
H30   H     H_    0.674883 0.255827 0.568692 0.146016
H31   H     H_    0.692818 0.016334 0.379566 0.126049
H32   H     H_    0.408797 0.985083 0.367024 0.125936
H33   H     H_    0.208729 0.595296 0.604378 0.120715
H34   H     H_    0.715559 0.398630 0.597790 0.111750
H35   H     H_    0.289179 0.402917 0.397738 0.117538
H36   H     H_    0.449653 0.478839 0.215202 0.137478
H37   H     H_    0.552908 0.496898 0.782320 0.147144
H38   H     H_    0.757049 0.479478 0.221160 0.121209
N1    N     N_R   0.741310 0.499980 0.500000 -0.228454
N2    N     N_R   0.258690 0.500020 0.500000 -0.226904
O1    O     O_R   0.418570 0.628550 0.499990 -0.499296
O2    O     O_2   0.848392 0.529856 0.906198 -0.476497
O3    O     O_2   0.094583 0.459052 0.926055 -0.467946
O4    O     O_2   0.875555 0.358649 0.007527 -0.471331
O5    O     O_2   0.767522 0.901717 0.354243 -0.498767
O6    O     O_2   0.359290 0.100202 0.334825 -0.511309
O7    O     O_R   0.581430 0.371450 0.500010 -0.501663
O8    O     O_R   0.581440 0.628540 0.499990 -0.503605
O9    O     O_R   0.418560 0.371460 0.500010 -0.504932
O10   O     O_R   0.372890 0.500010 0.629830 -0.502366
O11   O     O_R   0.627110 0.499990 0.370170 -0.500495
O12   O     O_R   0.535760 0.500000 0.629840 -0.505040
O13   O     O_R   0.464240 0.500000 0.370160 -0.506862
O14   O     O_2   0.174400 0.346106 0.161980 -0.540791

loop_
_geom_bond_atom_site_label_1
_geom_bond_atom_site_label_2
_ccdc_geom_bond_type
C25   C31   A    
C32   H36   S    
C26   C32   A    
C43   H14   S    
C23   C45   A    
C27   C29   A    
Cu2   O11   S    
C2    C4    A    
C1    O1    A    
C16   O12   A    
C40   O14   D    
C46   O4    D    
C28   C46   S    
C17   C26   S    
C49   H26   S    
C35   C37   A    
C47   H18   S    
C2    C55   A    
C12   O7    A    
C11   C14   A    
C31   H37   S    
C13   H12   S    
C51   O5    D    
Cu1   O1    S    
C55   H4    S    
C33   C36   A    
C5    H5    S    
C6    H6    S    
C30   H38   S    
C2    C50   S    
C21   C43   S    
C52   H32   S    
C27   C44   S    
C31   C33   A    
C18   N1    A    
C4    C12   S    
C9    C10   S    
C8    C52   S    
C19   H35   S    
C50   H30   S    
C1    O8    A    
C37   C53   A    
C34   C38   A    
C42   H10   S    
Cu2   N1    S    
C11   H1    S    
C17   O13   A    
C46   H17   S    
C19   N2    A    
C25   C29   A    
C40   C45   S    
C54   C56   A    
C23   C47   S    
C32   C35   A    
C49   H27   S    
C38   C39   A    
C4    C6    A    
C5    C7    A    
C16   O10   A    
C6    C8    A    
C42   H11   S    
C13   C24   A    
C1    C3    S    
C35   C39   A    
C3    C56   A    
C29   H2    S    
C41   O2    D    
C36   C45   A    
C44   H16   S    
C10   C55   A    
C41   C53   S    
C50   H29   S    
Cu1   O9    S    
C20   C22   A    
C26   C30   A    
C40   H7    S    
C13   C15   A    
C42   H9    S    
C22   C24   S    
C34   C48   S    
C47   H19   S    
C15   N2    A    
C48   H21   S    
C14   N1    A    
C16   C25   S    
C7    C9    A    
C52   O6    D    
C43   H13   S    
C19   C21   A    
Cu2   O12   S    
C3    C5    A    
C17   O11   A    
C12   O9    A    
C20   C42   S    
C44   O3    D    
C41   H8    S    
C54   H3    S    
C27   C36   A    
C49   C56   S    
C11   C22   A    
C33   C38   A    
C14   H23   S    
C43   H15   S    
Cu2   O7    S    
C18   H34   S    
C49   H25   S    
C28   C30   A    
C7    C51   S    
C51   H31   S    
C48   H22   S    
Cu1   Cu2   S    
Cu1   O13   S    
C28   C37   A    
C23   C39   A    
Cu1   N2    S    
C48   H24   S    
C18   C20   A    
C50   H28   S    
C15   H33   S    
Cu1   O10   S    
C34   C53   A    
C8    C10   A    
C21   C24   A    
C9    C54   A    
C47   H20   S    
Cu2   O8    S    
