data_mof_unit_41905.cif
_audit_creation_date              2012-12-11T14:07:42-0500
_audit_creation_method            fapswitch 2.2
_symmetry_space_group_name_H-M    P1
_symmetry_Int_Tables_number       1
_space_group_crystal_system       triclinic
_cell_length_a                    19.724052
_cell_length_b                    17.141888
_cell_length_c                    15.413381
_cell_angle_alpha                 90.000702
_cell_angle_beta                  53.751454
_cell_angle_gamma                 89.999791
_cell_volume                      4202.76713087

loop_
_atom_site_label
_atom_site_type_symbol
_atom_type_description
_atom_site_fract_x
_atom_site_fract_y
_atom_site_fract_z
_atom_type_partial_charge
C1    C     C_R   0.374716 0.196884 0.995973 -0.250241
C2    C     C_R   0.706197 0.848951 0.989274 0.143409
C3    C     C_R   0.206194 0.651051 0.989279 0.143420
C4    C     C_R   0.206197 0.348951 0.989274 0.143413
C5    C     C_R   0.615281 0.819300 0.693473 0.014661
C6    C     C_R   0.615299 0.180691 0.693465 0.014670
C7    C     C_R   0.115277 0.319297 0.693475 0.014618
C8    C     C_R   0.115302 0.680689 0.693463 0.014696
C9    C     C_3   0.192242 0.140017 0.507958 -0.505262
C10   C     C_3   0.192245 0.859943 0.507923 -0.505319
C11   C     C_3   0.692237 0.640025 0.507950 -0.505282
C12   C     C_R   0.374714 0.803117 0.995976 -0.250234
C13   C     C_3   0.692248 0.359949 0.507929 -0.505302
C14   C     C_3   0.134463 0.185910 0.613656 0.669372
C15   C     C_3   0.134441 0.814048 0.613612 0.669389
C16   C     C_3   0.634444 0.685922 0.613643 0.669370
C17   C     C_3   0.634453 0.314055 0.613621 0.669390
C18   C     C_3   0.313516 0.230059 0.455704 -0.392312
C19   C     C_3   0.313543 0.769963 0.455750 -0.392325
C20   C     C_3   0.813519 0.730050 0.455715 -0.392311
C21   C     C_3   0.813541 0.269956 0.455742 -0.392325
C22   C     C_3   0.718561 0.761296 0.400792 -0.421770
C23   C     C_R   0.874716 0.696884 0.995973 -0.250232
C24   C     C_3   0.718625 0.238662 0.400769 -0.421777
C25   C     C_3   0.218540 0.261279 0.400801 -0.421769
C26   C     C_3   0.218639 0.738651 0.400763 -0.421777
C27   C     C_3   0.261808 0.194641 0.419199 0.310514
C28   C     C_3   0.261850 0.805329 0.419192 0.310526
C29   C     C_3   0.761814 0.694646 0.419198 0.310512
C30   C     C_3   0.761846 0.305332 0.419193 0.310525
C31   C     C_3   0.664577 0.772282 0.595642 0.197142
C32   C     C_3   0.664602 0.227702 0.595633 0.197158
C33   C     C_3   0.164573 0.272279 0.595644 0.197138
C34   C     C_R   0.874714 0.303117 0.995976 -0.250247
C35   C     C_3   0.164605 0.727699 0.595632 0.197163
C36   C     C_3   0.756397 0.775841 0.559178 -0.354504
C37   C     C_3   0.756416 0.224164 0.559200 -0.354498
C38   C     C_3   0.256399 0.275864 0.559154 -0.354451
C39   C     C_3   0.256415 0.724179 0.559215 -0.354529
C40   C     C_R   0.356725 0.821799 0.217830 -0.129966
C41   C     C_R   0.356704 0.178184 0.217833 -0.129961
C42   C     C_R   0.856724 0.321800 0.217831 -0.129965
C43   C     C_R   0.856707 0.678186 0.217832 -0.129962
C44   C     C_3   0.661078 0.807060 0.504873 -0.517153
C45   C     C_R   0.665135 0.911847 0.058908 -0.139432
C46   C     C_3   0.661134 0.192905 0.504849 -0.517181
C47   C     C_3   0.161046 0.307035 0.504887 -0.517143
C48   C     C_3   0.161155 0.692889 0.504839 -0.517188
C49   C     C_2   0.279014 0.689388 0.969363 -0.202522
C50   C     C_2   0.279019 0.310615 0.969354 -0.202522
C51   C     C_2   0.779013 0.189388 0.969363 -0.202538
C52   C     C_2   0.779019 0.810615 0.969354 -0.202513
C53   C     C_2   0.808865 0.253942 0.909125 -0.124849
C54   C     C_2   0.808871 0.746059 0.909117 -0.124808
C55   C     C_2   0.308865 0.753942 0.909125 -0.124834
C56   C     C_R   0.665133 0.088155 0.058911 -0.139438
C57   C     C_2   0.308871 0.246059 0.909117 -0.124815
C58   C     C_R   0.364725 0.888743 0.897978 0.749798
C59   C     C_R   0.364727 0.111256 0.897976 0.749809
C60   C     C_R   0.864725 0.388743 0.897978 0.749802
C61   C     C_R   0.864727 0.611256 0.897976 0.749804
C62   C     C_R   0.367100 0.088975 0.316005 -0.146606
C63   C     C_R   0.367121 0.911008 0.316007 -0.146625
C64   C     C_R   0.867101 0.588976 0.316005 -0.146607
C65   C     C_R   0.867121 0.411009 0.316007 -0.146623
C66   C     C_R   0.346540 0.186896 0.934199 -0.060347
C67   C     C_R   0.165135 0.411847 0.058908 -0.139430
C68   C     C_R   0.346537 0.813105 0.934204 -0.060343
C69   C     C_R   0.846541 0.686896 0.934199 -0.060346
C70   C     C_R   0.846537 0.313105 0.934204 -0.060342
C71   C     C_R   0.320701 0.848668 0.320825 0.036993
C72   C     C_R   0.320663 0.151302 0.320827 0.036971
C73   C     C_R   0.820698 0.348671 0.320826 0.036989
C74   C     C_R   0.820668 0.651307 0.320826 0.036978
C75   C     C_R   0.657945 0.179846 0.958451 -0.127975
C76   C     C_R   0.657947 0.820155 0.958448 -0.127975
C77   C     C_R   0.157945 0.679845 0.958451 -0.127974
C78   C     C_R   0.165133 0.588154 0.058911 -0.139437
C79   C     C_R   0.157947 0.320155 0.958447 -0.127975
C80   C     C_R   0.604454 0.802832 0.788821 -0.115339
C81   C     C_R   0.604462 0.197165 0.788818 -0.115334
C82   C     C_R   0.104452 0.302831 0.788823 -0.115363
C83   C     C_R   0.104463 0.697164 0.788817 -0.115319
C84   C     C_R   0.594773 0.103755 0.695340 -0.129075
C85   C     C_R   0.594764 0.896239 0.695345 -0.129069
C86   C     C_R   0.094774 0.603754 0.695340 -0.129097
C87   C     C_R   0.094764 0.396238 0.695345 -0.129036
C88   C     C_R   0.706194 0.151051 0.989279 0.143426
F1    F     F_    0.136102 0.150139 0.692982 -0.705932
F2    F     F_    0.135980 0.849855 0.692997 -0.705929
F3    F     F_    0.636035 0.650137 0.692999 -0.705931
F4    F     F_    0.636022 0.349855 0.692986 -0.705929
F5    F     F_    0.363269 0.918768 0.817785 -0.663167
F6    F     F_    0.363273 0.081230 0.817781 -0.663155
F7    F     F_    0.863269 0.418768 0.817785 -0.663164
F8    F     F_    0.863273 0.581230 0.817781 -0.663161
H1    H     H_    0.384259 0.251506 0.022171 0.141467
H2    H     H_    0.568659 0.316035 0.638963 0.017402
H3    H     H_    0.068654 0.183895 0.639055 0.017397
H4    H     H_    0.068653 0.816014 0.638930 0.017410
H5    H     H_    0.345275 0.183618 0.470036 0.172216
H6    H     H_    0.345277 0.816428 0.470084 0.172192
H7    H     H_    0.845280 0.683604 0.470035 0.172194
H8    H     H_    0.845275 0.316418 0.470083 0.172204
H9    H     H_    0.761326 0.751270 0.622157 0.194019
H10   H     H_    0.761323 0.248745 0.622193 0.194017
H11   H     H_    0.261347 0.251320 0.622131 0.194020
H12   H     H_    0.384257 0.748495 0.022172 0.141463
H13   H     H_    0.261310 0.748777 0.622210 0.194017
H14   H     H_    0.766021 0.802530 0.338272 0.167902
H15   H     H_    0.766106 0.197430 0.338264 0.167912
H16   H     H_    0.265992 0.302521 0.338285 0.167903
H17   H     H_    0.266126 0.697423 0.338255 0.167912
H18   H     H_    0.681643 0.737259 0.373491 0.167836
H19   H     H_    0.681720 0.262677 0.373438 0.167836
H20   H     H_    0.181629 0.237234 0.373496 0.167840
H21   H     H_    0.181731 0.762660 0.373434 0.167833
H22   H     H_    0.595454 0.805999 0.529459 0.177244
H23   H     H_    0.884259 0.751506 0.022170 0.141469
H24   H     H_    0.595516 0.193957 0.529409 0.177243
H25   H     H_    0.095418 0.305945 0.529487 0.177249
H26   H     H_    0.095540 0.693921 0.529391 0.177239
H27   H     H_    0.683364 0.868574 0.487510 0.187713
H28   H     H_    0.683427 0.131393 0.487502 0.187718
H29   H     H_    0.183306 0.368557 0.487523 0.187707
H30   H     H_    0.183465 0.631382 0.487493 0.187722
H31   H     H_    0.363456 0.269247 0.392051 0.161430
H32   H     H_    0.363501 0.730770 0.392124 0.161449
H33   H     H_    0.863457 0.769246 0.392073 0.161442
H34   H     H_    0.884257 0.248495 0.022173 0.141459
H35   H     H_    0.863499 0.230768 0.392109 0.161440
H36   H     H_    0.340502 0.771043 0.192508 0.094103
H37   H     H_    0.340475 0.228938 0.192517 0.094106
H38   H     H_    0.840499 0.271044 0.192510 0.094104
H39   H     H_    0.840478 0.728940 0.192514 0.094105
H40   H     H_    0.778344 0.837513 0.545730 0.157646
H41   H     H_    0.778373 0.162495 0.545757 0.157647
H42   H     H_    0.278333 0.337542 0.545681 0.157635
H43   H     H_    0.278381 0.662514 0.545788 0.157654
H44   H     H_    0.297127 0.672003 0.020613 0.134248
H45   H     H_    0.154496 0.115559 0.482133 0.128514
H46   H     H_    0.297133 0.328001 0.020604 0.134249
H47   H     H_    0.797126 0.172004 0.020614 0.134248
H48   H     H_    0.797133 0.828001 0.020604 0.134248
H49   H     H_    0.792523 0.270188 0.855657 0.158947
H50   H     H_    0.792527 0.729811 0.855651 0.158945
H51   H     H_    0.292523 0.770188 0.855657 0.158939
H52   H     H_    0.292528 0.229812 0.855650 0.158955
H53   H     H_    0.362608 0.061865 0.382236 0.100590
H54   H     H_    0.362632 0.938119 0.382236 0.100586
H55   H     H_    0.862608 0.561865 0.382236 0.100586
H56   H     H_    0.154525 0.884381 0.482049 0.128526
H57   H     H_    0.862633 0.438119 0.382236 0.100588
H58   H     H_    0.667773 0.230863 0.911347 0.105793
H59   H     H_    0.667777 0.769138 0.911340 0.105800
H60   H     H_    0.167773 0.730863 0.911347 0.105784
H61   H     H_    0.167777 0.269138 0.911340 0.105813
H62   H     H_    0.610205 0.747303 0.816812 0.179503
H63   H     H_    0.610212 0.252695 0.816807 0.179488
H64   H     H_    0.110197 0.247302 0.816818 0.179520
H65   H     H_    0.110217 0.752695 0.816803 0.179476
H66   H     H_    0.588365 0.072647 0.639622 0.117813
H67   H     H_    0.654504 0.615565 0.482108 0.128522
H68   H     H_    0.588351 0.927344 0.639631 0.117817
H69   H     H_    0.088365 0.572646 0.639622 0.117817
H70   H     H_    0.088352 0.427344 0.639631 0.117808
H71   H     H_    0.682170 0.938378 0.106844 0.091632
H72   H     H_    0.682167 0.061625 0.106848 0.091633
H73   H     H_    0.182170 0.438378 0.106844 0.091632
H74   H     H_    0.182167 0.561625 0.106849 0.091633
H75   H     H_    0.220419 0.089772 0.521828 0.207770
H76   H     H_    0.220389 0.910200 0.521825 0.207778
H77   H     H_    0.720408 0.589782 0.521834 0.207774
H78   H     H_    0.654520 0.384386 0.482066 0.128522
H79   H     H_    0.720397 0.410206 0.521822 0.207775
H80   H     H_    0.568645 0.683926 0.639004 0.017416
N1    N     N_R   0.408680 0.130160 0.995800 -0.079797
N2    N     N_R   0.403730 0.078230 0.935950 -0.115953
N3    N     N_R   0.903730 0.421770 0.935950 -0.115952
N4    N     N_R   0.903730 0.578230 0.935950 -0.115952
N5    N     N_R   0.426630 0.075970 0.212960 -0.036822
N6    N     N_R   0.426630 0.924030 0.212960 -0.036817
N7    N     N_R   0.926630 0.575970 0.212960 -0.036822
N8    N     N_R   0.926630 0.424030 0.212960 -0.036817
N9    N     N_R   0.591320 0.134600 0.004200 -0.048065
N10   N     N_R   0.591320 0.865400 0.004200 -0.048064
N11   N     N_R   0.091320 0.634600 0.004200 -0.048064
N12   N     N_R   0.408680 0.869840 0.995800 -0.079797
N13   N     N_R   0.091320 0.365400 0.004200 -0.048065
N14   N     N_R   0.578320 0.867660 0.846880 -0.053715
N15   N     N_R   0.578320 0.132340 0.846880 -0.053713
N16   N     N_R   0.078320 0.367660 0.846880 -0.053713
N17   N     N_R   0.078320 0.632340 0.846880 -0.053714
N18   N     N_R   0.573370 0.074390 0.787040 -0.044627
N19   N     N_R   0.573370 0.925610 0.787040 -0.044629
N20   N     N_R   0.073370 0.574390 0.787040 -0.044627
N21   N     N_R   0.073370 0.425610 0.787040 -0.044629
N22   N     N_R   0.596270 0.927870 0.064040 -0.042949
N23   N     N_R   0.908680 0.630160 0.995800 -0.079797
N24   N     N_R   0.596270 0.072130 0.064040 -0.042950
N25   N     N_R   0.096270 0.427870 0.064040 -0.042949
N26   N     N_R   0.096270 0.572130 0.064040 -0.042950
N27   N     N_R   0.908680 0.369840 0.995800 -0.079796
N28   N     N_R   0.421680 0.867580 0.153120 -0.035312
N29   N     N_R   0.421680 0.132420 0.153120 -0.035315
N30   N     N_R   0.921680 0.367580 0.153120 -0.035311
N31   N     N_R   0.921680 0.632420 0.153120 -0.035316
N32   N     N_R   0.403730 0.921770 0.935950 -0.115952
Ni1   Ni    Ni4+2 0.500000 0.131190 0.000000 0.208135
Ni2   Ni    Ni4+2 0.500000 0.868810 0.000000 0.208134
Ni3   Ni    Ni4+2 0.000000 0.631190 0.000000 0.208139
Ni4   Ni    Ni4+2 0.000000 0.368810 0.000000 0.208127
Ni5   Ni    Ni4+2 0.488650 0.000000 0.862740 0.284624
Ni6   Ni    Ni4+2 0.988650 0.500000 0.862740 0.284624
Ni7   Ni    Ni4+2 0.511350 0.000000 0.137260 0.215087
Ni8   Ni    Ni4+2 0.011350 0.500000 0.137260 0.215087

loop_
_geom_bond_atom_site_label_1
_geom_bond_atom_site_label_2
_ccdc_geom_bond_type
C6    C32   S    
N32   Ni5   S    
C81   H63   S    
C62   H53   S    
C8    C83   A    
N7    N31   A    
C23   C69   A    
N5    N29   A    
C26   H21   S    
C57   C66   S    
N18   Ni5   S    
C41   H37   S    
C55   C68   S    
C3    C49   S    
C61   F8    S    
C2    C76   A    
C14   H3    S    
C63   H54   S    
C20   H7    S    
C67   H73   S    
C16   C31   S    
C12   C68   A    
N11   N26   A    
C52   H48   S    
C22   C29   S    
N6    N28   A    
C46   H24   S    
C40   C71   A    
C58   F5    S    
C24   H15   S    
C10   C15   S    
C77   H60   S    
C48   H26   S    
C19   H6    S    
N17   Ni3   S    
C87   H70   S    
C32   C46   S    
N22   Ni7   S    
C10   H76   S    
C12   N12   A    
C23   N23   A    
C19   H32   S    
C78   H74   S    
N24   Ni7   S    
C65   C73   A    
C14   F1    S    
N1    Ni1   S    
C38   H11   S    
C22   H18   S    
N16   Ni4   S    
C81   N15   A    
C65   H57   S    
C25   H16   S    
C10   H56   S    
C21   H8    S    
C1    N1    A    
C20   H33   S    
C7    C87   A    
C40   N28   A    
C84   N18   A    
C22   H14   S    
C56   C88   A    
C59   F6    S    
N29   Ni1   S    
C17   H2    S    
C15   H4    S    
C8    C86   A    
C26   C48   S    
C54   H50   S    
C86   N20   A    
C16   H80   S    
C43   C74   A    
C40   H36   S    
C63   N6    A    
C37   H41   S    
N31   Ni3   S    
C7    C33   S    
C46   H28   S    
C75   N9    A    
C86   H69   S    
N12   Ni2   S    
C14   C33   S    
C53   C70   S    
C36   H40   S    
C15   C35   S    
C52   C54   D    
C47   H29   S    
C20   C29   S    
C2    C45   A    
C13   H78   S    
C39   H43   S    
C11   H77   S    
C6    C84   A    
C31   C44   S    
N8    N30   A    
C43   N31   A    
C58   N32   A    
C13   C30   S    
C49   H44   S    
C4    C79   A    
N5    Ni7   S    
C25   H20   S    
C1    H1    S    
C12   H12   S    
C30   C73   S    
C9    H45   S    
C56   N24   A    
C85   N19   A    
C76   N10   A    
C29   C74   S    
C64   H55   S    
N13   N25   A    
C45   N22   A    
N16   N21   A    
C4    C50   S    
C51   C53   D    
C18   H5    S    
C1    C66   A    
C11   H67   S    
C83   N17   A    
C35   C39   S    
C9    C14   S    
N25   Ni8   S    
C67   N25   A    
N30   Ni4   S    
C18   H31   S    
C82   H64   S    
C11   C16   S    
C41   N29   A    
C80   H62   S    
C18   C38   S    
C60   C70   A    
C34   N27   A    
N17   N20   A    
C56   H72   S    
C53   H49   S    
N20   Ni6   S    
C38   H42   S    
C62   C72   A    
C64   N7    A    
C32   C37   S    
C5    C80   A    
C43   H39   S    
C19   C28   S    
C45   H71   S    
C11   C29   S    
C35   C48   S    
C63   C71   A    
C19   C39   S    
N14   N19   A    
N15   Ni1   S    
C41   C72   A    
C55   H51   S    
C58   C68   A    
N11   Ni3   S    
N10   Ni2   S    
N6    Ni7   S    
C77   N11   A    
N9    Ni1   S    
N27   Ni4   S    
C9    H75   S    
C28   C71   S    
C44   H22   S    
C87   N21   A    
C3    C77   A    
C60   N3    A    
C84   H66   S    
C9    C27   S    
C10   C28   S    
N7    Ni8   S    
C13   H79   S    
C34   C70   A    
C25   C47   S    
N12   N32   A    
C42   C73   A    
C22   C44   S    
C44   H27   S    
N2    Ni5   S    
C82   N16   A    
C36   H9    S    
C50   C57   D    
C80   N14   A    
C59   N2    A    
C18   C27   S    
C78   N26   A    
N3    N27   A    
N13   Ni4   S    
C51   C88   S    
C79   H61   S    
C4    C67   A    
C24   H19   S    
C51   H47   S    
C25   C27   S    
C21   C30   S    
C76   H59   S    
C26   C28   S    
C33   C38   S    
C2    C52   S    
C13   C17   S    
C42   H38   S    
C61   C69   A    
N4    Ni6   S    
N14   Ni2   S    
N15   N18   A    
C5    C85   A    
C37   H10   S    
C59   C66   A    
N4    N23   A    
C49   C55   D    
C62   N5    A    
C23   H23   S    
C75   H58   S    
C15   F2    S    
C54   C69   S    
C21   H35   S    
N3    Ni6   S    
C33   C47   S    
C42   N30   A    
N23   Ni3   S    
N9    N24   A    
C83   H65   S    
C24   C30   S    
C26   H17   S    
N8    Ni8   S    
N21   Ni6   S    
C47   H25   S    
C48   H30   S    
C20   C36   S    
C60   F7    S    
C17   F4    S    
C75   C88   A    
C39   H13   S    
C7    C82   A    
C21   C37   S    
C34   H34   S    
C61   N4    A    
N1    N2    A    
C79   N13   A    
C57   H52   S    
N28   Ni2   S    
C6    C81   A    
C17   C32   S    
C64   C74   A    
C31   C36   S    
N10   N22   A    
N26   Ni8   S    
C3    C78   A    
C8    C35   S    
C85   H68   S    
C27   C72   S    
C50   H46   S    
N19   Ni5   S    
C16   F3    S    
C24   C46   S    
C5    C31   S    
C65   N8    A    
