data_mof_unit_61896.cif
_audit_creation_date              2012-12-10T18:13:14-0500
_audit_creation_method            fapswitch 2.2
_symmetry_space_group_name_H-M    P1
_symmetry_Int_Tables_number       1
_space_group_crystal_system       triclinic
_cell_length_a                    36.311184
_cell_length_b                    29.167443
_cell_length_c                    21.625013
_cell_angle_alpha                 89.99992
_cell_angle_beta                  126.577399
_cell_angle_gamma                 90.000011
_cell_volume                      18392.4311146

loop_
_atom_site_label
_atom_site_type_symbol
_atom_type_description
_atom_site_fract_x
_atom_site_fract_y
_atom_site_fract_z
_atom_type_partial_charge
C1    C     C_R   0.913241 0.000000 0.913386 0.898714
C2    C     C_1   0.229480 1.000000 0.229204 0.002740
C3    C     C_3   0.449826 0.500004 0.235729 -0.502650
C4    C     C_1   0.862569 0.000000 0.862827 -0.231909
C5    C     C_1   0.137431 1.000000 0.137173 -0.231910
C6    C     C_1   0.362569 0.500000 0.862827 -0.231909
C7    C     C_1   0.637431 0.500000 0.137173 -0.231910
C8    C     C_3   0.931480 0.938246 0.618644 -0.877869
C9    C     C_3   0.068520 0.061753 0.381356 -0.877867
C10   C     C_3   0.068520 0.938246 0.381355 -0.877867
C11   C     C_3   0.931480 0.061754 0.618644 -0.877869
C12   C     C_3   0.431479 0.438247 0.618643 -0.877867
C13   C     C_1   0.270520 0.500000 0.770795 0.002740
C14   C     C_3   0.568523 0.561750 0.381360 -0.877860
C15   C     C_3   0.568516 0.438243 0.381351 -0.877868
C16   C     C_3   0.431480 0.561754 0.618645 -0.877870
C17   C     C_3   0.078800 0.957252 0.887433 -0.882977
C18   C     C_3   0.921201 0.042750 0.112568 -0.882974
C19   C     C_3   0.921199 0.957253 0.112566 -0.882975
C20   C     C_3   0.078800 0.042749 0.887432 -0.882975
C21   C     C_3   0.578799 0.457249 0.887431 -0.882976
C22   C     C_3   0.421204 0.542757 0.112573 -0.882970
C23   C     C_3   0.421195 0.457260 0.112561 -0.882978
C24   C     C_1   0.729480 0.500000 0.229204 0.002740
C25   C     C_3   0.578801 0.542746 0.887434 -0.882976
C26   C     C_1   0.728301 0.000000 0.728517 0.002409
C27   C     C_1   0.271699 1.000000 0.271483 0.002409
C28   C     C_1   0.228301 0.500000 0.728517 0.002409
C29   C     C_1   0.771699 0.500000 0.271483 0.002409
C30   C     C_1   0.678463 0.000000 0.678587 0.000696
C31   C     C_1   0.321537 1.000000 0.321413 0.000696
C32   C     C_1   0.178463 0.500000 0.678587 0.000696
C33   C     C_R   0.086759 1.000000 0.086614 0.898711
C34   C     C_1   0.821537 0.500000 0.321413 0.000696
C35   C     C_1   0.636243 0.000000 0.636296 -0.202602
C36   C     C_1   0.363757 1.000000 0.363704 -0.202602
C37   C     C_1   0.136243 0.500000 0.636296 -0.202602
C38   C     C_1   0.863757 0.500000 0.363704 -0.202602
C39   C     C_R   0.000000 0.913249 0.500000 0.899984
C40   C     C_R   1.000000 0.086751 0.500000 0.899984
C41   C     C_R   0.500000 0.413249 0.500000 0.899985
C42   C     C_R   0.500000 0.586751 0.500000 0.899983
C43   C     C_R   0.999932 0.000000 0.622455 0.899266
C44   C     C_R   0.413241 0.500000 0.913386 0.898714
C45   C     C_R   0.000068 0.000000 0.377545 0.899266
C46   C     C_R   0.499932 0.500000 0.622455 0.899266
C47   C     C_R   0.500068 0.500000 0.377545 0.899266
C48   C     C_R   0.500000 0.085565 0.500000 0.876479
C49   C     C_R   0.500000 0.914435 0.500000 0.876479
C50   C     C_R   0.000000 0.585565 0.500000 0.876479
C51   C     C_R   0.000000 0.414435 0.500000 0.876479
C52   C     C_R   0.585555 1.000000 0.585562 0.876570
C53   C     C_R   0.414445 0.000000 0.414438 0.876570
C54   C     C_R   0.085555 0.500000 0.585562 0.876570
C55   C     C_R   0.586759 0.500000 0.086614 0.898711
C56   C     C_R   0.914445 0.500000 0.414438 0.876570
C57   C     C_1   0.000000 0.862574 0.500000 -0.233904
C58   C     C_1   1.000000 0.137426 0.500000 -0.233905
C59   C     C_1   0.500000 0.362574 0.500000 -0.233904
C60   C     C_1   0.500000 0.637426 0.500000 -0.233905
C61   C     C_R   0.998679 0.000000 0.876329 0.895365
C62   C     C_R   0.001321 1.000000 0.123671 0.895365
C63   C     C_R   0.498679 0.500000 0.876329 0.895365
C64   C     C_R   0.501321 0.500000 0.123671 0.895365
C65   C     C_1   0.000000 0.820361 0.500000 -0.001493
C66   C     C_1   0.820354 0.000000 0.820655 0.000579
C67   C     C_1   1.000000 0.179639 0.500000 -0.001493
C68   C     C_1   0.500000 0.320360 0.500000 -0.001493
C69   C     C_1   0.500000 0.679639 0.500000 -0.001493
C70   C     C_1   0.000000 0.770525 0.500000 0.002436
C71   C     C_1   1.000000 0.229475 0.500000 0.002436
C72   C     C_1   0.500000 0.270525 0.500000 0.002436
C73   C     C_1   0.500000 0.729475 0.500000 0.002436
C74   C     C_1   0.500000 0.228309 0.500000 0.002164
C75   C     C_1   0.500000 0.771691 0.500000 0.002164
C76   C     C_1   0.000000 0.728309 0.500000 0.002164
C77   C     C_1   0.179646 1.000000 0.179345 0.000579
C78   C     C_1   1.000000 0.271691 0.500000 0.002164
C79   C     C_1   0.500000 0.178471 0.500000 0.000647
C80   C     C_1   0.500000 0.821529 0.500000 0.000647
C81   C     C_1   0.000000 0.678471 0.500000 0.000647
C82   C     C_1   1.000000 0.321529 0.500000 0.000647
C83   C     C_1   0.500000 0.136253 0.500000 -0.202645
C84   C     C_1   0.500000 0.863746 0.500000 -0.202644
C85   C     C_1   1.000000 0.636253 0.500000 -0.202645
C86   C     C_1   1.000000 0.363746 0.500000 -0.202644
C87   C     C_3   0.973682 0.957368 0.759816 -0.441335
C88   C     C_1   0.320354 0.500000 0.820655 0.000579
C89   C     C_3   0.026319 0.042631 0.240184 -0.441335
C90   C     C_3   0.026317 0.957368 0.240183 -0.441337
C91   C     C_3   0.973682 0.042632 0.759816 -0.441336
C92   C     C_3   0.473681 0.457369 0.759815 -0.441339
C93   C     C_3   0.526323 0.542629 0.240188 -0.441340
C94   C     C_3   0.526313 0.457365 0.240179 -0.441330
C95   C     C_3   0.473683 0.542632 0.759817 -0.441336
C96   C     C_3   0.977234 0.954508 0.692704 0.017154
C97   C     C_3   0.022766 0.045491 0.307297 0.017155
C98   C     C_3   0.022765 0.954508 0.307296 0.017154
C99   C     C_1   0.679646 0.500000 0.179345 0.000579
C100  C     C_3   0.977234 0.045491 0.692703 0.017157
C101  C     C_3   0.477233 0.454509 0.692703 0.017156
C102  C     C_3   0.522769 0.545490 0.307299 0.017154
C103  C     C_3   0.522762 0.454507 0.307294 0.017154
C104  C     C_3   0.477235 0.545492 0.692704 0.017154
C105  C     C_3   0.051717 0.000000 0.837820 0.393973
C106  C     C_3   0.948283 0.000001 0.162180 0.393973
C107  C     C_3   0.551717 0.499999 0.837820 0.393974
C108  C     C_3   0.448283 0.500005 0.162180 0.393974
C109  C     C_3   0.000344 1.000000 0.810670 0.078227
C110  C     C_1   0.770520 0.000000 0.770795 0.002740
C111  C     C_3   0.999656 1.000000 0.189330 0.078228
C112  C     C_3   0.500344 0.500000 0.810670 0.078228
C113  C     C_3   0.499656 0.500000 0.189330 0.078227
C114  C     C_3   0.999493 0.000000 0.689549 0.077032
C115  C     C_3   0.000507 0.000000 0.310451 0.077033
C116  C     C_3   0.499493 0.500000 0.689549 0.077032
C117  C     C_3   0.500506 0.500000 0.310451 0.077032
C118  C     C_3   0.050174 0.000000 0.764270 -0.502649
C119  C     C_3   0.949826 0.000000 0.235729 -0.502650
C120  C     C_3   0.550174 0.499999 0.764270 -0.502649
H1    H     H_    0.986702 0.924907 0.793290 0.177019
H2    H     H_    0.062846 0.040189 0.261871 0.182599
H3    H     H_    0.062844 0.959809 0.261869 0.182600
H4    H     H_    0.937155 0.040190 0.738130 0.182600
H5    H     H_    0.437154 0.459812 0.738128 0.182600
H6    H     H_    0.562850 0.540182 0.261877 0.182599
H7    H     H_    0.562840 0.459802 0.261864 0.182599
H8    H     H_    0.437156 0.540192 0.738132 0.182600
H9    H     H_    0.001573 0.926104 0.706340 0.144789
H10   H     H_    0.998428 0.073896 0.293660 0.144789
H11   H     H_    0.998427 0.926104 0.293660 0.144789
H12   H     H_    0.013299 0.075092 0.206712 0.177019
H13   H     H_    0.001572 0.073896 0.706340 0.144789
H14   H     H_    0.501572 0.426104 0.706340 0.144789
H15   H     H_    0.498432 0.573897 0.293662 0.144790
H16   H     H_    0.498423 0.426104 0.293658 0.144788
H17   H     H_    0.501573 0.573896 0.706340 0.144789
H18   H     H_    0.068738 0.969737 0.763742 0.181876
H19   H     H_    0.931262 0.030264 0.236259 0.181876
H20   H     H_    0.931262 0.969737 0.236258 0.181876
H21   H     H_    0.068738 0.030263 0.763741 0.181876
H22   H     H_    0.568738 0.469736 0.763741 0.181876
H23   H     H_    0.013296 0.924907 0.206710 0.177019
H24   H     H_    0.431264 0.530268 0.236261 0.181874
H25   H     H_    0.431260 0.469741 0.236255 0.181878
H26   H     H_    0.568738 0.530262 0.763742 0.181877
H27   H     H_    0.920429 0.906166 0.630969 0.230942
H28   H     H_    0.903691 0.963468 0.596895 0.253792
H29   H     H_    0.935432 0.929488 0.572997 0.253643
H30   H     H_    0.079572 0.093833 0.369032 0.230942
H31   H     H_    0.064568 0.070512 0.427003 0.253642
H32   H     H_    0.096309 0.036531 0.403107 0.253793
H33   H     H_    0.064568 0.929488 0.427003 0.253643
H34   H     H_    0.986702 0.075093 0.793289 0.177019
H35   H     H_    0.079570 0.906165 0.369031 0.230941
H36   H     H_    0.096309 0.963467 0.403104 0.253791
H37   H     H_    0.920428 0.093834 0.630968 0.230942
H38   H     H_    0.935432 0.070512 0.572997 0.253643
H39   H     H_    0.903691 0.036532 0.596894 0.253792
H40   H     H_    0.420427 0.406167 0.630968 0.230942
H41   H     H_    0.403691 0.463469 0.596893 0.253792
H42   H     H_    0.435432 0.429488 0.572997 0.253642
H43   H     H_    0.564570 0.570512 0.427005 0.253638
H44   H     H_    0.596311 0.536526 0.403114 0.253795
H45   H     H_    0.486700 0.424908 0.793288 0.177020
H46   H     H_    0.579578 0.593829 0.369037 0.230941
H47   H     H_    0.564566 0.429488 0.427002 0.253646
H48   H     H_    0.579564 0.406160 0.369026 0.230941
H49   H     H_    0.596308 0.463461 0.403097 0.253788
H50   H     H_    0.420430 0.593835 0.630969 0.230942
H51   H     H_    0.435432 0.570511 0.572997 0.253644
H52   H     H_    0.403691 0.536534 0.596897 0.253791
H53   H     H_    0.063180 0.924862 0.855211 0.221040
H54   H     H_    0.114480 0.958128 0.905060 0.239737
H55   H     H_    0.081033 0.956177 0.940879 0.247795
H56   H     H_    0.513307 0.575091 0.206718 0.177020
H57   H     H_    0.936822 0.075139 0.144791 0.221039
H58   H     H_    0.918967 0.043825 0.059122 0.247796
H59   H     H_    0.885521 0.041874 0.094942 0.239736
H60   H     H_    0.885519 0.958130 0.094939 0.239737
H61   H     H_    0.918966 0.956178 0.059120 0.247794
H62   H     H_    0.936819 0.924863 0.144788 0.221039
H63   H     H_    0.081033 0.043824 0.940878 0.247795
H64   H     H_    0.114480 0.041872 0.905059 0.239737
H65   H     H_    0.063179 0.075138 0.855210 0.221039
H66   H     H_    0.563178 0.424861 0.855208 0.221040
H67   H     H_    0.513289 0.424905 0.206703 0.177018
H68   H     H_    0.614479 0.458125 0.905058 0.239737
H69   H     H_    0.581032 0.456174 0.940878 0.247796
H70   H     H_    0.418970 0.543833 0.059126 0.247799
H71   H     H_    0.385525 0.541885 0.094947 0.239734
H72   H     H_    0.436829 0.575145 0.144799 0.221039
H73   H     H_    0.436811 0.424869 0.144780 0.221040
H74   H     H_    0.385515 0.458141 0.094933 0.239738
H75   H     H_    0.418963 0.456186 0.059116 0.247790
H76   H     H_    0.581034 0.543821 0.940880 0.247793
H77   H     H_    0.614481 0.541869 0.905061 0.239738
H78   H     H_    0.486704 0.575093 0.793291 0.177019
H79   H     H_    0.563182 0.575136 0.855212 0.221040
H80   H     H_    0.937155 0.959810 0.738130 0.182600
O1    O     O_R   0.936850 0.964330 0.936870 -0.601393
O2    O     O_R   0.000010 0.035670 0.092610 -0.625536
O3    O     O_R   0.000010 0.964330 0.092610 -0.625536
O4    O     O_R   0.999990 0.035670 0.907390 -0.625536
O5    O     O_R   0.499990 0.464330 0.907390 -0.625536
O6    O     O_R   0.500010 0.535670 0.092610 -0.625536
O7    O     O_R   0.500010 0.464330 0.092610 -0.625536
O8    O     O_R   0.499990 0.535670 0.907390 -0.625536
O9    O     O_R   0.964320 0.936860 0.464320 -0.603030
O10   O     O_R   0.035680 0.063140 0.535680 -0.603030
O11   O     O_R   0.035680 0.936860 0.535680 -0.603030
O12   O     O_R   0.063150 0.035670 0.063130 -0.601393
O13   O     O_R   0.964320 0.063140 0.464320 -0.603030
O14   O     O_R   0.464320 0.436860 0.464320 -0.603029
O15   O     O_R   0.535680 0.563140 0.535680 -0.603030
O16   O     O_R   0.535680 0.436860 0.535680 -0.603030
O17   O     O_R   0.464320 0.563140 0.464320 -0.603030
O18   O     O_R   0.964330 0.000000 0.556950 -0.605221
O19   O     O_R   0.035670 0.000000 0.443050 -0.605221
O20   O     O_R   0.464330 0.500000 0.556950 -0.605221
O21   O     O_R   0.535670 0.500000 0.443050 -0.605222
O22   O     O_R   0.035630 1.000000 0.628230 -0.636460
O23   O     O_R   0.063150 0.964330 0.063130 -0.601393
O24   O     O_R   0.964370 0.000000 0.371770 -0.636461
O25   O     O_R   0.535630 0.500000 0.628230 -0.636460
O26   O     O_R   0.464370 0.500000 0.371770 -0.636461
O27   O     O_R   0.499940 0.063120 0.447680 -0.592288
O28   O     O_R   0.500060 0.936880 0.552320 -0.592288
O29   O     O_R   0.500060 0.063120 0.552320 -0.592287
O30   O     O_R   0.499940 0.936880 0.447680 -0.592288
O31   O     O_R   0.999940 0.563120 0.447680 -0.592288
O32   O     O_R   0.000060 0.436880 0.552320 -0.592288
O33   O     O_R   0.000060 0.563120 0.552320 -0.592287
O34   O     O_R   0.936850 0.035670 0.936870 -0.601394
O35   O     O_R   0.999940 0.436880 0.447680 -0.592288
O36   O     O_R   0.563110 0.000000 0.510830 -0.592456
O37   O     O_R   0.436890 0.000000 0.489170 -0.592455
O38   O     O_R   0.063110 0.500000 0.510830 -0.592456
O39   O     O_R   0.936890 0.500000 0.489170 -0.592455
O40   O     O_R   0.563120 1.000000 0.615390 -0.592090
O41   O     O_R   0.436880 1.000000 0.384610 -0.592090
O42   O     O_R   0.063120 0.500000 0.615390 -0.592090
O43   O     O_R   0.936880 0.500000 0.384610 -0.592090
O44   O     O_R   0.436850 0.464330 0.936870 -0.601393
O45   O     O_R   0.563150 0.535670 0.063130 -0.601393
O46   O     O_R   0.563150 0.464330 0.063130 -0.601393
O47   O     O_R   0.436850 0.535670 0.936870 -0.601394
O48   O     O_R   0.999990 0.964330 0.907390 -0.625536
Zn1   Zn    Zn3+2 1.000000 0.952370 0.000000 0.939694
Zn2   Zn    Zn3+2 0.500030 0.000000 0.569830 0.964314
Zn3   Zn    Zn3+2 0.999970 0.500000 0.430170 0.964313
Zn4   Zn    Zn3+2 0.000030 0.500000 0.569830 0.964314
Zn5   Zn    Zn3+2 0.000000 0.047630 0.000000 0.939694
Zn6   Zn    Zn3+2 0.500000 0.452370 0.000000 0.939694
Zn7   Zn    Zn3+2 0.500000 0.547630 0.000000 0.939693
Zn8   Zn    Zn3+2 0.952370 0.000000 0.452390 0.938222
Zn9   Zn    Zn3+2 0.047630 0.000000 0.547610 0.938222
Zn10  Zn    Zn3+2 0.452370 0.500000 0.452390 0.938222
Zn11  Zn    Zn3+2 0.547630 0.500000 0.547610 0.938222
Zn12  Zn    Zn3+2 0.499970 0.000000 0.430170 0.964313

loop_
_geom_bond_atom_site_label_1
_geom_bond_atom_site_label_2
_ccdc_geom_bond_type
C79   C83   T    
C9    H32   S    
O40   Zn2   S    
C74   C79   S    
C41   O14   A    
O41   Zn12  S    
O38   Zn3   S    
C24   C99   S    
C107  C112  S    
C56   O39   A    
C8    C96   S    
O9    Zn8   S    
C7    C55   S    
C80   C84   T    
C42   O17   A    
O31   Zn3   S    
C92   H5    S    
C19   H61   S    
C11   H39   S    
C21   H66   S    
C58   C67   T    
C8    H28   S    
C101  H14   S    
O48   Zn1   S    
O10   Zn9   S    
C120  H26   S    
O45   Zn7   S    
C52   O36   A    
C89   H12   S    
C7    C99   T    
C30   C35   T    
C119  H20   S    
C54   O42   A    
C49   C84   S    
O7    Zn6   S    
C53   O41   A    
C97   H10   S    
C95   C112  S    
C61   O4    A    
C104  C116  S    
C106  C119  S    
C33   O12   A    
C22   C108  S    
O21   Zn11  S    
C14   C102  S    
O2    Zn5   S    
C89   H2    S    
C101  C116  S    
C65   C70   S    
C39   C57   S    
C40   O10   A    
C49   O30   A    
C6    C88   T    
C104  H17   S    
C15   H49   S    
C51   O35   A    
C90   H3    S    
O15   Zn11  S    
O12   Zn5   S    
C10   C98   S    
C11   H38   S    
C78   C82   S    
C24   C29   T    
C62   O2    A    
C36   C53   S    
C3    C117  S    
C50   C85   S    
C20   H65   S    
O3    Zn1   S    
C95   H8    S    
C16   C104  S    
C51   C86   S    
C62   C111  S    
C18   H57   S    
C55   O46   A    
C5    C33   S    
C40   O13   A    
C63   C112  S    
C13   C28   T    
C69   C73   S    
C2    C27   T    
C42   O15   A    
O8    Zn7   S    
O35   Zn3   S    
C91   C100  S    
C22   H70   S    
C75   C80   S    
C26   C110  T    
C90   H23   S    
C44   O47   A    
C20   H64   S    
O26   Zn10  S    
C118  H21   S    
C12   H41   S    
C61   C109  S    
C102  H15   S    
C6    C44   S    
C14   H44   S    
C73   C75   T    
C96   C114  S    
C103  C117  S    
C87   H80   S    
O6    Zn7   S    
C92   H45   S    
C10   H33   S    
C94   C113  S    
C17   H53   S    
O39   Zn4   S    
O28   Zn2   S    
C106  C111  S    
C44   O44   A    
C64   O7    A    
C9    H30   S    
O36   Zn12  S    
C40   C58   S    
C27   C31   S    
C28   C32   S    
C43   O22   A    
C46   O20   A    
C94   H67   S    
C54   O38   A    
C91   H34   S    
C72   C74   T    
C10   H36   S    
C87   H1    S    
C41   O16   A    
C92   C112  S    
O46   Zn6   S    
C94   H7    S    
C64   O6    A    
C29   C34   S    
O24   Zn8   S    
C12   H40   S    
O17   Zn10  S    
C116  C120  S    
C89   C97   S    
C11   C100  S    
C61   O48   A    
C108  C113  S    
C98   H11   S    
C50   O33   A    
O20   Zn10  S    
C103  H16   S    
C18   C106  S    
C95   C104  S    
C25   H79   S    
C17   C105  S    
C59   C68   T    
C55   O45   A    
C16   H52   S    
C21   H69   S    
C1    O34   A    
C68   C72   S    
C87   C96   S    
C23   H73   S    
C10   H35   S    
C39   O11   A    
C50   O31   A    
C120  H22   S    
C93   C113  S    
C32   C37   T    
C66   C110  S    
C49   O28   A    
C25   H76   S    
O34   Zn5   S    
O25   Zn11  S    
C114  C118  S    
C102  C117  S    
O27   Zn12  S    
C20   H63   S    
O19   Zn9   S    
C37   C54   S    
C92   C101  S    
C21   C107  S    
C56   O43   A    
O30   Zn12  S    
C18   H59   S    
O11   Zn9   S    
O1    Zn1   S    
C91   H4    S    
C70   C76   T    
C45   O19   A    
C5    C77   T    
O37   Zn2   S    
C8    H27   S    
C14   H46   S    
C48   O29   A    
C53   O37   A    
C15   H47   S    
C42   C60   S    
C107  C120  S    
C105  C118  S    
C100  H13   S    
C11   H37   S    
C21   H68   S    
C20   C105  S    
C48   O27   A    
C105  C109  S    
C9    H31   S    
C9    C97   S    
C64   C113  S    
C39   O9    A    
C51   O32   A    
C34   C38   T    
C45   O24   A    
C90   C111  S    
C3    H24   S    
O29   Zn2   S    
C17   H54   S    
C57   C65   T    
C45   C115  S    
C76   C81   S    
C94   C103  S    
C14   H43   S    
C26   C30   S    
C87   C109  S    
C3    C108  S    
C1    O1    A    
C89   C111  S    
C93   H56   S    
C115  C119  S    
C48   C83   S    
C46   C116  S    
C100  C114  S    
C63   O8    A    
C1    C4    S    
C119  H19   S    
C91   C109  S    
O43   Zn3   S    
C3    H25   S    
C8    H29   S    
O42   Zn4   S    
C12   C101  S    
C43   C114  S    
C2    C77   S    
C82   C86   T    
C15   H48   S    
C4    C66   T    
O4    Zn5   S    
C16   H51   S    
O23   Zn1   S    
C98   C115  S    
C47   O26   A    
C60   C69   T    
C95   H78   S    
C19   H62   S    
C23   C108  S    
C13   C88   S    
C46   O25   A    
C67   C71   S    
C71   C78   T    
C47   O21   A    
C93   H6    S    
C62   O3    A    
O22   Zn9   S    
C25   H77   S    
C52   O40   A    
C33   O23   A    
C12   H42   S    
C43   O18   A    
C19   C106  S    
C16   H50   S    
O32   Zn4   S    
C47   C117  S    
C38   C56   S    
C18   H58   S    
C93   C102  S    
C23   H74   S    
C63   O5    A    
C41   C59   S    
C23   H75   S    
C35   C52   S    
C97   C115  S    
O18   Zn8   S    
C31   C36   T    
O14   Zn10  S    
O13   Zn8   S    
O44   Zn6   S    
O16   Zn11  S    
C15   C103  S    
C22   H71   S    
C118  H18   S    
C22   H72   S    
C19   H60   S    
C90   C98   S    
C25   C107  S    
C81   C85   T    
O5    Zn6   S    
C17   H55   S    
O33   Zn4   S    
C96   H9    S    
O47   Zn7   S    
