data_mof_unit_38078.cif
_audit_creation_date              2012-12-10T19:04:14-0500
_audit_creation_method            fapswitch 2.2
_symmetry_space_group_name_H-M    P1
_symmetry_Int_Tables_number       1
_space_group_crystal_system       triclinic
_cell_length_a                    10.634993
_cell_length_b                    10.819177
_cell_length_c                    9.564477
_cell_angle_alpha                 90.038319
_cell_angle_beta                  90.478302
_cell_angle_gamma                 90.156235
_cell_volume                      1100.4639247

loop_
_atom_site_label
_atom_site_type_symbol
_atom_type_description
_atom_site_fract_x
_atom_site_fract_y
_atom_site_fract_z
_atom_type_partial_charge
C1    C     C_R   0.497384 0.262421 0.499889 0.791213
C2    C     C_3   0.958320 0.602688 0.446754 0.190598
C3    C     C_3   0.039422 0.510640 0.366032 -0.146963
C4    C     C_3   0.122751 0.500502 0.497935 0.002450
C5    C     C_R   0.484307 0.064063 0.625233 0.133627
C6    C     C_R   0.484353 0.129377 0.499587 -0.127868
C7    C     C_R   0.465868 0.064342 0.373714 -0.227933
C8    C     C_R   0.465764 0.935456 0.373938 -0.215572
C9    C     C_R   0.484852 0.870826 0.499860 -0.090640
C10   C     C_R   0.485146 0.936727 0.625394 0.078541
C11   C     C_3   0.573363 0.930365 0.747707 -0.539958
C12   C     C_R   0.259439 0.500351 0.499338 0.782435
C13   C     C_3   0.572931 0.071237 0.747299 -0.024234
C14   C     C_R   0.609388 0.515340 0.074351 0.236091
C15   C     C_R   0.394053 0.472865 0.073264 -0.097320
C16   C     C_R   0.394014 0.472953 0.924868 -0.061070
C17   C     C_R   0.609591 0.514202 0.927189 0.229107
C18   C     C_3   0.699072 0.620215 0.919512 -0.575677
C19   C     C_3   0.698354 0.622935 0.078834 -0.065226
C20   C     C_R   0.497715 0.737668 0.499987 0.810279
C21   C     C_R   0.740548 0.499094 0.500577 0.795169
C22   C     C_3   0.043613 0.392853 0.554052 -0.163798
C23   C     C_3   0.957659 0.403194 0.422902 -0.207746
C24   C     C_3   0.877297 0.497883 0.501596 0.013371
C25   C     C_3   0.961396 0.487712 0.632699 -0.175030
C26   C     C_3   0.043090 0.595655 0.576929 -0.220221
Cu1   Cu    Cu3+1 0.499990 0.499980 0.640670 0.947582
Cu2   Cu    Cu3+1 0.500010 0.500020 0.359330 0.952878
H1    H     H_    0.920015 0.324355 0.360951 0.131079
H2    H     H_    0.666136 0.890693 0.719570 0.178192
H3    H     H_    0.665028 0.114448 0.721924 0.153064
H4    H     H_    0.307653 0.452066 0.127042 0.139302
H5    H     H_    0.307480 0.452167 0.869771 0.143226
H6    H     H_    0.791485 0.592556 0.877017 0.177373
H7    H     H_    0.656941 0.702242 0.868137 0.214543
H8    H     H_    0.790418 0.600023 0.128254 0.178160
H9    H     H_    0.082314 0.305978 0.598417 0.126708
H10   H     H_    0.928629 0.475564 0.741530 0.131765
H11   H     H_    0.079962 0.675446 0.637880 0.128379
H12   H     H_    0.072950 0.522120 0.257174 0.124621
H13   H     H_    0.457445 0.112317 0.274722 0.167040
H14   H     H_    0.456619 0.887236 0.275179 0.167725
H15   H     H_    0.528307 0.887999 0.840638 0.192684
N1    N     N_R   0.500800 0.500930 0.147930 -0.177461
N2    N     N_R   0.500800 0.500890 0.852020 -0.173679
O1    O     O_R   0.500000 0.319640 0.618810 -0.557140
O2    O     O_R   0.500010 0.319680 0.381230 -0.588083
O3    O     O_R   0.316850 0.499950 0.618770 -0.592867
O4    O     O_R   0.316860 0.499990 0.381190 -0.599570
O5    O     O_R   0.499990 0.680320 0.618770 -0.581274
O6    O     O_R   0.500000 0.680360 0.381190 -0.551954
O7    O     O_R   0.683140 0.500010 0.618810 -0.589862
O8    O     O_R   0.683150 0.500050 0.381230 -0.568361
N3    N     N_3   0.513708 0.125675 0.870499 -0.562334
H16   H     H_    0.572686 0.109426 0.956506 0.214128
H17   H     H_    0.427984 0.081650 0.890714 0.221193
N4    N     N_3   0.641665 0.735109 0.135965 -0.516840
H18   H     H_    0.557308 0.754712 0.083409 0.214486
H19   H     H_    0.703089 0.808691 0.116940 0.218271
N5    N     N_3   0.908082 0.716485 0.387618 -0.599894
H20   H     H_    0.984547 0.773320 0.363819 0.208011
H21   H     H_    0.857745 0.761018 0.466286 0.205284

loop_
_geom_bond_atom_site_label_1
_geom_bond_atom_site_label_2
_ccdc_geom_bond_type
Cu1   O3    S    
C15   N1    A    
C4    C26   S    
C23   C24   S    
Cu2   O2    S    
C11   H15   S    
C6    C7    A    
C16   H5    S    
C4    C12   S    
C4    C22   S    
Cu2   O4    S    
C9    C20   S    
C5    C13   S    
C2    C3    S    
Cu1   O5    S    
C12   O3    A    
Cu1   N2    S    
C7    H13   S    
C12   O4    A    
C8    C9    A    
C24   C25   S    
C15   H4    S    
C2    C26   S    
C19   N4    S    
Cu2   O8    S    
C21   O8    A    
C11   C13   S    
C14   C17   A    
N4    H18   S    
C26   H11   S    
C23   H1    S    
Cu1   O1    S    
C5    C10   A    
C8    H14   S    
C3    H12   S    
C17   C18   S    
C20   O6    A    
N3    H17   S    
C19   H8    S    
C18   H6    S    
C2    C24   S    
C5    C6    A    
C25   H10   S    
Cu2   O6    S    
C2    N5    S    
C1    O1    A    
N4    H19   S    
C10   C11   S    
C16   N2    A    
C15   C16   A    
C9    C10   A    
C7    C8    A    
Cu1   O7    S    
C17   N2    A    
Cu2   N1    S    
C14   N1    A    
C13   N3    S    
C18   H7    S    
C21   C24   S    
Cu1   Cu2   S    
C22   C23   S    
C18   C19   S    
C20   O5    A    
C1    C6    S    
C25   C26   S    
N3    H16   S    
C22   H9    S    
C3    C23   S    
C14   C19   S    
C13   H3    S    
C21   O7    A    
N5    H21   S    
C3    C4    S    
C11   H2    S    
C1    O2    A    
N5    H20   S    
C22   C25   S    
