data_mof_unit_15908.cif
_audit_creation_date              2012-12-10T20:50:53-0500
_audit_creation_method            fapswitch 2.2
_symmetry_space_group_name_H-M    P1
_symmetry_Int_Tables_number       1
_space_group_crystal_system       triclinic
_cell_length_a                    18.403559
_cell_length_b                    18.43965
_cell_length_c                    18.463817
_cell_angle_alpha                 120.064317
_cell_angle_beta                  89.897583
_cell_angle_gamma                 120.225796
_cell_volume                      4415.07196097

loop_
_atom_site_label
_atom_site_type_symbol
_atom_type_description
_atom_site_fract_x
_atom_site_fract_y
_atom_site_fract_z
_atom_type_partial_charge
C1    C     C_R   0.359106 0.499801 0.360211 0.832515
C2    C     C_2   0.302991 0.491329 0.692719 -0.371875
C3    C     C_R   0.557000 0.829174 0.463377 -0.127305
C4    C     C_R   0.640928 0.500687 0.639194 0.861021
C5    C     C_R   0.466568 0.746744 0.422749 -0.118642
C6    C     C_R   0.433536 0.666631 0.332139 0.175282
C7    C     C_R   0.491550 0.670927 0.282436 -0.134878
C8    C     C_R   0.581875 0.753481 0.323320 -0.119665
C9    C     C_R   0.614612 0.832363 0.413736 -0.098978
C10   C     C_R   0.283471 0.572994 0.234094 -0.254810
C11   C     C_R   0.192353 0.494197 0.194047 -0.105419
C12   C     C_2   0.303793 0.111923 0.304696 -0.277339
C13   C     C_R   0.155154 0.413785 0.205842 -0.109883
C14   C     C_R   0.211273 0.413949 0.257643 0.392346
C15   C     C_R   0.302489 0.497898 0.302307 -0.117448
C16   C     C_R   0.637653 0.498069 0.359060 0.824493
C17   C     C_R   0.338600 0.577253 0.289284 -0.087412
C18   C     C_R   0.003795 0.346839 0.220643 -0.166273
C19   C     C_R   0.911318 0.273665 0.185276 -0.225708
C20   C     C_R   0.871309 0.182642 0.098139 0.595827
C21   C     C_R   0.925867 0.169951 0.046954 -0.180317
C22   C     C_R   0.018275 0.243837 0.082032 -0.256806
C23   C     C_2   0.775365 0.560116 0.839622 -0.168581
C24   C     C_R   0.057648 0.332614 0.169145 0.152034
C25   C     C_R   0.524326 0.836473 0.879542 0.517532
C26   C     C_R   0.571201 0.883727 0.838358 -0.289477
C27   C     C_R   0.652223 0.897341 0.830997 0.020330
C28   C     C_R   0.360537 0.498977 0.639172 0.873511
C29   C     C_R   0.688098 0.866402 0.867089 -0.049943
C30   C     C_R   0.642810 0.820321 0.908935 0.432835
C31   C     C_R   0.561599 0.807365 0.916414 -0.329827
C32   C     C_R   0.754782 0.054603 0.840224 -0.251428
C33   C     C_R   0.805545 0.108620 0.806129 -0.059352
C34   C     C_2   0.796099 0.492549 0.807050 -0.306237
C35   C     C_R   0.803313 0.053517 0.717356 0.093852
C36   C     C_R   0.746602 0.946063 0.663685 -0.255635
C37   C     C_R   0.695523 0.891825 0.697793 -0.072241
C38   C     C_R   0.701327 0.947383 0.788112 0.036611
C39   C     C_R   0.824658 0.108065 0.615453 -0.343911
C40   C     C_R   0.639110 0.778336 0.639029 0.788807
C41   C     C_R   0.879421 0.161073 0.581801 0.544865
C42   C     C_R   0.971297 0.207983 0.610059 -0.238130
C43   C     C_R   0.008862 0.205209 0.673503 -0.300432
C44   C     C_R   0.954876 0.155525 0.709978 0.539098
C45   C     C_2   0.716708 0.555932 0.782292 -0.145688
C46   C     C_R   0.861905 0.105585 0.679704 -0.004198
C47   C     C_R   0.626158 0.193228 0.268795 -0.383309
C48   C     C_R   0.675355 0.285106 0.275742 -0.168903
C49   C     C_R   0.632626 0.310610 0.239884 0.103804
C50   C     C_R   0.539931 0.243564 0.197427 -0.362492
C51   C     C_R   0.490216 0.149627 0.188417 0.536889
C52   C     C_R   0.360658 0.222937 0.362317 0.847453
C53   C     C_R   0.533327 0.124446 0.224563 0.457964
C54   C     C_R   0.739872 0.406156 0.186834 0.379839
C55   C     C_R   0.801395 0.499289 0.197097 -0.131935
C56   C     C_2   0.699640 0.504309 0.694264 -0.306269
C57   C     C_R   0.806201 0.589139 0.257418 -0.040224
C58   C     C_R   0.748509 0.584420 0.305996 -0.195562
C59   C     C_R   0.690555 0.494336 0.300303 -0.121228
C60   C     C_R   0.686896 0.404583 0.241780 -0.082768
C61   C     C_R   0.965359 0.737858 0.314656 -0.214730
C62   C     C_R   0.030779 0.833841 0.333022 -0.124743
C63   C     C_R   0.006316 0.884431 0.313992 -0.168365
C64   C     C_2   0.279418 0.944069 0.234430 -0.096013
C65   C     C_R   0.916409 0.838761 0.275757 -0.229923
C66   C     C_R   0.850086 0.740979 0.254821 0.510674
C67   C     C_2   0.280075 0.540855 0.838299 0.490913
C68   C     C_R   0.874675 0.690869 0.275864 0.071094
C69   C     C_R   0.136816 0.499321 0.863352 0.873769
C70   C     C_R   0.858313 0.500336 0.142226 0.850665
C71   C     C_R   0.855982 0.498872 0.863454 0.865030
C72   C     C_R   0.137686 0.498533 0.141014 0.809419
C73   C     C_R   0.858755 0.221787 0.863849 0.777557
C74   C     C_R   0.136429 0.777021 0.141495 0.862047
C75   C     C_2   0.190365 0.887889 0.202171 -0.345138
C76   C     C_2   0.334595 0.056642 0.295232 -0.073804
C77   C     C_3   0.735576 0.085475 0.113684 0.070382
C78   C     C_2   0.192964 0.500878 0.807744 -0.348537
C79   C     C_3   0.767798 0.041406 0.146738 -0.396232
C80   C     C_3   0.705552 0.994889 0.188859 -0.915030
C81   C     C_3   0.380192 0.771231 0.809999 0.099753
C82   C     C_3   0.356450 0.840653 0.812375 -0.360733
C83   C     C_3   0.284503 0.784526 0.726374 -0.971279
C84   C     C_3   0.816900 0.228348 0.554722 0.091196
C85   C     C_3   0.783177 0.234539 0.483781 -0.330603
C86   C     C_3   0.754876 0.307450 0.521804 -0.978341
C87   C     C_3   0.050477 0.244482 0.850245 0.074766
C88   C     C_3   0.143476 0.267716 0.866886 -0.373177
C89   C     C_2   0.336406 0.546498 0.781169 -0.301588
C90   C     C_3   0.207588 0.367260 0.958177 -0.908735
C91   C     C_3   0.372503 0.041493 0.058161 0.096146
C92   C     C_3   0.311964 0.067566 0.037690 -0.352058
C93   C     C_3   0.276464 0.015932 0.938286 -0.969819
C94   C     C_3   0.743302 0.657612 0.126521 0.080607
C95   C     C_3   0.644524 0.605281 0.083871 -0.329801
C96   C     C_3   0.621831 0.563141 0.985642 -0.967947
H1    H     H_    0.313539 0.906885 0.217038 0.210002
H2    H     H_    0.311955 0.634325 0.224926 0.187864
H3    H     H_    0.154089 0.922120 0.222477 0.150516
H4    H     H_    0.033356 0.416134 0.287446 0.141084
H5    H     H_    0.872242 0.290207 0.226035 0.132799
H6    H     H_    0.896276 0.102099 0.979307 0.151075
H7    H     H_    0.059017 0.232482 0.041182 0.144790
H8    H     H_    0.526745 0.773877 0.950350 0.146653
H9    H     H_    0.545144 0.910320 0.812500 0.142254
H10   H     H_    0.751136 0.877603 0.862152 0.141256
H11   H     H_    0.403609 0.094998 0.330963 0.183693
H12   H     H_    0.160591 0.470279 0.740711 0.098560
H13   H     H_    0.756237 0.096215 0.908044 0.217451
H14   H     H_    0.744777 0.904584 0.595633 0.168435
H15   H     H_    0.753245 0.069625 0.592179 0.146476
H16   H     H_    0.013675 0.246593 0.582635 0.163573
H17   H     H_    0.079892 0.241048 0.693731 0.157476
H18   H     H_    0.660633 0.175167 0.296935 0.152553
H19   H     H_    0.747051 0.336029 0.308253 0.155066
H20   H     H_    0.236154 0.077038 0.268918 0.143474
H21   H     H_    0.506697 0.263611 0.170449 0.145129
H22   H     H_    0.752725 0.653680 0.352674 0.183652
H23   H     H_    0.408239 0.597019 0.813465 0.186100
H24   H     H_    0.985254 0.699996 0.330665 0.126364
H25   H     H_    0.100508 0.869327 0.362524 0.135296
H26   H     H_    0.057076 0.959237 0.329071 0.146428
H27   H     H_    0.898136 0.879115 0.262039 0.147233
H28   H     H_    0.800921 0.619696 0.910456 0.179531
H29   H     H_    0.768098 0.429079 0.737559 0.147656
H30   H     H_    0.688307 0.598341 0.814253 0.203661
H31   H     H_    0.729962 0.465286 0.660736 0.153719
H32   H     H_    0.121858 0.271463 0.218633 0.334190
H33   H     H_    0.663521 0.026244 0.073750 0.195686
H34   H     H_    0.232030 0.435288 0.656741 0.156235
H35   H     H_    0.739272 0.152317 0.169380 0.141977
H36   H     H_    0.770994 0.981111 0.090250 0.267101
H37   H     H_    0.835834 0.103223 0.196864 0.211736
H38   H     H_    0.703158 0.054625 0.247030 0.251602
H39   H     H_    0.730507 0.963538 0.211616 0.271359
H40   H     H_    0.637153 0.931245 0.139763 0.267240
H41   H     H_    0.319470 0.704622 0.803000 0.173157
H42   H     H_    0.398610 0.738536 0.749742 0.116938
H43   H     H_    0.331699 0.865740 0.868676 0.226987
H44   H     H_    0.416715 0.910277 0.822935 0.216047
H45   H     H_    0.684621 0.895832 0.445233 0.139435
H46   H     H_    0.308494 0.760524 0.669134 0.261832
H47   H     H_    0.268262 0.836695 0.730731 0.270655
H48   H     H_    0.222907 0.715526 0.715330 0.265800
H49   H     H_    0.639908 0.758737 0.969695 0.326863
H50   H     H_    0.874550 0.307187 0.610046 0.151788
H51   H     H_    0.761975 0.199424 0.580452 0.139017
H52   H     H_    0.836913 0.262308 0.456669 0.227822
H53   H     H_    0.725204 0.156594 0.428480 0.222931
H54   H     H_    0.699732 0.279881 0.547504 0.264051
H55   H     H_    0.731241 0.310809 0.469009 0.277876
H56   H     H_    0.582513 0.890294 0.533406 0.123776
H57   H     H_    0.812243 0.386218 0.576462 0.261663
H58   H     H_    0.025928 0.240769 0.904145 0.154826
H59   H     H_    0.055027 0.309486 0.854980 0.120794
H60   H     H_    0.138976 0.203263 0.862776 0.237651
H61   H     H_    0.170385 0.274989 0.815215 0.220045
H62   H     H_    0.212295 0.432762 0.964525 0.298061
H63   H     H_    0.275033 0.383633 0.967200 0.264581
H64   H     H_    0.184345 0.359674 0.011087 0.246365
H65   H     H_    0.523595 0.025364 0.242880 0.323690
H66   H     H_    0.333973 0.956620 0.021668 0.182282
H67   H     H_    0.422578 0.744483 0.461872 0.104433
H68   H     H_    0.429145 0.065750 0.032563 0.112498
H69   H     H_    0.254682 0.041528 0.061536 0.238979
H70   H     H_    0.349956 0.152272 0.073248 0.214384
H71   H     H_    0.332565 0.040167 0.912692 0.265832
H72   H     H_    0.234714 0.038554 0.926070 0.271328
H73   H     H_    0.234709 0.930886 0.901790 0.268106
H74   H     H_    0.675971 0.255805 0.107581 0.334534
H75   H     H_    0.758596 0.599839 0.091358 0.167359
H76   H     H_    0.783444 0.721089 0.118441 0.139478
H77   H     H_    0.603322 0.541020 0.090562 0.228787
H78   H     H_    0.467023 0.609767 0.212500 0.126913
H79   H     H_    0.628050 0.661739 0.118786 0.220380
H80   H     H_    0.661219 0.626497 0.977561 0.272064
H81   H     H_    0.549776 0.525734 0.956593 0.266034
H82   H     H_    0.636399 0.505203 0.949026 0.270144
H83   H     H_    0.381283 0.603669 0.935577 0.320130
H84   H     H_    0.626589 0.756102 0.285023 0.155173
O1    O     O_3   0.500000 0.500000 0.500000 -0.495401
O2    O     O_R   0.053310 0.439870 0.118130 -0.635664
O3    O     O_R   0.881750 0.270770 0.828220 -0.655994
O4    O     O_R   0.323160 0.439910 0.385120 -0.570508
O5    O     O_R   0.173180 0.729110 0.116590 -0.636002
O6    O     O_R   0.882410 0.270770 0.949030 -0.628859
O7    O     O_R   0.051730 0.729120 0.116590 -0.640012
O8    O     O_R   0.880830 0.560020 0.947500 -0.649223
O9    O     O_R   0.174110 0.560030 0.117490 -0.646481
O10   O     O_R   0.051730 0.439850 0.827330 -0.673102
O11   O     O_R   0.882410 0.439870 0.118130 -0.575127
O12   O     O_R   0.615510 0.439910 0.385120 -0.629180
O13   O     O_R   0.616440 0.439920 0.555110 -0.646749
O14   O     O_R   0.614860 0.560070 0.384480 -0.642335
O15   O     O_R   0.445540 0.560090 0.675280 -0.646151
O16   O     O_R   0.614860 0.729170 0.553580 -0.637917
O17   O     O_R   0.324090 0.270830 0.386020 -0.636937
O18   O     O_R   0.615510 0.729180 0.674390 -0.644623
O19   O     O_R   0.445540 0.270830 0.386020 -0.639423
O20   O     O_3   0.179048 0.333729 0.266466 -0.745729
O21   O     O_3   0.779622 0.107685 0.057090 -0.669996
O22   O     O_3   0.445939 0.825600 0.891561 -0.637426
O23   O     O_R   0.324090 0.439920 0.555110 -0.643559
O24   O     O_3   0.679554 0.789200 0.941981 -0.797294
O25   O     O_3   0.843148 0.161096 0.516354 -0.651945
O26   O     O_3   0.990694 0.146903 0.768850 -0.656976
O27   O     O_3   0.483512 0.031558 0.214231 -0.772876
O28   O     O_3   0.398286 0.084794 0.150013 -0.621750
O29   O     O_3   0.733303 0.318350 0.122397 -0.750642
O30   O     O_3   0.761084 0.696131 0.217291 -0.666844
O31   O     O_3   0.317998 0.579333 0.924927 -0.736593
O32   O     O_R   0.443960 0.560080 0.384480 -0.649480
O33   O     O_R   0.616440 0.560090 0.675280 -0.636398
O34   O     O_3   0.997270 0.499940 0.002610 -0.494968
O35   O     O_R   0.173180 0.560020 0.947500 -0.570859
O36   O     O_R   0.881750 0.560030 0.117490 -0.671593
O37   O     O_R   0.880830 0.439850 0.827330 -0.656110
Zn1   Zn    Zn3+2 0.543620 0.414150 0.457300 0.971906
Zn2   Zn    Zn3+2 0.542680 0.585840 0.456390 0.969459
Zn3   Zn    Zn3+2 0.543620 0.585850 0.629000 0.963072
Zn4   Zn    Zn3+2 0.370090 0.414160 0.457300 0.996242
Zn5   Zn    Zn3+2 0.953650 0.585790 0.045310 0.952694
Zn6   Zn    Zn3+2 0.953650 0.414090 0.873610 0.937717
Zn7   Zn    Zn3+2 0.954590 0.414100 0.046220 0.991788
Zn8   Zn    Zn3+2 0.127180 0.585790 0.045310 0.985611

loop_
_geom_bond_atom_site_label_1
_geom_bond_atom_site_label_2
_ccdc_geom_bond_type
C25   C31   A    
C47   H18   S    
C66   C68   A    
C87   C88   S    
C63   C65   A    
O37   Zn6   S    
C23   C45   S    
C27   C29   A    
C50   H21   S    
C11   C13   A    
C41   C42   A    
C19   C20   A    
C69   O35   A    
C85   H52   S    
O12   Zn1   S    
C71   O8    A    
C63   H26   S    
C81   C82   S    
C7    C8    A    
C39   C41   A    
C54   C60   A    
C85   C86   S    
C81   H41   S    
C23   H28   S    
C67   C78   D    
C93   H73   S    
C3    H56   S    
C37   C38   A    
C49   C60   S    
C18   C24   A    
C88   H60   S    
C21   C22   A    
C36   C37   A    
C86   H57   S    
C20   O21   S    
C37   C40   S    
O17   Zn4   S    
C86   H54   S    
C83   H48   S    
C73   O3    A    
C27   C38   S    
C7    H78   S    
H83   O31   S    
C58   H22   S    
C28   O15   A    
C80   H38   S    
O23   Zn4   S    
C78   H12   S    
C18   C19   A    
C77   H35   S    
C56   H31   S    
C90   H63   S    
C10   H2    S    
O34   Zn8   S    
C95   H79   S    
C82   H44   S    
C16   O12   A    
C94   H76   S    
C92   H69   S    
O33   Zn3   S    
C54   O29   S    
C62   C63   A    
C89   H23   S    
C93   H72   S    
C8    C9    A    
O1    Zn2   S    
O34   Zn6   S    
C91   H66   S    
C67   O31   S    
C1    C15   S    
C32   C38   A    
C96   H81   S    
C66   O30   S    
C29   C30   A    
O34   Zn5   S    
C47   C53   A    
C74   O5    A    
C39   H15   S    
C59   C60   A    
C13   C14   A    
C4    C56   S    
C1    O32   A    
C41   O25   S    
C69   C78   S    
C4    O13   A    
O19   Zn1   S    
C18   H4    S    
C95   H77   S    
C84   O25   S    
C26   H9    S    
C75   H3    S    
O15   Zn3   S    
C12   C52   S    
C1    O4    A    
C44   C46   A    
C70   O11   A    
C91   O28   S    
O36   Zn5   S    
C77   C79   S    
C64   C76   S    
O4    Zn4   S    
C79   H37   S    
O18   Zn3   S    
C74   C75   S    
O1    Zn4   S    
C84   C85   S    
C45   C56   D    
C25   O22   S    
C32   H13   S    
C91   C92   S    
C9    H45   S    
C11   C72   S    
C53   O27   S    
C42   H16   S    
O13   Zn1   S    
C25   C26   A    
C14   O20   S    
C82   C83   S    
C30   C31   A    
C22   H7    S    
C13   C24   S    
O35   Zn8   S    
C35   C36   A    
C90   H62   S    
C2    C89   D    
C43   C44   A    
H32   O20   S    
C87   O26   S    
C55   C57   A    
C82   H43   S    
C3    C9    A    
C94   H75   S    
H49   O24   S    
C8    H84   S    
C47   C48   A    
C45   H30   S    
C23   C34   D    
O5    Zn8   S    
C83   H47   S    
O1    Zn3   S    
C44   O26   S    
C50   C51   A    
C26   C27   A    
C87   H58   S    
C94   C95   S    
C52   O19   A    
C77   H33   S    
C88   H61   S    
C31   H8    S    
C61   H24   S    
C80   H39   S    
C6    C7    A    
O34   Zn7   S    
C39   C46   A    
C21   H6    S    
C33   C73   S    
C64   H1    S    
O32   Zn2   S    
C88   C90   S    
C94   O30   S    
C76   H11   S    
C48   H19   S    
C73   O6    A    
C65   H27   S    
C87   H59   S    
C91   H68   S    
C42   C43   A    
C57   C68   S    
C5    H67   S    
C72   O9    A    
C2    H34   S    
O16   Zn2   S    
C74   O7    A    
C40   O16   A    
C84   H51   S    
C15   C17   A    
C6    C17   S    
O6    Zn7   S    
C54   C55   A    
C48   C49   A    
C4    O33   A    
C96   H80   S    
C51   O28   S    
C28   O23   A    
O9    Zn8   S    
C81   H42   S    
C3    C5    A    
C77   O21   S    
C69   O10   A    
C71   O37   A    
C83   H46   S    
C96   H82   S    
C81   O22   S    
O7    Zn5   S    
C84   H50   S    
C30   O24   S    
O2    Zn7   S    
C80   H40   S    
C70   O36   A    
C32   C33   A    
C12   C76   D    
C58   C59   A    
C72   O2    A    
C86   H55   S    
C43   H17   S    
C36   H14   S    
C19   H5    S    
C61   C68   A    
C57   C58   A    
C5    C6    A    
H74   O29   S    
C40   O18   A    
C34   H29   S    
C79   H36   S    
C34   C71   S    
C92   C93   S    
C33   C35   A    
C64   C75   D    
C22   C24   A    
C65   C66   A    
C90   H64   S    
C61   C62   A    
C29   H10   S    
C85   H53   S    
C55   C70   S    
C16   O14   A    
C10   C11   A    
C51   C53   A    
C79   C80   S    
C92   H70   S    
C20   C21   A    
C93   H71   S    
O3    Zn6   S    
C49   C50   A    
O1    Zn1   S    
C67   C89   S    
C14   C15   A    
H65   O27   S    
C2    C28   S    
C52   O17   A    
C10   C17   A    
O14   Zn2   S    
O10   Zn6   S    
C35   C46   S    
O11   Zn7   S    
C16   C59   S    
C62   H25   S    
C95   C96   S    
C12   H20   S    
O8    Zn5   S    
