data_mof_unit_56225.cif
_audit_creation_date              2012-12-11T14:03:56-0500
_audit_creation_method            fapswitch 2.2
_symmetry_space_group_name_H-M    P1
_symmetry_Int_Tables_number       1
_space_group_crystal_system       triclinic
_cell_length_a                    19.136622
_cell_length_b                    11.080982
_cell_length_c                    18.990468
_cell_angle_alpha                 89.999984
_cell_angle_beta                  89.509752
_cell_angle_gamma                 90.0
_cell_volume                      4026.83001746

loop_
_atom_site_label
_atom_site_type_symbol
_atom_type_description
_atom_site_fract_x
_atom_site_fract_y
_atom_site_fract_z
_atom_type_partial_charge
C1    C     C_R   0.240620 0.464442 0.649834 0.520463
C2    C     C_R   0.759379 0.464436 0.350162 0.520998
C3    C     C_R   0.740621 0.964436 0.649838 0.520999
C4    C     C_R   0.259380 0.964442 0.350166 0.520463
C5    C     C_2   0.272192 0.875857 0.535343 0.114907
C6    C     C_2   0.727820 0.875875 0.464654 0.114885
C7    C     C_2   0.772180 0.375875 0.535346 0.114884
C8    C     C_2   0.227808 0.375857 0.464657 0.114907
C9    C     C_R   0.959371 0.647384 0.438040 -0.049852
C10   C     C_R   0.040616 0.647386 0.561962 -0.049504
C11   C     C_R   0.459384 0.147385 0.438038 -0.049504
C12   C     C_R   0.540628 0.147384 0.561960 -0.049851
C13   C     C_R   0.943142 0.863885 0.455681 -0.088014
C14   C     C_R   0.056833 0.863893 0.544327 -0.088040
C15   C     C_R   0.443166 0.363892 0.455674 -0.088039
C16   C     C_R   0.556857 0.363886 0.544319 -0.088014
C17   C     C_R   0.969834 0.972031 0.479861 -0.116839
C18   C     C_R   0.030135 0.972034 0.520148 -0.116934
C19   C     C_R   0.469864 0.472034 0.479852 -0.116933
C20   C     C_R   0.530165 0.472031 0.520139 -0.116840
C21   C     C_R   0.024599 0.755020 0.527154 0.003449
C22   C     C_R   0.975383 0.755018 0.472851 0.003390
C23   C     C_R   0.524617 0.255018 0.527149 0.003391
C24   C     C_R   0.475401 0.255020 0.472846 0.003448
C25   C     C_R   0.022467 0.536107 0.529235 0.019766
C26   C     C_R   0.977520 0.536106 0.470767 0.019683
C27   C     C_R   0.522480 0.036106 0.529233 0.019683
C28   C     C_R   0.477533 0.036107 0.470765 0.019766
C29   C     C_R   0.047251 0.423305 0.553840 -0.080869
C30   C     C_R   0.952737 0.423304 0.446162 -0.080706
C31   C     C_R   0.547263 0.923304 0.553838 -0.080706
C32   C     C_R   0.452749 0.923305 0.446160 -0.080869
C33   C     C_R   0.022469 0.316035 0.527904 -0.135793
C34   C     C_R   0.977519 0.316034 0.472099 -0.135594
C35   C     C_R   0.522481 0.816034 0.527901 -0.135593
C36   C     C_R   0.477531 0.816035 0.472096 -0.135793
C37   C     C_2   0.239317 0.899863 0.926749 -0.090606
C38   C     C_2   0.760863 0.898889 0.072954 -0.093130
C39   C     C_2   0.739136 0.398889 0.927046 -0.093130
C40   C     C_2   0.260683 0.399863 0.073251 -0.090607
C41   C     C_2   0.250046 0.897050 0.084807 0.135395
C42   C     C_2   0.750484 0.896088 0.914818 0.135222
C43   C     C_2   0.749516 0.396088 0.085182 0.135222
C44   C     C_2   0.249954 0.397050 0.915193 0.135395
C45   C     C_R   0.229685 0.880546 0.653140 0.552798
C46   C     C_R   0.770310 0.880558 0.346851 0.552923
C47   C     C_R   0.729690 0.380558 0.653149 0.552923
C48   C     C_R   0.270315 0.380546 0.346859 0.552798
C49   C     C_2   0.192355 0.919512 0.047371 -0.135038
C50   C     C_2   0.807959 0.919373 0.952466 -0.132746
C51   C     C_2   0.692040 0.419373 0.047534 -0.132746
C52   C     C_2   0.307645 0.419512 0.952629 -0.135038
C53   C     C_2   0.186011 0.888764 0.973055 -0.148014
C54   C     C_2   0.814306 0.888327 0.026764 -0.148076
C55   C     C_2   0.685694 0.388327 0.973236 -0.148075
C56   C     C_2   0.313989 0.388764 0.026945 -0.148014
C57   C     C_2   0.993375 0.663139 0.917889 -0.117007
C58   C     C_2   0.990387 0.656552 0.074425 -0.110355
C59   C     C_2   0.509613 0.156552 0.925575 -0.110354
C60   C     C_2   0.506625 0.163139 0.082111 -0.117007
C61   C     C_2   0.967786 0.568368 0.031496 -0.156284
C62   C     C_2   0.982615 0.564075 0.956460 -0.166951
C63   C     C_2   0.517385 0.064075 0.043540 -0.166951
C64   C     C_2   0.532214 0.068368 0.968504 -0.156284
C65   C     C_R   0.061045 0.649147 0.637558 0.529617
C66   C     C_R   0.938950 0.649146 0.362441 0.529987
C67   C     C_R   0.561050 0.149146 0.637559 0.529987
C68   C     C_R   0.438955 0.149147 0.362442 0.529617
C69   C     C_R   0.238493 0.465100 0.850331 0.553532
C70   C     C_R   0.761424 0.464929 0.149733 0.551661
C71   C     C_R   0.738576 0.964929 0.850267 0.551661
C72   C     C_R   0.261507 0.965101 0.149669 0.553531
C73   C     C_R   0.225669 0.870089 0.854044 0.530868
C74   C     C_R   0.774442 0.869735 0.145799 0.530354
C75   C     C_R   0.725558 0.369735 0.854200 0.530354
C76   C     C_R   0.274331 0.370089 0.145956 0.530868
C77   C     C_R   0.028943 0.652546 0.850317 0.561117
C78   C     C_R   0.967999 0.651633 0.147654 0.558152
C79   C     C_R   0.532001 0.151633 0.852346 0.558153
C80   C     C_R   0.471057 0.152546 0.149683 0.561117
C81   C     C_2   0.260752 0.941868 0.594098 0.157904
C82   C     C_2   0.739242 0.941880 0.405892 0.157825
C83   C     C_2   0.760758 0.441880 0.594108 0.157825
C84   C     C_2   0.239248 0.441868 0.405902 0.157904
C85   C     C_2   0.245865 0.904526 0.415062 -0.099572
C86   C     C_2   0.754135 0.904517 0.584943 -0.099624
C87   C     C_2   0.745865 0.404518 0.415058 -0.099625
C88   C     C_2   0.254135 0.404526 0.584938 -0.099572
C89   C     C_2   0.285446 0.934632 0.469155 -0.122278
C90   C     C_2   0.714565 0.934646 0.530845 -0.122337
C91   C     C_2   0.785436 0.434646 0.469156 -0.122339
C92   C     C_2   0.214553 0.434632 0.530845 -0.122278
Cr1   Cr    Cr6+3 0.113970 0.508630 0.747920 0.996679
Cr2   Cr    Cr6+3 0.886030 0.508630 0.252080 0.996326
Cr3   Cr    Cr6+3 0.613970 0.008630 0.747920 0.996327
Cr4   Cr    Cr6+3 0.386030 0.008630 0.252080 0.996680
Cr5   Cr    Cr6+3 0.269200 0.666740 0.749850 1.015328
Cr6   Cr    Cr6+3 0.730800 0.666740 0.250150 1.012873
Cr7   Cr    Cr6+3 0.769200 0.166740 0.749850 1.012871
Cr8   Cr    Cr6+3 0.230800 0.166740 0.250150 1.015328
Cr9   Cr    Cr6+3 0.112300 0.820070 0.749800 1.005125
Cr10  Cr    Cr6+3 0.887700 0.820070 0.250200 1.006482
Cr11  Cr    Cr6+3 0.612300 0.320070 0.749800 1.006483
Cr12  Cr    Cr6+3 0.387700 0.320070 0.250200 1.005125
H1    H     H_    0.323560 0.006536 0.464663 0.090004
H2    H     H_    0.676454 0.006555 0.535337 0.089913
H3    H     H_    0.823547 0.506554 0.464663 0.089912
H4    H     H_    0.176440 0.506536 0.535337 0.090004
H5    H     H_    0.133865 0.865850 0.955065 0.141488
H6    H     H_    0.866513 0.866179 0.044882 0.144723
H7    H     H_    0.633487 0.366179 0.955118 0.144724
H8    H     H_    0.366135 0.365849 0.044935 0.141488
H9    H     H_    0.291747 0.924893 0.942362 0.130123
H10   H     H_    0.708349 0.923022 0.057102 0.127585
H11   H     H_    0.791651 0.423022 0.942898 0.127584
H12   H     H_    0.208253 0.424893 0.057638 0.130123
H13   H     H_    0.939564 0.491077 0.052393 0.151919
H14   H     H_    0.987908 0.474662 0.933525 0.155279
H15   H     H_    0.512092 0.974662 0.066475 0.155279
H16   H     H_    0.560436 0.991077 0.947607 0.151919
H17   H     H_    0.018300 0.735129 0.054843 0.086695
H18   H     H_    0.985080 0.752565 0.939874 0.095184
H19   H     H_    0.514919 0.252565 0.060126 0.095184
H20   H     H_    0.481700 0.235129 0.945157 0.086695
H21   H     H_    0.200627 0.846166 0.421212 0.118707
H22   H     H_    0.799363 0.846132 0.578800 0.118666
H23   H     H_    0.700636 0.346135 0.421201 0.118666
H24   H     H_    0.299373 0.346166 0.578788 0.118707
H25   H     H_    0.943962 0.053496 0.465614 0.096770
H26   H     H_    0.056003 0.053502 0.534396 0.096732
H27   H     H_    0.443996 0.553501 0.465604 0.096732
H28   H     H_    0.556036 0.553497 0.534385 0.096770
H29   H     H_    0.896145 0.864306 0.426065 0.153974
H30   H     H_    0.103829 0.864322 0.573945 0.154087
H31   H     H_    0.396170 0.364321 0.426055 0.154087
H32   H     H_    0.603854 0.364307 0.573936 0.153974
H33   H     H_    0.913345 0.413979 0.406861 0.167109
H34   H     H_    0.086646 0.413980 0.593140 0.167149
H35   H     H_    0.413354 0.913979 0.406860 0.167149
H36   H     H_    0.586656 0.913980 0.593139 0.167110
H37   H     H_    0.038359 0.233970 0.552334 0.093640
H38   H     H_    0.961631 0.233966 0.447671 0.093790
H39   H     H_    0.538370 0.733966 0.552329 0.093790
H40   H     H_    0.461641 0.733970 0.447667 0.093641
H41   H     H_    0.149090 0.969994 0.070194 0.124138
H42   H     H_    0.850846 0.971222 0.929976 0.123809
H43   H     H_    0.649154 0.471222 0.070023 0.123809
H44   H     H_    0.350910 0.469994 0.929806 0.124138
O1    O     O_R   0.043230 0.549300 0.667990 -0.520793
O2    O     O_R   0.956770 0.549300 0.332010 -0.519181
O3    O     O_R   0.543230 0.049300 0.667990 -0.519181
O4    O     O_R   0.456770 0.049300 0.332010 -0.520791
O5    O     O_R   0.262920 0.788600 0.824420 -0.488993
O6    O     O_R   0.737080 0.788600 0.175580 -0.490625
O7    O     O_R   0.762920 0.288600 0.824420 -0.490626
O8    O     O_R   0.237080 0.288600 0.175580 -0.488993
O9    O     O_R   0.167530 0.905110 0.830340 -0.526949
O10   O     O_R   0.832470 0.905110 0.169660 -0.526195
O11   O     O_R   0.667530 0.405110 0.830340 -0.526195
O12   O     O_R   0.332470 0.405110 0.169660 -0.526949
O13   O     O_R   0.054010 0.748440 0.822860 -0.497070
O14   O     O_R   0.945990 0.748440 0.177140 -0.494659
O15   O     O_R   0.554010 0.248440 0.822860 -0.494660
O16   O     O_R   0.445990 0.248440 0.177140 -0.497069
O17   O     O_3   0.165160 0.665150 0.749190 -0.271657
O18   O     O_3   0.834840 0.665150 0.250810 -0.272639
O19   O     O_3   0.665160 0.165150 0.749190 -0.272639
O20   O     O_3   0.334840 0.165150 0.250810 -0.271657
O21   O     O_R   0.178620 0.457600 0.674100 -0.533537
O22   O     O_R   0.821380 0.457600 0.325900 -0.532989
O23   O     O_R   0.678620 0.957600 0.674100 -0.532989
O24   O     O_R   0.321380 0.957600 0.325900 -0.533536
O25   O     O_R   0.284680 0.542100 0.669460 -0.513774
O26   O     O_R   0.715320 0.542100 0.330540 -0.513687
O27   O     O_R   0.784680 0.042100 0.669460 -0.513688
O28   O     O_R   0.215320 0.042100 0.330540 -0.513774
O29   O     O_R   0.262860 0.790390 0.676650 -0.507963
O30   O     O_R   0.737140 0.790390 0.323350 -0.508003
O31   O     O_R   0.762860 0.290390 0.676650 -0.508004
O32   O     O_R   0.237140 0.290390 0.323350 -0.507963
O33   O     O_R   0.167460 0.907030 0.670940 -0.549006
O34   O     O_R   0.832540 0.907030 0.329060 -0.548778
O35   O     O_R   0.667460 0.407030 0.670940 -0.548776
O36   O     O_R   0.332540 0.407030 0.329060 -0.549006
O37   O     O_R   0.053950 0.750220 0.675100 -0.490667
O38   O     O_R   0.946050 0.750220 0.324900 -0.489628
O39   O     O_R   0.553950 0.250220 0.675100 -0.489629
O40   O     O_R   0.446050 0.250220 0.324900 -0.490666
O41   O     O_R   0.043300 0.547370 0.827390 -0.512696
O42   O     O_R   0.956700 0.547370 0.172610 -0.511993
O43   O     O_R   0.543300 0.047370 0.827390 -0.511993
O44   O     O_R   0.456700 0.047370 0.172610 -0.512695
O45   O     O_R   0.178690 0.455820 0.821860 -0.504985
O46   O     O_R   0.821310 0.455820 0.178140 -0.509581
O47   O     O_R   0.678690 0.955820 0.821860 -0.509580
O48   O     O_R   0.321310 0.955820 0.178140 -0.504985
O49   O     O_R   0.284750 0.540170 0.828860 -0.526679
O50   O     O_R   0.715250 0.540170 0.171140 -0.526648
O51   O     O_R   0.784750 0.040170 0.828860 -0.526648
O52   O     O_R   0.215250 0.040170 0.171140 -0.526679
N1    N     N_2   0.304054 0.820261 0.057952 -0.530385
H45   H     H_    0.353902 0.841202 0.074128 0.265581
C93   C     C_3   0.289057 0.692919 0.063122 -0.294950
H46   H     H_    0.332852 0.641323 0.039116 0.153270
H47   H     H_    0.283407 0.666029 0.119276 0.144447
H48   H     H_    0.240445 0.670464 0.034367 0.166275
N2    N     N_2   0.697204 0.817227 0.941076 -0.534246
H49   H     H_    0.647502 0.834836 0.923338 0.257455
C94   C     C_3   0.714378 0.690589 0.937350 -0.294025
H50   H     H_    0.670743 0.637671 0.960592 0.153060
H51   H     H_    0.721918 0.662703 0.881572 0.144486
H52   H     H_    0.762501 0.670949 0.967576 0.168214
N3    N     N_2   0.802796 0.317227 0.058923 -0.534247
H53   H     H_    0.852498 0.334836 0.076662 0.257455
C95   C     C_3   0.785622 0.190589 0.062650 -0.294025
H54   H     H_    0.829257 0.137671 0.039408 0.153060
H55   H     H_    0.778082 0.162703 0.118428 0.144486
H56   H     H_    0.737499 0.170949 0.032425 0.168214
N4    N     N_2   0.195945 0.320261 0.942048 -0.530385
H57   H     H_    0.146098 0.341202 0.925871 0.265581
C96   C     C_3   0.210943 0.192919 0.936878 -0.294950
H58   H     H_    0.167148 0.141323 0.960884 0.153270
H59   H     H_    0.216593 0.166028 0.880724 0.144447
H60   H     H_    0.259555 0.170464 0.965633 0.166275
N5    N     N_2   0.263200 0.747537 0.532772 -0.523664
H61   H     H_    0.229325 0.705702 0.567342 0.254345
C97   C     C_3   0.326919 0.682886 0.516849 -0.256199
H62   H     H_    0.318247 0.584782 0.518263 0.156189
H63   H     H_    0.367851 0.705345 0.555881 0.163835
H64   H     H_    0.344593 0.705464 0.462713 0.160476
N6    N     N_2   0.736814 0.747555 0.467224 -0.523690
H65   H     H_    0.770691 0.705724 0.432656 0.254349
C98   C     C_3   0.673094 0.682905 0.483143 -0.256262
H66   H     H_    0.681764 0.584801 0.481725 0.156176
H67   H     H_    0.632164 0.705369 0.444109 0.163728
H68   H     H_    0.655418 0.705477 0.537278 0.160529
N7    N     N_2   0.763186 0.247556 0.532775 -0.523686
H69   H     H_    0.729309 0.205724 0.567344 0.254349
C99   C     C_3   0.826906 0.182905 0.516857 -0.256259
H70   H     H_    0.818236 0.084801 0.518276 0.156177
H71   H     H_    0.867836 0.205369 0.555891 0.163727
H72   H     H_    0.844582 0.205477 0.462722 0.160528
N8    N     N_2   0.236800 0.247537 0.467228 -0.523664
H73   H     H_    0.270674 0.205702 0.432658 0.254345
C100  C     C_3   0.173081 0.182886 0.483152 -0.256199
H74   H     H_    0.181753 0.084782 0.481737 0.156189
H75   H     H_    0.132149 0.205345 0.444119 0.163835
H76   H     H_    0.155407 0.205464 0.537287 0.160477
N9    N     N_2   0.276887 0.068314 0.599378 -0.542394
H77   H     H_    0.312088 0.101713 0.563074 0.255885
C101  C     C_3   0.289765 0.113993 0.669734 -0.288351
H78   H     H_    0.307113 0.209202 0.667464 0.133409
H79   H     H_    0.331700 0.060675 0.695321 0.152027
H80   H     H_    0.241240 0.110310 0.702144 0.167242
N10   N     N_2   0.723091 0.068319 0.400601 -0.542393
H81   H     H_    0.687944 0.101751 0.436946 0.255871
C102  C     C_3   0.710100 0.113927 0.330250 -0.288385
H82   H     H_    0.692784 0.209154 0.332515 0.133445
H83   H     H_    0.668106 0.060611 0.304759 0.151351
H84   H     H_    0.758567 0.110170 0.297753 0.167637
N11   N     N_2   0.776909 0.568319 0.599400 -0.542392
H85   H     H_    0.812052 0.601754 0.563050 0.255871
C103  C     C_3   0.789908 0.613922 0.669750 -0.288384
H86   H     H_    0.831906 0.560605 0.695235 0.151353
H87   H     H_    0.741445 0.610161 0.702253 0.167633
H88   H     H_    0.807223 0.709151 0.667485 0.133446
N12   N     N_2   0.223113 0.568314 0.400622 -0.542394
H89   H     H_    0.187912 0.601713 0.436926 0.255885
C104  C     C_3   0.210234 0.613993 0.330266 -0.288351
H90   H     H_    0.192887 0.709202 0.332536 0.133409
H91   H     H_    0.168299 0.560675 0.304680 0.152028
H92   H     H_    0.258759 0.610309 0.297856 0.167242

loop_
_geom_bond_atom_site_label_1
_geom_bond_atom_site_label_2
_ccdc_geom_bond_type
C47   C83   S    
C103  H88   S    
C7    C83   D    
C93   H46   S    
Cr6   O6    S    
C100  H75   S    
Cr11  O19   S    
C6    C82   D    
C87   C91   D    
C86   H22   S    
C80   O44   A    
N1    H45   S    
C14   C18   A    
Cr1   O1    S    
C35   C36   A    
C78   O42   A    
C38   H10   S    
C57   C77   S    
C3    O23   A    
Cr2   O18   S    
C87   H23   S    
C45   O33   A    
C101  H78   S    
N3    H53   S    
C70   O46   A    
C15   C19   A    
C29   H34   S    
C93   H47   S    
C12   C23   A    
C1    O25   A    
C59   C64   D    
C50   C54   S    
C60   C63   D    
Cr11  O35   S    
C32   C36   A    
C14   C21   A    
C21   C22   A    
C99   H70   S    
C20   H28   S    
C66   O2    A    
C96   H60   S    
C95   H55   S    
C42   N2    S    
N11   H85   S    
Cr6   O26   S    
C43   C51   D    
C9    C22   A    
C101  H79   S    
C15   H31   S    
C53   H5    S    
N8    H73   S    
Cr4   O4    S    
C73   O9    A    
C11   C24   A    
C94   H52   S    
C63   H15   S    
C74   O6    A    
C25   C29   A    
C17   C18   A    
C102  H82   S    
C1    O21   A    
C46   O30   A    
C9    C66   S    
C80   O16   A    
C47   O31   A    
C102  H84   S    
C94   H51   S    
C57   H18   S    
C46   C82   S    
C71   O47   A    
C92   H4    S    
C40   C76   S    
C39   C55   D    
C88   C92   D    
C29   C33   A    
C5    N5    S    
C40   C56   D    
Cr7   O7    S    
Cr8   O28   S    
Cr3   O47   S    
C23   C24   A    
Cr4   O20   S    
C8    C92   S    
C39   C75   S    
Cr6   O30   S    
C98   H66   S    
C100  H76   S    
N11   C103  S    
C61   H13   S    
Cr10  O14   S    
C37   C53   D    
N10   C102  S    
C44   C52   D    
C58   C61   D    
Cr1   O17   S    
C52   H44   S    
C30   H33   S    
Cr2   O46   S    
C104  H90   S    
C3    C86   S    
C69   O49   A    
N1    C93   S    
Cr10  O10   S    
C61   C62   S    
C44   N4    S    
C96   H59   S    
Cr12  O12   S    
C43   N3    S    
Cr9   O37   S    
C41   C49   D    
C12   C67   S    
C67   O39   A    
C9    C26   A    
C94   H50   S    
Cr7   O19   S    
N3    C95   S    
C10   C21   A    
C19   H27   S    
Cr12  O40   S    
C93   H48   S    
C65   O37   A    
N9    C101  S    
C70   O50   A    
Cr5   O25   S    
C30   C34   A    
C12   C27   A    
C27   C31   A    
N2    H49   S    
Cr10  O34   S    
C34   H38   S    
C91   H3    S    
C103  H86   S    
Cr11  O39   S    
C90   H2    S    
C32   H35   S    
C99   H71   S    
C86   C90   D    
C95   H56   S    
C59   C79   S    
N4    H57   S    
C48   O36   A    
Cr6   O50   S    
C101  H80   S    
C4    C85   S    
C14   H30   S    
C8    N8    S    
N8    C100  S    
C25   C26   A    
C6    C90   S    
C17   H25   S    
Cr5   O5    S    
C76   O8    A    
C48   C84   S    
C84   N12   S    
C102  H83   S    
C54   H6    S    
C60   H19   S    
C95   H54   S    
Cr2   O42   S    
Cr7   O31   S    
C96   H58   S    
C68   O4    A    
Cr5   O49   S    
C73   O5    A    
C72   O52   A    
C5    C81   D    
Cr5   O29   S    
C97   H62   S    
C38   C54   D    
C28   C32   A    
C16   C20   A    
Cr1   O21   S    
C69   O45   A    
N5    H61   S    
N9    H77   S    
C49   H41   S    
C2    C87   S    
N6    C98   S    
Cr10  O38   S    
C74   O10   A    
Cr9   O17   S    
C98   H67   S    
Cr1   O45   S    
C51   H43   S    
Cr6   O18   S    
C42   C50   D    
C41   C72   S    
Cr8   O52   S    
C10   C25   A    
C47   O35   A    
C15   C24   A    
C97   H63   S    
C2    O22   A    
C78   O14   A    
C16   C23   A    
C39   H11   S    
Cr2   O22   S    
N7    C99   S    
C4    O28   A    
C31   C35   A    
C82   N10   S    
C18   H26   S    
C55   H7    S    
Cr3   O3    S    
Cr8   O8    S    
C57   C62   D    
C41   N1    S    
N10   H81   S    
Cr8   O32   S    
C7    C91   S    
C48   O32   A    
Cr9   O33   S    
C11   C68   S    
C3    O27   A    
C38   C74   S    
C10   C65   S    
C75   O11   A    
C59   H20   S    
C103  H87   S    
C7    N7    S    
C37   C73   S    
C60   C80   S    
C58   H17   S    
C85   C89   D    
Cr3   O43   S    
C4    O24   A    
Cr12  O36   S    
C85   H21   S    
C8    C84   D    
C13   H29   S    
C45   C81   S    
C79   O15   A    
Cr3   O19   S    
C72   O48   A    
Cr12  O20   S    
C81   N9    S    
C71   O51   A    
Cr1   O41   S    
C43   C70   S    
C50   H42   S    
Cr11  O15   S    
C64   H16   S    
C13   C17   A    
Cr8   O20   S    
N12   H89   S    
C33   H37   S    
C89   H1    S    
C46   O34   A    
C19   C20   A    
C104  H91   S    
C36   H40   S    
C77   O41   A    
C88   H24   S    
C66   O38   A    
C2    O26   A    
C6    N6    S    
C45   O29   A    
N12   C104  S    
Cr11  O11   S    
Cr12  O16   S    
C40   H12   S    
C76   O12   A    
C11   C28   A    
C1    C88   S    
C67   O3    A    
Cr5   O17   S    
Cr9   O13   S    
C42   C71   S    
N5    C97   S    
C77   O13   A    
C33   C34   A    
C13   C22   A    
C99   H72   S    
C51   C55   S    
N4    C96   S    
C65   O1    A    
Cr4   O44   S    
C98   H68   S    
N7    H69   S    
C62   H14   S    
C49   C53   S    
C83   N11   S    
C58   C78   S    
Cr9   O9    S    
C63   C64   S    
C75   O7    A    
Cr2   O2    S    
Cr4   O48   S    
C97   H64   S    
Cr7   O27   S    
C68   O40   A    
Cr10  O18   S    
Cr4   O24   S    
C104  H92   S    
Cr7   O51   S    
N6    H65   S    
N2    C94   S    
C44   C69   S    
C37   H9    S    
C79   O43   A    
C31   H36   S    
C100  H74   S    
Cr3   O23   S    
C56   H8    S    
C5    C89   S    
C52   C56   S    
C35   H39   S    
C27   C28   A    
C26   C30   A    
C16   H32   S    
