data_mof_unit_19066.cif
_audit_creation_date              2012-12-11T14:01:35-0500
_audit_creation_method            fapswitch 2.2
_symmetry_space_group_name_H-M    P1
_symmetry_Int_Tables_number       1
_space_group_crystal_system       triclinic
_cell_length_a                    19.037641
_cell_length_b                    10.981107
_cell_length_c                    18.784714
_cell_angle_alpha                 89.99799
_cell_angle_beta                  90.44349
_cell_angle_gamma                 90.001088
_cell_volume                      3926.90896156

loop_
_atom_site_label
_atom_site_type_symbol
_atom_type_description
_atom_site_fract_x
_atom_site_fract_y
_atom_site_fract_z
_atom_type_partial_charge
C1    C     C_R   0.272685 0.042223 0.853547 0.555806
C2    C     C_R   0.007701 0.665341 0.963933 -0.125262
C3    C     C_R   0.492312 0.165338 0.036049 -0.125268
C4    C     C_R   0.507838 0.165331 0.963839 -0.125539
C5    C     C_2   0.249568 0.580115 0.920580 -0.112855
C6    C     C_2   0.750436 0.580113 0.079424 -0.112451
C7    C     C_2   0.749565 0.080110 0.920577 -0.112453
C8    C     C_2   0.250432 0.080120 0.079421 -0.112853
C9    C     C_2   0.249523 0.587111 0.077232 -0.106787
C10   C     C_2   0.750477 0.587104 0.922766 -0.107589
C11   C     C_2   0.749523 0.087110 0.077233 -0.107587
C12   C     C_R   0.727316 0.042229 0.146456 0.558849
C13   C     C_2   0.250477 0.087106 0.922767 -0.106787
C14   C     C_2   0.295299 0.523260 0.037988 -0.164524
C15   C     C_2   0.704706 0.523244 0.962016 -0.164996
C16   C     C_2   0.795297 0.023256 0.037988 -0.164994
C17   C     C_2   0.204703 0.023251 0.962015 -0.164525
C18   C     C_2   0.304351 0.548442 0.962082 -0.162287
C19   C     C_2   0.695654 0.548426 0.037923 -0.161784
C20   C     C_2   0.804348 0.048434 0.962080 -0.161786
C21   C     C_2   0.195650 0.048437 0.037921 -0.162286
C22   C     C_2   0.514083 0.843597 0.586920 -0.096539
C23   C     C_R   0.772684 0.542227 0.853544 0.558847
C24   C     C_2   0.510722 0.829450 0.425724 -0.078507
C25   C     C_2   0.989383 0.329508 0.574339 -0.078415
C26   C     C_2   0.985785 0.343507 0.412985 -0.096451
C27   C     C_2   0.559056 0.793581 0.474309 -0.021466
C28   C     C_2   0.534822 0.754994 0.543403 -0.026418
C29   C     C_2   0.965437 0.254908 0.456711 -0.026462
C30   C     C_2   0.941101 0.293625 0.525720 -0.021572
C31   C     C_2   0.254323 0.611883 0.569543 -0.094835
C32   C     C_2   0.757138 0.562780 0.415035 -0.121356
C33   C     C_2   0.742878 0.062860 0.584938 -0.121309
C34   C     C_R   0.227315 0.542225 0.146453 0.555805
C35   C     C_2   0.245671 0.111889 0.430461 -0.094920
C36   C     C_2   0.256684 0.603418 0.414343 -0.112093
C37   C     C_2   0.761617 0.569010 0.571574 -0.105518
C38   C     C_2   0.738405 0.069075 0.428405 -0.105541
C39   C     C_2   0.243313 0.103430 0.585659 -0.112105
C40   C     C_R   0.471758 0.822206 0.853058 0.537535
C41   C     C_R   0.528277 0.822206 0.146915 0.538676
C42   C     C_R   0.971724 0.322205 0.853085 0.538656
C43   C     C_R   0.028242 0.322207 0.146942 0.537536
C44   C     C_2   0.217167 0.680712 0.450886 -0.168642
C45   C     C_R   0.486731 0.055470 0.072774 -0.084713
C46   C     C_2   0.818222 0.573541 0.529064 -0.166508
C47   C     C_2   0.681799 0.073680 0.470912 -0.166541
C48   C     C_2   0.282832 0.180723 0.549113 -0.168650
C49   C     C_2   0.228995 0.699690 0.526223 -0.150927
C50   C     C_2   0.813960 0.592999 0.453017 -0.168693
C51   C     C_2   0.686066 0.093123 0.546955 -0.168625
C52   C     C_2   0.271001 0.199699 0.473775 -0.150943
C53   C     C_R   0.261143 0.636267 0.851454 0.553917
C54   C     C_R   0.738858 0.636267 0.148546 0.552736
C55   C     C_R   0.761142 0.136265 0.851453 0.552743
C56   C     C_R   0.513412 0.055456 0.927127 -0.084800
C57   C     C_R   0.238857 0.136269 0.148546 0.553928
C58   C     C_R   0.270984 0.048094 0.649585 0.553805
C59   C     C_R   0.726023 0.041822 0.354070 0.543506
C60   C     C_R   0.773985 0.541802 0.645919 0.543490
C61   C     C_R   0.229015 0.548090 0.350416 0.553800
C62   C     C_R   0.471711 0.824646 0.649282 0.554140
C63   C     C_R   0.529163 0.823847 0.351681 0.536291
C64   C     C_R   0.970869 0.323860 0.648350 0.536275
C65   C     C_R   0.028279 0.324631 0.350706 0.554162
C66   C     C_R   0.261520 0.641877 0.643988 0.550648
C67   C     C_R   0.986597 0.555460 0.072861 -0.084800
C68   C     C_R   0.741208 0.631642 0.351130 0.541767
C69   C     C_R   0.758799 0.131669 0.648857 0.541812
C70   C     C_R   0.238478 0.141877 0.356014 0.550644
C71   C     C_R   0.500139 0.830475 0.074434 0.000497
C72   C     C_R   0.500001 0.830477 0.925494 0.000996
C73   C     C_R   0.999999 0.330479 0.074506 0.000998
C74   C     C_R   0.999862 0.330471 0.925565 0.000501
C75   C     C_R   0.496601 0.943094 0.037441 0.025542
C76   C     C_R   0.503546 0.943091 0.962478 0.025965
C77   C     C_R   0.996459 0.443093 0.037516 0.025960
C78   C     C_R   0.013280 0.555469 0.927214 -0.084709
C79   C     C_R   0.003405 0.443093 0.962553 0.025544
C80   C     C_R   0.501123 0.721042 0.963607 -0.152840
C81   C     C_R   0.499097 0.721039 0.036317 -0.152885
C82   C     C_R   0.000897 0.221034 0.963688 -0.152886
C83   C     C_R   0.998869 0.221040 0.036397 -0.152830
C84   C     C_3   0.636335 0.781053 0.460506 -0.337318
C85   C     C_3   0.529664 0.620176 0.558605 -0.356295
C86   C     C_3   0.971330 0.120033 0.441939 -0.356315
C87   C     C_3   0.863815 0.280939 0.539445 -0.337383
C88   C     C_R   0.992173 0.665336 0.036143 -0.125539
Cr1   Cr    Cr6+3 0.230530 0.836340 0.748870 1.016668
Cr2   Cr    Cr6+3 0.614360 0.677860 0.250770 1.014827
Cr3   Cr    Cr6+3 0.885640 0.177860 0.749230 1.014779
Cr4   Cr    Cr6+3 0.114360 0.177860 0.250770 1.012714
Cr5   Cr    Cr6+3 0.769470 0.836340 0.251130 1.007768
Cr6   Cr    Cr6+3 0.730530 0.336340 0.748870 1.007748
Cr7   Cr    Cr6+3 0.269470 0.336340 0.251130 1.016695
Cr8   Cr    Cr6+3 0.387420 0.989430 0.750820 1.015247
Cr9   Cr    Cr6+3 0.612580 0.989430 0.249180 1.013484
Cr10  Cr    Cr6+3 0.887420 0.489430 0.750820 1.013488
Cr11  Cr    Cr6+3 0.112580 0.489430 0.249180 1.015244
Cr12  Cr    Cr6+3 0.385640 0.677860 0.749230 1.012735
H1    H     H_    0.499663 0.633250 0.937274 0.136626
H2    H     H_    0.856500 0.645308 0.429829 0.157648
H3    H     H_    0.643530 0.145441 0.570142 0.157681
H4    H     H_    0.288997 0.286377 0.452646 0.153618
H5    H     H_    0.305149 0.567027 0.436736 0.100855
H6    H     H_    0.708242 0.571857 0.551133 0.087911
H7    H     H_    0.791782 0.071885 0.448845 0.088022
H8    H     H_    0.194845 0.067044 0.563271 0.100769
H9    H     H_    0.272905 0.524583 0.550179 0.083952
H10   H     H_    0.716778 0.503987 0.436889 0.101601
H11   H     H_    0.783232 0.004058 0.563085 0.101559
H12   H     H_    0.500588 0.633243 0.062646 0.136931
H13   H     H_    0.227087 0.024590 0.449830 0.083914
H14   H     H_    0.473145 0.059522 0.128505 0.129522
H15   H     H_    0.526984 0.059483 0.871390 0.128082
H16   H     H_    0.973024 0.559489 0.128598 0.128078
H17   H     H_    0.026868 0.559518 0.871482 0.129511
H18   H     H_    0.985425 0.750748 0.064044 0.106822
H19   H     H_    0.014454 0.750757 0.936034 0.107617
H20   H     H_    0.485562 0.250755 0.063943 0.107619
H21   H     H_    0.514587 0.250741 0.935933 0.106825
H22   H     H_    0.325745 0.449264 0.061058 0.152566
H23   H     H_    0.999400 0.133236 0.937362 0.136924
H24   H     H_    0.674261 0.449245 0.938949 0.152435
H25   H     H_    0.825744 0.949263 0.061059 0.152438
H26   H     H_    0.174259 0.949250 0.938949 0.152563
H27   H     H_    0.357241 0.543802 0.940948 0.152438
H28   H     H_    0.642765 0.543774 0.059057 0.152602
H29   H     H_    0.857237 0.043792 0.940946 0.152604
H30   H     H_    0.142760 0.043791 0.059054 0.152438
H31   H     H_    0.220934 0.663412 0.054203 0.113807
H32   H     H_    0.779066 0.663408 0.945792 0.113891
H33   H     H_    0.720933 0.163410 0.054203 0.113890
H34   H     H_    0.000322 0.133247 0.062734 0.136629
H35   H     H_    0.279065 0.163411 0.945792 0.113807
H36   H     H_    0.196595 0.581422 0.941783 0.112366
H37   H     H_    0.803409 0.581430 0.058222 0.112339
H38   H     H_    0.696592 0.081419 0.941779 0.112338
H39   H     H_    0.303405 0.081432 0.058218 0.112367
H40   H     H_    0.455546 0.837014 0.439547 0.077877
H41   H     H_    0.522155 0.938044 0.571021 0.093855
H42   H     H_    0.977325 0.437962 0.428666 0.093795
H43   H     H_    0.044572 0.337100 0.560570 0.077906
H44   H     H_    0.666726 0.824203 0.504390 0.126577
H45   H     H_    0.170887 0.722954 0.427333 0.152510
H46   H     H_    0.648709 0.683195 0.459999 0.132994
H47   H     H_    0.652812 0.823614 0.409869 0.170398
H48   H     H_    0.553551 0.566121 0.515070 0.119950
H49   H     H_    0.558249 0.597973 0.608701 0.146011
H50   H     H_    0.473789 0.592106 0.562277 0.157292
H51   H     H_    0.947772 0.065993 0.485679 0.120218
H52   H     H_    0.942813 0.096874 0.391949 0.146159
H53   H     H_    0.027359 0.092873 0.438307 0.157125
H54   H     H_    0.833438 0.323980 0.495511 0.126518
H55   H     H_    0.851517 0.183036 0.539980 0.133082
H56   H     H_    0.871192 0.568706 0.550933 0.163484
H57   H     H_    0.847258 0.323528 0.590048 0.170361
H58   H     H_    0.628826 0.068881 0.449048 0.163502
H59   H     H_    0.329115 0.222959 0.572662 0.152514
H60   H     H_    0.211002 0.786370 0.547347 0.153592
O1    O     O_R   0.215090 0.709860 0.828130 -0.520728
O2    O     O_R   0.543740 0.718170 0.330000 -0.505053
O3    O     O_R   0.956260 0.218170 0.670000 -0.505128
O4    O     O_R   0.043740 0.218170 0.330000 -0.517025
O5    O     O_R   0.320940 0.626760 0.674370 -0.499717
O6    O     O_R   0.679060 0.626760 0.325630 -0.505667
O7    O     O_R   0.820940 0.126760 0.674370 -0.505681
O8    O     O_R   0.179060 0.126760 0.325630 -0.499782
O9    O     O_3   0.334530 0.834540 0.749640 -0.244616
O10   O     O_3   0.665470 0.834540 0.250360 -0.250928
O11   O     O_3   0.834530 0.334540 0.749640 -0.250892
O12   O     O_R   0.784910 0.709860 0.171870 -0.522492
O13   O     O_3   0.165470 0.334540 0.250360 -0.244619
O14   O     O_R   0.236990 0.958390 0.823710 -0.499178
O15   O     O_R   0.763010 0.958390 0.176290 -0.497565
O16   O     O_R   0.736990 0.458390 0.823710 -0.497575
O17   O     O_R   0.263010 0.458390 0.176290 -0.499176
O18   O     O_R   0.332380 0.074750 0.830850 -0.512273
O19   O     O_R   0.667620 0.074750 0.169150 -0.508801
O20   O     O_R   0.832380 0.574750 0.830850 -0.508801
O21   O     O_R   0.167620 0.574750 0.169150 -0.512270
O22   O     O_R   0.445800 0.917770 0.825070 -0.507131
O23   O     O_R   0.715090 0.209860 0.828130 -0.522483
O24   O     O_R   0.554200 0.917770 0.174930 -0.505363
O25   O     O_R   0.945800 0.417770 0.825070 -0.505375
O26   O     O_R   0.054200 0.417770 0.174930 -0.507140
O27   O     O_R   0.456410 0.716580 0.829970 -0.525894
O28   O     O_R   0.543590 0.716580 0.170030 -0.523985
O29   O     O_R   0.956410 0.216580 0.829970 -0.523993
O30   O     O_R   0.043590 0.216580 0.170030 -0.525882
O31   O     O_R   0.321080 0.625290 0.822650 -0.495769
O32   O     O_R   0.678920 0.625290 0.177350 -0.494908
O33   O     O_R   0.821080 0.125290 0.822650 -0.494900
O34   O     O_R   0.284910 0.209860 0.171870 -0.520725
O35   O     O_R   0.178920 0.125290 0.177350 -0.495764
O36   O     O_R   0.214930 0.711450 0.668160 -0.515663
O37   O     O_R   0.785070 0.711450 0.331840 -0.517352
O38   O     O_R   0.714930 0.211450 0.668160 -0.517352
O39   O     O_R   0.285070 0.211450 0.331840 -0.515632
O40   O     O_R   0.236850 0.959870 0.675420 -0.507269
O41   O     O_R   0.763150 0.959870 0.324580 -0.501815
O42   O     O_R   0.736850 0.459870 0.675420 -0.501851
O43   O     O_R   0.263150 0.459870 0.324580 -0.507266
O44   O     O_R   0.332230 0.076350 0.670880 -0.513612
O45   O     O_R   0.445660 0.919250 0.676780 -0.505038
O46   O     O_R   0.667770 0.076350 0.329120 -0.516081
O47   O     O_R   0.832230 0.576350 0.670880 -0.516050
O48   O     O_R   0.167770 0.576350 0.329120 -0.513597
O49   O     O_R   0.554340 0.919250 0.323220 -0.507622
O50   O     O_R   0.945660 0.419250 0.676780 -0.507625
O51   O     O_R   0.054340 0.419250 0.323220 -0.505021
O52   O     O_R   0.456260 0.718170 0.670000 -0.517005

loop_
_geom_bond_atom_site_label_1
_geom_bond_atom_site_label_2
_ccdc_geom_bond_type
C44   C49   S    
C43   C73   S    
C63   O2    A    
Cr5   O12   S    
C70   O39   A    
C14   H22   S    
C31   C66   S    
C7    C20   D    
C14   C18   S    
C67   C77   A    
C85   H48   S    
C7    C55   S    
C20   H29   S    
C72   C76   A    
Cr4   O35   S    
C64   O50   A    
C40   O27   A    
Cr2   O32   S    
C32   C68   S    
C24   H40   S    
C15   C19   S    
C6    C19   D    
Cr10  O50   S    
C58   O40   A    
C67   C88   A    
C57   O34   A    
C54   O32   A    
C57   O35   A    
C8    H39   S    
C56   C76   A    
Cr3   O7    S    
C27   C84   S    
C86   H53   S    
C31   C49   D    
Cr10  O25   S    
C86   H52   S    
C10   C15   D    
C11   H33   S    
C18   H27   S    
Cr10  O20   S    
C17   H26   S    
Cr9   O19   S    
C84   H44   S    
C51   H3    S    
C19   H28   S    
C22   H41   S    
C34   O21   A    
C11   C16   D    
C38   H7    S    
Cr4   O8    S    
C85   H50   S    
C83   H34   S    
C75   C76   A    
C45   H14   S    
Cr7   O17   S    
C43   O30   A    
C24   C27   D    
C49   H60   S    
C2    C88   A    
Cr6   O42   S    
Cr9   O46   S    
Cr5   O41   S    
C16   H25   S    
Cr9   O49   S    
C62   O45   A    
C37   C46   D    
C33   C69   S    
C41   C71   S    
C27   C28   S    
Cr4   O4    S    
C77   C79   A    
Cr12  O9    S    
C58   O44   A    
C22   C28   D    
Cr2   O6    S    
C13   H35   S    
Cr3   O3    S    
C25   H43   S    
Cr1   O14   S    
C63   O49   A    
C64   O3    A    
Cr1   O1    S    
Cr4   O30   S    
Cr8   O44   S    
C5    H36   S    
C40   O22   A    
C9    H31   S    
C39   H8    S    
Cr5   O10   S    
C48   H59   S    
C1    O14   A    
C42   C74   S    
Cr11  O21   S    
C15   H24   S    
C54   O12   A    
Cr12  O27   S    
C35   C70   S    
C9    C14   D    
C78   C79   A    
Cr11  O51   S    
C23   O16   A    
C43   O26   A    
C39   C58   S    
C3    C45   A    
C17   C21   S    
Cr9   O10   S    
C87   H57   S    
C41   O28   A    
C68   O37   A    
Cr6   O38   S    
C25   C64   S    
Cr5   O37   S    
C67   H16   S    
C69   O7    A    
C29   C30   S    
C2    C78   A    
C70   O8    A    
Cr6   O11   S    
C22   C62   S    
Cr3   O29   S    
C1    O18   A    
C59   O41   A    
C66   O36   A    
Cr11  O13   S    
C81   H12   S    
C48   C52   S    
C16   C20   S    
C78   H17   S    
C44   H45   S    
C31   H9    S    
C87   H54   S    
C41   O24   A    
C23   O20   A    
C53   O31   A    
C32   C50   D    
C38   C47   D    
C32   H10   S    
C12   O15   A    
C33   H11   S    
Cr10  O11   S    
C59   O46   A    
C60   O42   A    
C55   O33   A    
Cr2   O2    S    
C6    C54   S    
C24   C63   S    
C84   H46   S    
C74   C79   A    
C9    C34   S    
Cr4   O13   S    
C87   H55   S    
Cr10  O47   S    
C36   C44   D    
Cr12  O31   S    
C1    C13   S    
Cr6   O23   S    
C88   H18   S    
C36   C61   S    
C82   H23   S    
C35   C52   D    
C42   O25   A    
Cr9   O24   S    
C74   C82   A    
C84   H47   S    
C5    C53   S    
C25   C30   D    
Cr1   O40   S    
C46   C50   S    
C52   H4    S    
C62   O52   A    
C40   C72   S    
C66   O5    A    
C36   H5    S    
C26   C65   S    
Cr8   O22   S    
C80   C81   A    
C8    C21   D    
C7    H38   S    
C47   C51   S    
C2    H19   S    
C60   O47   A    
C50   H2    S    
C73   C77   A    
C5    C18   D    
C13   C17   D    
C10   C23   S    
C33   C51   D    
C85   H49   S    
C46   H56   S    
Cr11  O48   S    
Cr3   O11   S    
C80   H1    S    
C45   C75   A    
C6    H37   S    
C29   C86   S    
Cr7   O13   S    
Cr1   O9    S    
Cr2   O10   S    
C72   C80   A    
C86   H51   S    
C61   O43   A    
C71   C75   A    
Cr1   O36   S    
C42   O29   A    
C53   O1    A    
Cr8   O45   S    
C69   O38   A    
Cr2   O28   S    
Cr3   O33   S    
C65   O4    A    
C56   H15   S    
Cr12  O52   S    
C4    H21   S    
C35   H13   S    
Cr8   O9    S    
Cr11  O26   S    
C10   H32   S    
C21   H30   S    
C65   O51   A    
C37   C60   S    
C3    H20   S    
C61   O48   A    
Cr5   O15   S    
C38   C59   S    
C37   H6    S    
C12   O19   A    
Cr7   O34   S    
C26   C29   D    
Cr7   O39   S    
C82   C83   A    
C28   C85   S    
C55   O23   A    
Cr12  O5    S    
C34   O17   A    
Cr8   O18   S    
C30   C87   S    
C26   H42   S    
Cr7   O43   S    
C73   C83   A    
C8    C57   S    
C4    C56   A    
C3    C4    A    
C11   C12   S    
Cr6   O16   S    
C39   C48   D    
C71   C81   A    
C47   H58   S    
C68   O6    A    
