data_mof_unit_19904.cif
_audit_creation_date              2012-12-10T20:52:09-0500
_audit_creation_method            fapswitch 2.2
_symmetry_space_group_name_H-M    P1
_symmetry_Int_Tables_number       1
_space_group_crystal_system       triclinic
_cell_length_a                    10.83286
_cell_length_b                    8.899747
_cell_length_c                    8.267708
_cell_angle_alpha                 89.966904
_cell_angle_beta                  93.074563
_cell_angle_gamma                 90.151723
_cell_volume                      795.937148505

loop_
_atom_site_label
_atom_site_type_symbol
_atom_type_description
_atom_site_fract_x
_atom_site_fract_y
_atom_site_fract_z
_atom_type_partial_charge
C1    C     C_R   0.500089 0.218731 0.500014 0.929430
C2    C     C_R   0.499911 0.781268 0.499986 0.929434
C3    C     C_R   0.873771 0.508945 0.511622 -0.083038
C4    C     C_R   0.126228 0.491044 0.488380 -0.083055
C5    C     C_R   0.945014 0.423349 0.624588 0.002499
C6    C     C_R   0.054983 0.576633 0.375411 0.002506
C7    C     C_1   0.500036 0.065419 0.500037 -0.192262
C8    C     C_1   0.499964 0.934581 0.499963 -0.192261
C9    C     C_R   0.259587 0.496201 0.495784 0.857793
C10   C     C_R   0.740413 0.503795 0.504217 0.857796
C11   C     C_R   0.198594 0.775201 0.031886 -0.172316
C12   C     C_R   0.801337 0.224775 0.968059 -0.172287
C13   C     C_R   0.131523 0.755485 0.169933 -0.164593
C14   C     C_R   0.868417 0.244489 0.830018 -0.164571
C15   C     C_R   0.100415 0.609944 0.217001 0.118951
C16   C     C_R   0.899575 0.390024 0.782992 0.118933
C17   C     C_R   0.128126 0.486484 0.122019 -0.148982
C18   C     C_R   0.871890 0.513479 0.877997 -0.149000
C19   C     C_R   0.204267 0.503839 0.994676 0.060030
C20   C     C_R   0.795736 0.496132 0.005329 0.060038
C21   C     C_R   0.238513 0.649639 0.947248 -0.125251
C22   C     C_R   0.761456 0.350338 0.052731 -0.125256
C23   C     C_R   0.930305 0.590733 0.393297 -0.251185
C24   C     C_R   0.069695 0.409262 0.606711 -0.251181
H1    H     H_    0.300081 0.668639 0.851443 0.180881
H2    H     H_    0.699886 0.331348 0.148538 0.180875
H3    H     H_    0.226014 0.886947 0.996189 0.153717
H4    H     H_    0.773881 0.113035 0.003726 0.153720
H5    H     H_    0.109176 0.851453 0.243222 0.129626
H6    H     H_    0.890731 0.148527 0.756701 0.129618
H7    H     H_    0.103484 0.374194 0.160915 0.129481
H8    H     H_    0.896560 0.625768 0.839126 0.129495
H9    H     H_    0.877324 0.662635 0.312235 0.162211
H10   H     H_    0.122678 0.337378 0.687786 0.162215
N1    N     N_1   0.500020 0.500030 0.073640 -0.051309
N2    N     N_1   0.499980 0.499970 0.926360 -0.051303
O1    O     O_R   0.499990 0.285340 0.636850 -0.594958
O2    O     O_R   0.500010 0.714660 0.363150 -0.594958
O3    O     O_R   0.500010 0.285350 0.363100 -0.629239
O4    O     O_R   0.499990 0.714650 0.636900 -0.629234
O5    O     O_R   0.316750 0.500000 0.636870 -0.642217
O6    O     O_R   0.683250 0.500000 0.363130 -0.642212
O7    O     O_R   0.316770 0.500020 0.363120 -0.610492
O8    O     O_R   0.683230 0.499980 0.636880 -0.610490
Zn1   Zn    Zn3+2 0.499990 0.499990 0.682780 0.977864
Zn2   Zn    Zn3+2 0.500010 0.500010 0.317220 0.977863
C25   C     C_1   0.258873 0.368978 0.934605 0.165117
N3    N     N_1   0.302411 0.259043 0.889381 -0.201782
C26   C     C_1   0.741143 0.631000 0.065402 0.165135
N4    N     N_1   0.697615 0.740940 0.110628 -0.201796

loop_
_geom_bond_atom_site_label_1
_geom_bond_atom_site_label_2
_ccdc_geom_bond_type
C20   C26   S    
C2    O4    A    
C10   O6    A    
C2    O2    A    
C9    O5    A    
N1    N2    T    
C10   O8    A    
C11   H3    S    
C3    C5    A    
C6    C15   S    
N2    Zn1   S    
C3    C10   S    
C11   C13   A    
C5    C24   A    
C14   H6    S    
O3    Zn2   S    
C4    C24   A    
C6    C23   A    
C13   H5    S    
C19   C21   A    
C12   C14   A    
C18   C20   A    
C13   C15   A    
C22   H2    S    
O4    Zn1   S    
C17   H7    S    
O7    Zn2   S    
C14   C16   A    
C9    O7    A    
O2    Zn2   S    
C1    O3    A    
O1    Zn1   S    
C12   C22   A    
C7    C8    T    
C18   H8    S    
O8    Zn1   S    
C12   H4    S    
C4    C6    A    
C26   N4    T    
O6    Zn2   S    
C19   C25   S    
C15   C17   A    
O5    Zn1   S    
C5    C16   S    
C21   H1    S    
C17   C19   A    
C4    C9    S    
C1    C7    S    
N1    Zn2   S    
C3    C23   A    
C11   C21   A    
C16   C18   A    
C2    C8    S    
C25   N3    T    
C20   C22   A    
C1    O1    A    
C23   H9    S    
C24   H10   S    
