data_mof_unit_21158.cif
_audit_creation_date              2012-10-26T19:21:35-0400
_audit_creation_method            fapswitch 2.2
_symmetry_space_group_name_H-M    P1
_symmetry_Int_Tables_number       1
_space_group_crystal_system       triclinic
_cell_length_a                    9.836855
_cell_length_b                    10.885481
_cell_length_c                    15.556151
_cell_angle_alpha                 93.783372
_cell_angle_beta                  80.32197
_cell_angle_gamma                 110.068535
_cell_volume                      1542.26750267

loop_
_atom_site_label
_atom_site_type_symbol
_atom_type_description
_atom_site_fract_x
_atom_site_fract_y
_atom_site_fract_z
_atom_type_partial_charge
C1    C     C_R   0.556851 0.746038 0.499472 0.541325
C2    C     C_2   0.537824 0.071673 0.435639 0.014147
C3    C     C_2   0.913975 0.477947 0.497906 -0.000161
C4    C     C_2   0.061047 0.481174 0.517666 -0.002655
C5    C     C_R   0.411909 0.483722 0.663387 0.548908
C6    C     C_R   0.586895 0.509649 0.336455 0.536834
C7    C     C_R   0.356508 0.450741 0.756126 -0.057654
C8    C     C_R   0.635742 0.497158 0.242220 -0.057080
C9    C     C_R   0.158470 0.337609 0.869774 0.255658
C10   C     C_R   0.825752 0.487519 0.121907 0.256382
C11   C     C_R   0.206890 0.387232 0.784898 -0.136827
C12   C     C_R   0.448635 0.254744 0.489027 0.543105
C13   C     C_R   0.780232 0.503694 0.211053 -0.132609
C14   C     C_R   0.456439 0.467160 0.813759 -0.155324
C15   C     C_R   0.534833 0.467424 0.183912 -0.158132
C16   C     C_R   0.412858 0.405936 0.895250 -0.024460
C17   C     C_R   0.572074 0.432152 0.097000 -0.016957
C18   C     C_R   0.261217 0.349843 0.925844 0.035776
C19   C     C_R   0.721225 0.452231 0.064475 0.034899
C20   C     C_R   0.515849 0.404792 0.948960 0.031078
C21   C     C_R   0.466300 0.387141 0.039921 0.027564
C22   C     C_3   0.958317 0.155683 0.857568 -0.024200
C23   C     C_R   0.314689 0.316779 0.068255 -0.009708
C24   C     C_3   0.829256 0.066105 0.917900 -0.377179
C25   C     C_3   0.062951 0.625016 0.096915 -0.021966
C26   C     C_3   0.218443 0.633872 0.057742 -0.367834
C27   C     C_3   0.258893 0.232132 0.149602 -0.271062
C28   C     C_3   0.329643 0.126657 0.145659 -0.435080
C29   C     C_3   0.712142 0.366804 0.824535 -0.268611
C30   C     C_3   0.613227 0.230500 0.800848 -0.416870
C31   C     C_3   0.688058 0.161671 0.394672 -0.251058
C32   C     C_3   0.758916 0.100977 0.315920 -0.449546
C33   C     C_3   0.395858 0.837704 0.384327 -0.238303
C34   C     C_R   0.662927 0.410237 0.916419 -0.011942
C35   C     C_3   0.346518 0.903744 0.317460 -0.463665
C36   C     C_3   0.123251 0.390332 0.378501 -0.111651
C37   C     C_3   0.140462 0.494394 0.312238 -0.432928
C38   C     C_3   0.905603 0.635514 0.609293 -0.112758
C39   C     C_3   0.846391 0.746624 0.637598 -0.359914
C40   C     C_R   0.214645 0.301411 0.010690 -0.094568
C41   C     C_R   0.763186 0.435519 0.975290 -0.108883
C42   C     C_2   0.585948 0.885953 0.486137 -0.136414
C43   C     C_2   0.429317 0.115732 0.475284 -0.125741
C44   C     C_2   0.509392 0.929544 0.436963 0.008372
Cu1   Cu    Cu3+1 0.362980 0.479380 0.485080 0.892903
Cu2   Cu    Cu3+1 0.637020 0.520620 0.514920 0.902517
H1    H     H_    0.099377 0.249480 0.032127 0.171863
H2    H     H_    0.866065 0.415560 0.446390 0.129573
H3    H     H_    0.042293 0.106372 0.842051 0.119042
H4    H     H_    0.920793 0.168125 0.796201 0.128226
H5    H     H_    0.746189 0.114126 0.939417 0.167686
H6    H     H_    0.778252 0.973171 0.883427 0.088859
H7    H     H_    0.867429 0.043882 0.976393 0.142043
H8    H     H_    0.064025 0.659836 0.165775 0.117659
H9    H     H_    0.029275 0.690717 0.059465 0.123374
H10   H     H_    0.222407 0.601315 0.988476 0.167952
H11   H     H_    0.293056 0.736592 0.060962 0.085256
H12   H     H_    0.875787 0.444190 0.950941 0.199078
H13   H     H_    0.256387 0.571299 0.094753 0.158346
H14   H     H_    0.275465 0.058878 0.201023 0.127516
H15   H     H_    0.316265 0.069579 0.083882 0.147246
H16   H     H_    0.447993 0.170715 0.150421 0.163961
H17   H     H_    0.273857 0.288353 0.210598 0.133909
H18   H     H_    0.138492 0.181204 0.155960 0.126641
H19   H     H_    0.666758 0.194791 0.740587 0.127338
H20   H     H_    0.593375 0.160615 0.854101 0.145719
H21   H     H_    0.506418 0.232382 0.788212 0.163551
H22   H     H_    0.722944 0.437407 0.774199 0.134152
H23   H     H_    0.428700 0.476405 0.205872 0.123590
H24   H     H_    0.824377 0.362185 0.819062 0.157006
H25   H     H_    0.781705 0.014538 0.335352 0.152767
H26   H     H_    0.687492 0.072200 0.264813 0.151987
H27   H     H_    0.864412 0.173823 0.287158 0.127054
H28   H     H_    0.679870 0.252430 0.370856 0.163779
H29   H     H_    0.760956 0.187293 0.445125 0.133213
H30   H     H_    0.283985 0.965941 0.350068 0.149720
H31   H     H_    0.441613 0.963277 0.271508 0.153021
H32   H     H_    0.273152 0.827461 0.279118 0.121670
H33   H     H_    0.443657 0.767406 0.347314 0.161911
H34   H     H_    0.567791 0.530285 0.795055 0.125767
H35   H     H_    0.296221 0.782948 0.429624 0.169671
H36   H     H_    0.065633 0.550383 0.334649 0.135675
H37   H     H_    0.254447 0.563850 0.302227 0.158295
H38   H     H_    0.114554 0.446655 0.248860 0.134689
H39   H     H_    0.199495 0.336748 0.353773 0.169277
H40   H     H_    0.013150 0.314650 0.384625 0.084490
H41   H     H_    0.871756 0.816144 0.583323 0.157486
H42   H     H_    0.728507 0.711192 0.664243 0.183916
H43   H     H_    0.903485 0.802484 0.691124 0.071097
H44   H     H_    0.890314 0.574308 0.666818 0.100072
H45   H     H_    0.858442 0.521886 0.255690 0.124461
H46   H     H_    0.024781 0.687646 0.589069 0.100432
H47   H     H_    0.127579 0.374248 0.741497 0.119406
H48   H     H_    0.322132 0.046089 0.499295 0.083373
H49   H     H_    0.671829 0.955877 0.517621 0.079896
H50   H     H_    0.092904 0.517768 0.580226 0.124036
N1    N     N_2   0.842890 0.551600 0.537350 -0.219853
N2    N     N_2   0.157110 0.448400 0.462650 -0.228786
O1    O     O_R   0.426810 0.668300 0.492040 -0.496495
O2    O     O_3   0.968988 0.494103 0.092027 -0.561862
O3    O     O_R   0.573190 0.331700 0.507960 -0.497657
O4    O     O_R   0.658240 0.703130 0.517240 -0.495254
O5    O     O_R   0.341760 0.296870 0.482760 -0.493732
O6    O     O_R   0.319390 0.472820 0.610170 -0.501529
O7    O     O_R   0.680610 0.527180 0.389830 -0.504974
O8    O     O_R   0.550820 0.507640 0.635370 -0.494674
O9    O     O_R   0.449180 0.492360 0.364630 -0.511088
O10   O     O_3   0.010511 0.278577 0.899134 -0.578565

loop_
_geom_bond_atom_site_label_1
_geom_bond_atom_site_label_2
_ccdc_geom_bond_type
C24   H6    S    
C40   H1    S    
C8    C13   A    
C4    N2    D    
C39   H41   S    
C1    O1    A    
C32   H26   S    
Cu1   Cu2   S    
C9    O10   S    
C7    C11   A    
Cu2   O4    S    
C36   C37   S    
C41   H12   S    
C12   C43   S    
Cu1   N2    S    
C38   C39   S    
C23   C40   A    
Cu2   O7    S    
C38   H46   S    
C3    H2    S    
C43   H48   S    
C18   C40   A    
Cu1   O5    S    
C33   C35   S    
C4    H50   S    
C7    C14   A    
C2    C44   S    
C6    O9    A    
C37   H38   S    
C14   H34   S    
C26   H13   S    
C2    C43   D    
C30   H21   S    
C22   H4    S    
C20   C34   A    
C28   H15   S    
C11   H47   S    
C24   H5    S    
C5    O6    A    
C13   H45   S    
C34   C41   A    
C42   C44   D    
C39   H42   S    
C38   N1    S    
C32   H25   S    
C5    O8    A    
C28   H14   S    
C15   H23   S    
Cu2   O3    S    
C35   H30   S    
C42   H49   S    
C25   H8    S    
C12   O5    A    
Cu1   O1    S    
C32   H27   S    
C5    C7    S    
C33   H33   S    
C31   H28   S    
C6    C8    S    
C36   H40   S    
C24   H7    S    
C29   C34   S    
C35   H31   S    
C17   C21   A    
C2    C31   S    
C29   C30   S    
Cu1   O6    S    
C29   H22   S    
C3    N1    D    
C25   O2    S    
C31   H29   S    
C31   C32   S    
C10   C19   A    
C16   C20   A    
C10   O2    S    
C9    C11   A    
C30   H20   S    
C27   H17   S    
C22   H3    S    
Cu2   N1    S    
C8    C15   A    
C23   C27   S    
C21   C23   A    
C14   C16   A    
C37   H36   S    
C3    C4    S    
C29   H24   S    
C15   C17   A    
C33   C44   S    
C25   H9    S    
C10   C13   A    
C26   H10   S    
C36   H39   S    
C38   H44   S    
C35   H32   S    
C25   C26   S    
C12   O3    A    
C9    C18   A    
C22   O10   S    
Cu2   O8    S    
C17   C19   A    
C6    O7    A    
C22   C24   S    
C26   H11   S    
C30   H19   S    
C27   H18   S    
C19   C41   A    
C1    C42   S    
C20   C21   A    
C16   C18   A    
C27   C28   S    
C37   H37   S    
C36   N2    S    
C33   H35   S    
C1    O4    A    
C39   H43   S    
Cu1   O9    S    
C28   H16   S    
