data_mof_unit_32122.cif
_audit_creation_date              2012-12-10T20:03:10-0500
_audit_creation_method            fapswitch 2.2
_symmetry_space_group_name_H-M    P1
_symmetry_Int_Tables_number       1
_space_group_crystal_system       triclinic
_cell_length_a                    8.345079
_cell_length_b                    19.299677
_cell_length_c                    18.42881
_cell_angle_alpha                 90.392837
_cell_angle_beta                  98.470099
_cell_angle_gamma                 89.952786
_cell_volume                      2935.652457

loop_
_atom_site_label
_atom_site_type_symbol
_atom_type_description
_atom_site_fract_x
_atom_site_fract_y
_atom_site_fract_z
_atom_type_partial_charge
C1    C     C_R   0.500045 0.365538 0.499761 0.922718
C2    C     C_R   0.499889 0.634439 0.500243 0.828785
C3    C     C_R   0.635816 0.964313 0.533844 -0.098782
C4    C     C_R   0.362056 0.035612 0.466353 -0.098814
C5    C     C_R   0.637264 0.036059 0.532096 -0.162336
C6    C     C_R   0.360468 0.963863 0.468234 -0.167179
C7    C     C_R   0.500669 0.071502 0.498063 0.133980
C8    C     C_R   0.497043 0.928370 0.502318 0.135004
C9    C     C_R   0.635629 0.519689 0.735548 0.006834
C10   C     C_R   0.362071 0.517417 0.265045 0.005001
C11   C     C_R   0.637746 0.520013 0.811850 -0.210838
C12   C     C_R   0.358131 0.517139 0.188693 -0.236518
C13   C     C_R   0.498490 0.500806 0.841251 0.210207
C14   C     C_R   0.498311 0.500525 0.158521 0.202163
C15   C     C_R   0.359830 0.481646 0.792682 -0.247094
C16   C     C_R   0.638651 0.482523 0.206414 -0.207142
C17   C     C_R   0.363978 0.480517 0.716883 -0.005738
C18   C     C_R   0.636176 0.481646 0.282363 0.010355
C19   C     C_R   0.504444 0.436793 0.961716 -0.040450
C20   C     C_R   0.494097 0.564722 0.038125 -0.038533
C21   C     C_R   0.503849 0.437998 0.038716 0.352655
C22   C     C_R   0.494142 0.563489 0.961063 0.350569
C23   C     C_R   0.203366 0.513703 0.481424 0.940502
C24   C     C_R   0.796668 0.513719 0.518749 0.940460
C25   C     C_R   0.498178 0.501347 0.077169 -0.099622
C26   C     C_R   0.498633 0.500118 0.922570 -0.099217
C27   C     C_2   0.041211 0.542331 0.471444 -0.137539
C28   C     C_2   0.958894 0.542349 0.529013 -0.137855
C29   C     C_R   0.480466 0.746094 0.434991 -0.199983
C30   C     C_R   0.510331 0.253776 0.564925 -0.186595
C31   C     C_R   0.478858 0.817806 0.436095 -0.223990
C32   C     C_R   0.511316 0.182045 0.563964 -0.221108
C33   C     C_R   0.496175 0.853393 0.503158 0.005493
C34   C     C_R   0.501647 0.146410 0.497175 -0.000224
C35   C     C_R   0.513346 0.817150 0.569689 0.405490
C36   C     C_R   0.492622 0.182490 0.430813 0.409643
C37   C     C_R   0.514786 0.745313 0.568303 -0.242297
C38   C     C_R   0.492163 0.254367 0.432037 -0.213020
C39   C     C_R   0.498816 0.709596 0.501109 -0.094439
C40   C     C_R   0.500570 0.290253 0.498950 -0.120268
H1    H     H_    0.249287 0.467745 0.813171 0.131853
H2    H     H_    0.748649 0.468675 0.185091 0.156232
H3    H     H_    0.258109 0.463894 0.680033 0.128209
H4    H     H_    0.743109 0.465764 0.318673 0.131918
H5    H     H_    0.467001 0.719371 0.382556 0.165664
H6    H     H_    0.517360 0.280524 0.617165 0.167983
H7    H     H_    0.465528 0.845709 0.384719 0.167728
H8    H     H_    0.518288 0.154169 0.615190 0.168068
H9    H     H_    0.528135 0.717598 0.619777 0.197705
H10   H     H_    0.485563 0.281966 0.380686 0.204166
H11   H     H_    0.742349 0.936756 0.559378 0.160936
H12   H     H_    0.255785 0.063216 0.440612 0.162295
H13   H     H_    0.744504 0.063975 0.556653 0.148177
H14   H     H_    0.253172 0.935983 0.443679 0.147093
H15   H     H_    0.743034 0.534920 0.713355 0.128993
H16   H     H_    0.253913 0.530951 0.287725 0.132381
H17   H     H_    0.746970 0.535156 0.847688 0.152754
H18   H     H_    0.246271 0.529273 0.153556 0.135488
N1    N     N_R   0.500020 0.499980 0.689440 -0.090471
N2    N     N_R   0.499980 0.500020 0.310560 -0.092957
O1    O     O_R   0.500010 0.398180 0.560840 -0.612519
O2    O     O_R   0.499990 0.601820 0.439160 -0.646976
O3    O     O_R   0.499930 0.398180 0.439210 -0.599148
O4    O     O_R   0.500070 0.601820 0.560790 -0.638704
O5    O     O_R   0.271780 0.500000 0.546590 -0.636734
O6    O     O_R   0.728220 0.500000 0.453410 -0.636261
O7    O     O_R   0.271710 0.499990 0.424960 -0.622112
O8    O     O_R   0.728290 0.500010 0.575040 -0.626556
Zn1   Zn    Zn3+2 0.500050 0.500000 0.581210 0.926749
Zn2   Zn    Zn3+2 0.499950 0.500000 0.418790 0.934058
C41   C     C_3   0.972354 0.573223 0.397391 -0.405498
C42   C     C_3   0.069309 0.637256 0.380566 -0.368179
C43   C     C_3   0.999924 0.668558 0.306748 -0.884020
H19   H     H_    0.004007 0.630066 0.261944 0.254335
H20   H     H_    0.872605 0.685256 0.307113 0.266473
H21   H     H_    0.072937 0.714423 0.295957 0.257649
H22   H     H_    0.066131 0.676930 0.424391 0.229850
H23   H     H_    0.197570 0.623371 0.378810 0.241449
H24   H     H_    0.975491 0.533484 0.353767 0.200732
H25   H     H_    0.845385 0.590838 0.396322 0.238036
C44   C     C_3   0.027699 0.573773 0.603239 -0.403270
C45   C     C_3   0.930782 0.638057 0.620182 -0.408048
C46   C     C_3   0.001532 0.670715 0.693569 -0.765726
H26   H     H_    0.999069 0.632991 0.738665 0.255748
H27   H     H_    0.128413 0.687555 0.692435 0.277508
H28   H     H_    0.928403 0.716700 0.704471 0.271019
H29   H     H_    0.932696 0.676972 0.576076 0.231696
H30   H     H_    0.802841 0.624128 0.622554 0.245630
H31   H     H_    0.024666 0.534427 0.646715 0.199623
H32   H     H_    0.154717 0.591291 0.604404 0.243429
C47   C     C_3   0.517916 0.367825 0.922422 -0.345299
C48   C     C_3   0.354241 0.330098 0.908077 -0.311892
C49   C     C_3   0.367100 0.263043 0.864971 -0.838771
H33   H     H_    0.404104 0.274330 0.810769 0.251327
H34   H     H_    0.457128 0.227721 0.895994 0.280795
H35   H     H_    0.247527 0.236687 0.855835 0.257256
H36   H     H_    0.311532 0.317464 0.960683 0.274447
H37   H     H_    0.261759 0.363756 0.876421 0.206310
H38   H     H_    0.564327 0.374929 0.869546 0.191339
H39   H     H_    0.609520 0.334550 0.955440 0.241936
C50   C     C_3   0.496222 0.633899 0.078531 -0.350003
C51   C     C_3   0.326943 0.666866 0.070178 -0.303892
C52   C     C_3   0.325952 0.731357 0.118481 -0.850751
H40   H     H_    0.358729 0.717566 0.177240 0.250011
H41   H     H_    0.413260 0.770312 0.103596 0.279612
H42   H     H_    0.202871 0.754573 0.110532 0.260178
H43   H     H_    0.287097 0.681659 0.012242 0.274554
H44   H     H_    0.237511 0.629360 0.085712 0.207723
H45   H     H_    0.543101 0.628002 0.137716 0.191652
H46   H     H_    0.582705 0.669828 0.057737 0.239151
Cl1   Cl    Cl    0.511168 0.359359 0.088339 -0.605227
Cl2   Cl    Cl    0.490003 0.642066 0.911516 -0.625156
Cl3   Cl    Cl    0.527398 0.859739 0.655292 -0.595763
Cl4   Cl    Cl    0.487092 0.139486 0.345809 -0.574261

loop_
_geom_bond_atom_site_label_1
_geom_bond_atom_site_label_2
_ccdc_geom_bond_type
C38   C40   A    
C49   H33   S    
C43   H20   S    
C43   H19   S    
C36   Cl4   S    
C41   H24   S    
C44   C45   S    
C48   H37   S    
C50   C51   S    
C4    H12   S    
C5    H13   S    
C35   C37   A    
O5    Zn1   S    
C20   C25   A    
C50   H45   S    
C45   H29   S    
O2    Zn2   S    
C23   O7    A    
C19   C26   A    
C42   H23   S    
C1    C40   S    
C33   C35   A    
C2    C39   S    
O8    Zn1   S    
C31   C33   A    
C51   H44   S    
C9    H15   S    
C23   C27   S    
C47   H39   S    
C10   H16   S    
C24   O6    A    
C44   H31   S    
C49   H34   S    
C31   H7    S    
C32   H8    S    
C6    H14   S    
C4    C7    A    
C1    O3    A    
C41   H25   S    
C21   Cl1   S    
C2    O4    A    
C48   H36   S    
C15   H1    S    
C4    C6    A    
C3    C8    A    
C47   C48   S    
C5    C7    A    
C3    H11   S    
C6    C8    A    
C20   C50   S    
C50   H46   S    
C29   H5    S    
C9    N1    A    
C32   C34   A    
C10   N2    A    
C17   H3    S    
C42   H22   S    
C18   H4    S    
C37   H9    S    
C46   H26   S    
O3    Zn2   S    
N2    Zn2   S    
C29   C39   A    
C30   C40   A    
C51   H43   S    
C52   H41   S    
C16   C18   A    
O4    Zn1   S    
C9    C11   A    
C10   C12   A    
C17   N1    A    
C44   H32   S    
C18   N2    A    
C46   H27   S    
C12   C14   A    
C49   H35   S    
C22   Cl2   S    
C13   C15   A    
C43   H21   S    
C14   C16   A    
C13   C26   S    
C16   H2    S    
C52   H40   S    
C27   C41   S    
N1    Zn1   S    
O1    Zn1   S    
C15   C17   A    
C21   C25   A    
C19   C21   A    
C28   C44   S    
C30   H6    S    
C24   C28   S    
C20   C22   A    
C42   C43   S    
C3    C5    A    
C1    O1    A    
C38   H10   S    
O7    Zn2   S    
C23   O5    A    
C36   C38   A    
C12   H18   S    
C41   C42   S    
C37   C39   A    
C30   C32   A    
C11   C13   A    
O6    Zn2   S    
C45   H30   S    
C48   C49   S    
C7    C34   S    
C35   Cl3   S    
C52   H42   S    
C34   C36   A    
C8    C33   S    
C14   C25   S    
C51   C52   S    
C19   C47   S    
C24   O8    A    
C46   H28   S    
C29   C31   A    
C45   C46   S    
C22   C26   A    
C27   C28   D    
C47   H38   S    
C11   H17   S    
C2    O2    A    
