data_mof_unit_22123.cif
_audit_creation_date              2012-10-26T19:03:29-0400
_audit_creation_method            fapswitch 2.2
_symmetry_space_group_name_H-M    P1
_symmetry_Int_Tables_number       1
_space_group_crystal_system       triclinic
_cell_length_a                    10.862739
_cell_length_b                    13.040806
_cell_length_c                    11.785867
_cell_angle_alpha                 99.630774
_cell_angle_beta                  93.213833
_cell_angle_gamma                 93.199694
_cell_volume                      1639.84484938

loop_
_atom_site_label
_atom_site_type_symbol
_atom_type_description
_atom_site_fract_x
_atom_site_fract_y
_atom_site_fract_z
_atom_type_partial_charge
C1    C     C_R   0.507413 0.300252 0.478571 0.528000
C2    C     C_R   0.561231 0.128280 0.367505 0.250445
C3    C     C_R   0.492728 0.140455 0.561840 -0.109915
C4    C     C_R   0.262256 0.491689 0.499955 0.580629
C5    C     C_R   0.493849 0.032946 0.555237 0.015924
C6    C     C_R   0.517205 0.971398 0.449291 0.006348
C7    C     C_R   0.488451 0.863441 0.434428 -0.066310
C8    C     C_R   0.469207 0.877249 0.641960 0.269855
C9    C     C_R   0.469072 0.985779 0.651384 0.284215
C10   C     C_R   0.382728 0.397351 0.019436 -0.017678
C11   C     C_R   0.390839 0.409093 0.142536 0.191511
C12   C     C_R   0.053803 0.397653 0.521180 -0.024925
C13   C     C_R   0.554682 0.541431 0.153802 0.125267
C14   C     C_R   0.533876 0.544359 0.032853 0.028160
C15   C     C_R   0.456770 0.464103 0.964871 0.005182
C16   C     C_R   0.493830 0.700618 0.521303 0.604552
C17   C     C_R   0.455099 0.452759 0.842459 0.063843
C18   C     C_R   0.588931 0.602664 0.853703 0.104191
C19   C     C_R   0.590890 0.620959 0.974671 -0.033167
C20   C     C_R   0.736987 0.501622 0.499711 0.531132
C21   C     C_R   0.101357 0.300431 0.539963 -0.041823
C22   C     C_R   0.022091 0.219190 0.563693 -0.047280
C23   C     C_R   0.127323 0.487380 0.501065 0.016619
C24   C     C_R   0.896830 0.228847 0.566499 0.242786
C25   C     C_R   0.847569 0.319349 0.543814 -0.043447
C26   C     C_R   0.923594 0.404703 0.521438 -0.035159
C27   C     C_3   0.292938 0.316071 0.944040 -0.390480
C28   C     C_3   0.637434 0.729212 0.032756 -0.411470
C29   C     C_3   0.305376 0.336032 0.193633 -0.297337
C30   C     C_3   0.679170 0.582932 0.211470 -0.329378
C31   C     C_3   0.233471 0.276417 0.534656 -0.383184
C32   C     C_3   0.887807 0.685792 0.467084 -0.341124
C33   C     C_3   0.433595 0.807533 0.317548 -0.347048
C34   C     C_R   0.071607 0.579017 0.483141 0.233651
C35   C     C_3   0.636746 0.960350 0.266775 -0.335470
C36   C     C_R   0.943426 0.584239 0.482295 -0.016920
C37   C     C_R   0.870147 0.496466 0.499381 -0.004928
C38   C     C_R   0.483406 0.814795 0.533192 0.006088
C39   C     C_R   0.518509 0.187715 0.467029 -0.002621
C40   C     C_R   0.565864 0.019985 0.360562 0.045965
Cl1   Cl    Cl    0.164247 0.691392 0.466076 -0.616377
Cl2   Cl    Cl    0.443548 0.061835 0.786466 -0.538603
Cl3   Cl    Cl    0.617309 0.188301 0.254299 -0.571563
Cl4   Cl    Cl    0.801625 0.126002 0.598879 -0.596795
Cl5   Cl    Cl    0.438028 0.822660 0.766248 -0.500974
Cu1   Cu    Cu3+1 0.509250 0.507730 0.615930 0.992568
Cu2   Cu    Cu3+1 0.490750 0.492270 0.384070 0.974743
H1    H     H_    0.467846 0.188303 0.640172 0.183306
H2    H     H_    0.614104 0.746160 0.123349 0.115303
H3    H     H_    0.738966 0.739702 0.027466 0.141028
H4    H     H_    0.324707 0.254038 0.160665 0.149301
H5    H     H_    0.311662 0.341996 0.285807 0.179531
H6    H     H_    0.207817 0.349631 0.170577 0.102894
H7    H     H_    0.669684 0.639890 0.290681 0.146373
H8    H     H_    0.732206 0.516007 0.226730 0.183319
H9    H     H_    0.741213 0.619351 0.156673 0.096849
H10   H     H_    0.247835 0.193464 0.538876 0.122250
H11   H     H_    0.265663 0.289859 0.451126 0.125111
H12   H     H_    0.399435 0.391327 0.787069 0.114505
H13   H     H_    0.286721 0.323222 0.609856 0.162757
H14   H     H_    0.906811 0.704090 0.380804 0.161127
H15   H     H_    0.786702 0.685103 0.474877 0.108608
H16   H     H_    0.929432 0.750001 0.534570 0.200167
H17   H     H_    0.405451 0.862799 0.260330 0.141146
H18   H     H_    0.499897 0.756017 0.273869 0.136677
H19   H     H_    0.348011 0.760499 0.327675 0.218510
H20   H     H_    0.726312 0.003388 0.259730 0.199364
H21   H     H_    0.661769 0.883880 0.286898 0.110096
H22   H     H_    0.582268 0.949699 0.182632 0.167790
H23   H     H_    0.634674 0.658918 0.809550 0.161483
H24   H     H_    0.057719 0.146695 0.580248 0.164319
H25   H     H_    0.748870 0.321762 0.545277 0.167629
H26   H     H_    0.232937 0.267943 0.989868 0.152901
H27   H     H_    0.229542 0.355580 0.890719 0.130621
H28   H     H_    0.345671 0.260822 0.886725 0.193183
H29   H     H_    0.592974 0.787983 0.988898 0.198788
N1    N     N_R   0.523180 0.519350 0.790130 -0.242715
N2    N     N_R   0.476820 0.480650 0.209890 -0.209805
O1    O     O_R   0.506570 0.354460 0.582000 -0.541589
O2    O     O_R   0.490940 0.341410 0.386200 -0.469695
O3    O     O_R   0.327470 0.506530 0.597920 -0.482100
O4    O     O_R   0.311840 0.493480 0.402120 -0.499181
O5    O     O_R   0.509060 0.658590 0.613800 -0.451503
O6    O     O_R   0.493430 0.645540 0.418000 -0.519941
O7    O     O_R   0.688160 0.506520 0.597880 -0.509307
O8    O     O_R   0.672530 0.493470 0.402080 -0.506799

loop_
_geom_bond_atom_site_label_1
_geom_bond_atom_site_label_2
_ccdc_geom_bond_type
C10   C27   S    
C18   H23   S    
C33   H18   S    
C30   H7    S    
C12   C23   A    
C9    Cl2   S    
C32   C36   S    
C31   H11   S    
C36   C37   A    
C32   H14   S    
C10   C15   A    
C33   H17   S    
Cu1   O1    S    
C3    H1    S    
C16   O6    A    
C18   C19   A    
Cu2   O4    S    
C8    Cl5   S    
C13   N2    A    
C28   H3    S    
C2    C39   A    
C4    O3    A    
C8    C9    A    
C20   O8    A    
C27   H27   S    
Cu1   O7    S    
C3    C39   A    
C13   C14   A    
C7    C33   S    
C34   Cl1   S    
C8    C38   A    
Cu2   O2    S    
C27   H28   S    
C33   H19   S    
Cu2   O8    S    
C13   C30   S    
C6    C40   A    
C24   C25   A    
C4    C23   S    
C25   C26   A    
C30   H9    S    
C12   C21   A    
C16   O5    A    
C12   C26   A    
C31   H13   S    
C5    C9    A    
C11   N2    A    
Cu1   O3    S    
C21   C31   S    
C28   H2    S    
C35   H20   S    
C2    Cl3   S    
C23   C34   A    
C20   O7    A    
C17   N1    A    
C25   H25   S    
Cu2   O6    S    
C19   C28   S    
C11   C29   S    
C17   H12   S    
C24   Cl4   S    
C22   C24   A    
C28   H29   S    
C22   H24   S    
C29   H4    S    
C15   C17   A    
Cu1   Cu2   S    
C14   C19   A    
C32   H16   S    
C3    C5    A    
Cu1   N1    S    
C26   C37   A    
C6    C7    A    
C30   H8    S    
C31   H10   S    
C35   C40   S    
C32   H15   S    
C27   H26   S    
C20   C37   S    
C5    C6    A    
C29   H6    S    
C35   H21   S    
C18   N1    A    
C1    O1    A    
C7    C38   A    
C34   C36   A    
C10   C11   A    
C1    C39   S    
Cu1   O5    S    
C2    C40   A    
C4    O4    A    
C35   H22   S    
C1    O2    A    
C14   C15   A    
Cu2   N2    S    
C21   C22   A    
C16   C38   S    
C29   H5    S    
