data_mof_unit_14351.cif
_audit_creation_date              2012-12-11T16:55:01-0500
_audit_creation_method            fapswitch 2.2
_symmetry_space_group_name_H-M    P1
_symmetry_Int_Tables_number       1
_space_group_crystal_system       triclinic
_cell_length_a                    27.433758
_cell_length_b                    7.162214
_cell_length_c                    25.14457
_cell_angle_alpha                 90.000026
_cell_angle_beta                  95.242906
_cell_angle_gamma                 90.0
_cell_volume                      4919.8970835

loop_
_atom_site_label
_atom_site_type_symbol
_atom_type_description
_atom_site_fract_x
_atom_site_fract_y
_atom_site_fract_z
_atom_type_partial_charge
O1    O     O_R   0.297580 0.601040 0.203260 -0.508308
O2    O     O_R   0.702420 0.398960 0.796740 -0.503648
O3    O     O_R   0.202420 0.101040 0.296740 -0.508307
O4    O     O_R   0.797580 0.898960 0.703260 -0.503648
O5    O     O_R   0.198250 0.269810 0.192660 -0.537797
O6    O     O_R   0.801750 0.730190 0.807340 -0.531415
O7    O     O_R   0.301750 0.769810 0.307340 -0.537797
O8    O     O_R   0.698250 0.230190 0.692660 -0.531417
C1    C     C_R   0.181768 0.440782 0.178367 0.735866
C2    C     C_R   0.818749 0.559050 0.821073 0.730756
C3    C     C_R   0.318232 0.940782 0.321633 0.735867
C4    C     C_R   0.681251 0.059050 0.678927 0.730751
O9    O     O_R   0.296940 0.271230 0.196830 -0.550859
O10   O     O_R   0.703060 0.728770 0.803170 -0.550954
O11   O     O_R   0.203060 0.771230 0.303170 -0.550859
O12   O     O_R   0.796940 0.228770 0.696830 -0.550954
O13   O     O_R   0.301830 0.102400 0.300940 -0.504624
O14   O     O_R   0.698170 0.897600 0.699060 -0.507734
O15   O     O_R   0.198170 0.602400 0.199060 -0.504624
O16   O     O_R   0.801830 0.397600 0.800940 -0.507734
C5    C     C_R   0.312468 0.440536 0.184292 0.704488
C6    C     C_R   0.687056 0.559718 0.815335 0.744481
C7    C     C_R   0.187531 0.940536 0.315707 0.704489
C8    C     C_R   0.812944 0.059718 0.684665 0.744481
O17   O     O_3   0.251490 0.435010 0.284150 -0.353297
O18   O     O_3   0.748510 0.564990 0.715850 -0.359513
O19   O     O_3   0.248510 0.935010 0.215850 -0.353298
O20   O     O_3   0.751490 0.064990 0.784150 -0.359511
V1    V     V_3+5 0.249720 0.159590 0.243660 1.559600
V2    V     V_3+5 0.750280 0.840410 0.756340 1.595840
V3    V     V_3+5 0.250280 0.659590 0.256340 1.559599
V4    V     V_3+5 0.749720 0.340410 0.743660 1.595836
C9    C     C_R   0.877012 0.881666 0.637035 0.442180
C10   C     C_R   0.138736 0.121595 0.380212 0.404414
C11   C     C_R   0.622991 0.381662 0.862968 0.442179
C12   C     C_R   0.361265 0.621596 0.119789 0.404417
C13   C     C_R   0.909034 0.875046 0.596070 -0.232417
C14   C     C_R   0.099478 0.131232 0.412280 -0.187441
C15   C     C_R   0.590971 0.375041 0.903935 -0.232410
C16   C     C_R   0.400523 0.631232 0.087721 -0.187459
H1    H     H_    0.926380 0.744614 0.586991 0.119831
H2    H     H_    0.091648 0.262277 0.431328 0.147027
H3    H     H_    0.573628 0.244604 0.913016 0.119836
H4    H     H_    0.408353 0.762278 0.068674 0.147036
C17   C     C_R   0.919964 0.034773 0.567365 0.114294
C18   C     C_R   0.071670 0.973007 0.421486 0.097940
C19   C     C_R   0.580037 0.534772 0.932637 0.114291
C20   C     C_R   0.428331 0.473006 0.078515 0.097933
C21   C     C_R   0.896383 0.202647 0.578097 -0.067179
C22   C     C_R   0.082521 0.803777 0.397161 -0.057198
C23   C     C_R   0.603615 0.702651 0.921900 -0.067179
C24   C     C_R   0.417478 0.303775 0.102839 -0.057178
H5    H     H_    0.905080 0.329998 0.557782 0.159240
H6    H     H_    0.061475 0.679592 0.404107 0.145245
H7    H     H_    0.594915 0.830005 0.942212 0.159243
H8    H     H_    0.438524 0.179589 0.095892 0.145254
C25   C     C_R   0.861505 0.208547 0.615503 -0.239110
C26   C     C_R   0.120269 0.794006 0.363246 -0.233956
C27   C     C_R   0.638493 0.708551 0.884494 -0.239112
C28   C     C_R   0.379731 0.294004 0.136754 -0.233960
H9    H     H_    0.843170 0.339746 0.621464 0.180588
H10   H     H_    0.126882 0.662109 0.344117 0.182042
H11   H     H_    0.656826 0.839753 0.878530 0.180594
H12   H     H_    0.373117 0.162107 0.155882 0.182044
C29   C     C_R   0.850783 0.048919 0.645187 -0.125747
C30   C     C_R   0.148791 0.952326 0.353788 -0.149302
C31   C     C_R   0.649217 0.548919 0.854813 -0.125750
C32   C     C_R   0.351209 0.452325 0.146212 -0.149305
C33   C     C_R   0.951364 0.095270 0.476375 0.419989
C34   C     C_R   0.039494 0.912948 0.510332 0.428219
C35   C     C_R   0.548632 0.595308 0.023622 0.419984
C36   C     C_R   0.460511 0.412903 0.989673 0.428214
C37   C     C_R   0.988515 0.077151 0.441812 -0.226019
C38   C     C_R   0.002901 0.933709 0.545188 -0.245816
C39   C     C_R   0.511481 0.577192 0.058185 -0.226007
C40   C     C_R   0.497105 0.433665 0.954817 -0.245802
H13   H     H_    0.982815 0.132835 0.401656 0.186103
H14   H     H_    0.009366 0.879116 0.585403 0.168563
H15   H     H_    0.517177 0.632909 0.098338 0.186099
H16   H     H_    0.490643 0.379041 0.914605 0.168556
C41   C     C_R   0.032517 0.985165 0.458213 -0.061425
C42   C     C_R   0.958407 0.024234 0.528994 -0.051565
C43   C     C_R   0.467483 0.485163 0.041788 -0.061414
C44   C     C_R   0.541594 0.524232 0.971007 -0.051553
C45   C     C_R   0.433152 0.809709 0.411372 0.434355
C46   C     C_R   0.588762 0.188327 0.561528 0.437174
C47   C     C_R   0.066848 0.309709 0.088628 0.434355
C48   C     C_R   0.911238 0.688328 0.938472 0.437174
C49   C     C_R   0.392019 0.799744 0.373718 -0.218311
C50   C     C_R   0.627532 0.197563 0.602138 -0.212365
C51   C     C_R   0.107981 0.299744 0.126281 -0.218311
C52   C     C_R   0.872468 0.697563 0.897862 -0.212364
H17   H     H_    0.385496 0.672077 0.351113 0.207608
H18   H     H_    0.648901 0.324666 0.606496 0.209849
H19   H     H_    0.114504 0.172077 0.148887 0.207608
H20   H     H_    0.851100 0.824666 0.893503 0.209850
C53   C     C_R   0.360282 0.953512 0.364168 -0.198382
C54   C     C_R   0.639126 0.044759 0.636397 -0.210769
C55   C     C_R   0.139718 0.453512 0.135831 -0.198382
C56   C     C_R   0.860874 0.544759 0.863603 -0.210771
C57   C     C_R   0.370743 0.118643 0.394599 0.384769
C58   C     C_R   0.609798 0.880669 0.628912 0.386863
C59   C     C_R   0.129257 0.618643 0.105401 0.384769
C60   C     C_R   0.890202 0.380668 0.871088 0.386861
C61   C     C_R   0.411764 0.127112 0.432049 -0.164263
C62   C     C_R   0.571400 0.872982 0.588230 -0.163530
C63   C     C_R   0.088236 0.627112 0.067951 -0.164263
C64   C     C_R   0.928599 0.372982 0.911770 -0.163529
H21   H     H_    0.418984 0.253983 0.454935 0.209627
H22   H     H_    0.549399 0.747340 0.583341 0.207463
H23   H     H_    0.081016 0.753983 0.045065 0.209627
H24   H     H_    0.950601 0.247340 0.916659 0.207463
C65   C     C_R   0.443343 0.974999 0.440535 -0.061240
C66   C     C_R   0.560611 0.024557 0.554301 -0.061592
C67   C     C_R   0.056657 0.474999 0.059465 -0.061240
C68   C     C_R   0.939389 0.524557 0.945699 -0.061592
C69   C     C_1   0.485422 0.992072 0.479799 0.135429
C70   C     C_1   0.519937 0.008594 0.513233 0.135701
C71   C     C_1   0.014577 0.492072 0.020201 0.135428
C72   C     C_1   0.980063 0.508594 0.986767 0.135701
O21   O     O_3   0.869865 0.725664 0.668431 -0.548876
C73   C     C_3   0.914741 0.635944 0.685051 0.038706
H25   H     H_    0.945644 0.736660 0.692745 0.133203
H26   H     H_    0.923810 0.533007 0.654407 0.129588
C74   C     C_3   0.909724 0.531341 0.736658 -0.608555
H27   H     H_    0.943691 0.451244 0.748273 0.196500
H28   H     H_    0.903788 0.632724 0.768775 0.212703
H29   H     H_    0.878431 0.432937 0.731401 0.237031
O22   O     O_3   0.166246 0.280748 0.374368 -0.557138
C75   C     C_3   0.201721 0.295070 0.418651 0.094482
H30   H     H_    0.232454 0.197484 0.413366 0.157846
H31   H     H_    0.186566 0.263152 0.457356 0.133168
C76   C     C_3   0.221422 0.493638 0.422442 -0.580776
H32   H     H_    0.191711 0.591812 0.430611 0.209189
H33   H     H_    0.251015 0.503571 0.455530 0.205743
H34   H     H_    0.236402 0.534077 0.384608 0.251688
O23   O     O_3   0.630139 0.225657 0.831573 -0.548877
C77   C     C_3   0.585261 0.135948 0.814951 0.038701
H35   H     H_    0.554360 0.236670 0.807256 0.133203
H36   H     H_    0.576190 0.033011 0.845594 0.129586
C78   C     C_3   0.590279 0.031348 0.763343 -0.608553
H37   H     H_    0.556311 0.951257 0.751727 0.196501
H38   H     H_    0.596217 0.132732 0.731228 0.212701
H39   H     H_    0.621571 0.932939 0.768601 0.237031
O24   O     O_3   0.333755 0.780749 0.125633 -0.557138
C79   C     C_3   0.298279 0.795068 0.081350 0.094485
H40   H     H_    0.267546 0.697483 0.086637 0.157844
H41   H     H_    0.313433 0.763145 0.042645 0.133164
C80   C     C_3   0.278578 0.993636 0.077558 -0.580776
H42   H     H_    0.308290 0.091809 0.069389 0.209192
H43   H     H_    0.248986 0.003567 0.044471 0.205742
H44   H     H_    0.263599 0.034078 0.115392 0.251686
Cl1   Cl    Cl    0.895692 0.197350 0.450839 -0.562167
Cl2   Cl    Cl    0.094285 0.799660 0.533701 -0.629050
Cl3   Cl    Cl    0.604299 0.697438 0.049155 -0.562178
Cl4   Cl    Cl    0.405727 0.299562 0.966309 -0.629062
Cl5   Cl    Cl    0.471473 0.613116 0.420760 -0.553674
Cl6   Cl    Cl    0.576351 0.384544 0.520356 -0.542740
Cl7   Cl    Cl    0.028527 0.113116 0.079240 -0.553675
Cl8   Cl    Cl    0.923649 0.884545 0.979644 -0.542741
Cl9   Cl    Cl    0.333589 0.319498 0.389449 -0.684013
Cl10  Cl    Cl    0.617117 0.680412 0.669843 -0.672627
Cl11  Cl    Cl    0.166411 0.819498 0.110550 -0.684014
Cl12  Cl    Cl    0.882883 0.180410 0.830158 -0.672626

loop_
_geom_bond_atom_site_label_1
_geom_bond_atom_site_label_2
_ccdc_geom_bond_type
C26   H10   S    
C55   C59   A    
O1    C5    A    
C36   Cl4   S    
C47   C51   A    
O19   V1    S    
O13   V1    S    
O3    C7    A    
C17   C42   S    
O1    V3    S    
C64   C68   A    
C36   C40   A    
O4    V2    S    
O15   V3    S    
C10   C30   A    
O24   C79   S    
C9    C29   A    
O7    C3    A    
C22   H6    S    
C62   C66   A    
C7    C30   S    
C61   C65   A    
O10   V2    S    
C35   C44   A    
C80   H43   S    
C62   H22   S    
C11   C15   A    
O4    C8    A    
C18   C41   S    
C52   H20   S    
C21   C25   A    
O2    V4    S    
O3    V1    S    
C34   C41   A    
C33   C42   A    
C24   C28   A    
C27   C31   A    
C80   H42   S    
C1    O15   A    
C56   C60   A    
C48   C52   A    
C10   O22   S    
C2    O16   A    
C34   C38   A    
C74   H29   S    
C33   C37   A    
O14   V2    S    
C11   C31   A    
C16   H4    S    
O5    V1    S    
C58   Cl10  S    
C63   H23   S    
O11   C7    A    
O12   C8    A    
C34   Cl2   S    
C9    O21   S    
C40   C44   A    
C45   Cl5   S    
C38   C42   A    
C37   C41   A    
C26   C30   A    
C28   H12   S    
C50   H18   S    
C79   H41   S    
C57   C61   A    
O7    V3    S    
C22   C26   A    
C12   C16   A    
C46   C50   A    
C80   H44   S    
C45   C49   A    
O18   V4    S    
C19   C23   A    
C54   C58   A    
O11   V3    S    
C49   H17   S    
C33   Cl1   S    
C64   H24   S    
C49   C53   A    
C78   H38   S    
O8    V4    S    
C48   C68   A    
C75   H31   S    
O5    C1    A    
C76   H34   S    
C79   C80   S    
C17   C21   A    
O8    C4    A    
C35   Cl3   S    
O9    C5    A    
C19   C44   S    
C2    C56   S    
C46   Cl6   S    
C63   C67   A    
O21   C73   S    
C66   C70   S    
C77   H36   S    
C8    C29   S    
C65   C69   S    
O6    V2    S    
C67   C71   S    
C5    C32   S    
C74   H27   S    
C27   H11   S    
C78   H39   S    
C75   C76   S    
C23   C27   A    
C13   C17   A    
C60   C64   A    
C52   C56   A    
C15   C19   A    
C79   H40   S    
O16   V4    S    
O9    V1    S    
C16   C20   A    
C61   H21   S    
C3    O13   A    
C10   C14   A    
C47   C67   A    
O17   V3    S    
C40   H16   S    
C25   C29   A    
C77   C78   S    
O6    C2    A    
C15   H3    S    
C71   C72   T    
C12   C32   A    
C25   H9    S    
O12   V4    S    
O23   C77   S    
C18   C22   A    
C59   Cl11  S    
C20   C43   S    
C46   C66   A    
C3    C53   S    
O10   C6    A    
C73   C74   S    
C57   Cl9   S    
C75   H30   S    
O22   C75   S    
O20   V2    S    
C69   C70   T    
C11   O23   S    
C35   C39   A    
C39   C43   A    
C60   Cl12  S    
C76   H32   S    
C39   H15   S    
C21   H5    S    
C45   C65   A    
O2    C6    A    
C47   Cl7   S    
C58   C62   A    
C23   H7    S    
C48   Cl8   S    
C13   H1    S    
C9    C13   A    
C6    C31   S    
C14   C18   A    
C36   C43   A    
C77   H35   S    
C51   H19   S    
C14   H2    S    
C68   C72   S    
C12   O24   S    
C20   C24   A    
C28   C32   A    
C1    C55   S    
C38   H14   S    
C4    O14   A    
C4    C54   S    
C74   H28   S    
C76   H33   S    
C37   H13   S    
C59   C63   A    
C51   C55   A    
C73   H25   S    
C78   H37   S    
C73   H26   S    
C50   C54   A    
C53   C57   A    
C24   H8    S    
