data_mof_unit_23542.cif
_audit_creation_date              2012-12-10T17:51:31-0500
_audit_creation_method            fapswitch 2.2
_symmetry_space_group_name_H-M    P1
_symmetry_Int_Tables_number       1
_space_group_crystal_system       triclinic
_cell_length_a                    9.931908
_cell_length_b                    10.805639
_cell_length_c                    17.017837
_cell_angle_alpha                 93.263497
_cell_angle_beta                  83.737026
_cell_angle_gamma                 92.108551
_cell_volume                      1811.65934907

loop_
_atom_site_label
_atom_site_type_symbol
_atom_type_description
_atom_site_fract_x
_atom_site_fract_y
_atom_site_fract_z
_atom_type_partial_charge
C1    C     C_R   0.503850 0.736737 0.487292 0.890359
C2    C     C_R   0.535415 0.472420 0.263227 -0.146154
C3    C     C_R   0.271244 0.852791 0.432869 -0.176033
C4    C     C_R   0.479372 0.489231 0.652309 0.923117
C5    C     C_R   0.141192 0.882599 0.465143 0.051810
C6    C     C_R   0.127090 0.988805 0.516545 -0.092438
C7    C     C_R   0.229675 0.082110 0.505833 -0.091145
C8    C     C_R   0.367127 0.046509 0.483300 -0.031585
C9    C     C_R   0.382777 0.921220 0.459051 0.045070
C10   C     C_R   0.506423 0.865560 0.464435 -0.132823
C11   C     C_R   0.625414 0.938149 0.458278 0.104639
C12   C     C_R   0.335239 0.466867 0.783650 -0.057787
C13   C     C_R   0.616176 0.065991 0.468778 -0.172687
C14   C     C_R   0.489793 0.122335 0.485645 -0.144011
C15   C     C_R   0.845277 0.646981 0.614244 -0.180920
C16   C     C_R   0.496298 0.258157 0.498536 0.918306
C17   C     C_R   0.906272 0.718346 0.672483 0.119008
C18   C     C_R   0.047614 0.718395 0.673032 0.006277
C19   C     C_R   0.123684 0.644053 0.615605 -0.235981
C20   C     C_R   0.063444 0.565173 0.559944 0.134317
C21   C     C_R   0.919238 0.566071 0.559539 0.109139
C22   C     C_R   0.939985 0.452058 0.436891 0.009248
C23   C     C_R   0.460019 0.344251 0.155087 -0.162367
C24   C     C_R   0.082931 0.459956 0.435715 -0.068379
C25   C     C_R   0.520589 0.498918 0.347701 0.852887
C26   C     C_R   0.464857 0.468916 0.738124 -0.186200
C27   C     C_R   0.583243 0.459707 0.777083 -0.060337
C28   C     C_R   0.573804 0.477473 0.858490 -0.278843
C29   C     C_R   0.448265 0.486049 0.903232 0.119100
C30   C     C_R   0.328307 0.477965 0.867065 0.045483
C31   C     C_2   0.716018 0.419012 0.736848 0.946741
C32   C     C_2   0.005680 0.011297 0.574605 0.945272
C33   C     C_2   0.173770 0.189198 0.473328 0.987632
C34   C     C_R   0.457512 0.372184 0.235227 -0.198791
C35   C     C_2   0.885925 0.392375 0.366234 1.012118
C36   C     C_2   0.119918 0.797784 0.730694 0.973608
C37   C     C_2   0.703790 0.651705 0.238158 0.904390
C38   C     C_2   0.208381 0.438750 0.746363 0.941253
C39   C     C_R   0.623500 0.542410 0.210631 -0.019283
C40   C     C_R   0.626154 0.513255 0.129243 0.111774
C41   C     C_R   0.540368 0.416547 0.102427 0.127270
C42   C     C_2   0.445507 0.487914 0.989235 0.115009
C43   C     C_2   0.517194 0.403414 0.020075 -0.277028
H1    H     H_    0.286300 0.768962 0.395245 0.164738
H2    H     H_    0.816760 0.304736 0.654628 0.355854
H3    H     H_    0.775604 0.519409 0.038216 0.188034
H4    H     H_    0.658327 0.629764 0.038835 0.224355
H5    H     H_    0.828827 0.951524 0.425536 0.219964
H6    H     H_    0.749277 0.831251 0.384504 0.208654
H7    H     H_    0.057044 0.735206 0.404221 0.195322
H8    H     H_    0.981355 0.769597 0.494888 0.222891
H9    H     H_    0.929613 0.100727 0.676238 0.356825
H10   H     H_    0.274082 0.156490 0.364215 0.296108
H11   H     H_    0.760221 0.263334 0.320818 0.328047
H12   H     H_    0.709806 0.120725 0.466288 0.218235
H13   H     H_    0.752351 0.734864 0.759902 0.201702
H14   H     H_    0.770710 0.853782 0.699002 0.219094
H15   H     H_    0.296340 0.842008 0.775967 0.349760
H16   H     H_    0.750974 0.833847 0.228848 0.337112
H17   H     H_    0.145403 0.549900 0.906353 0.236327
H18   H     H_    0.147482 0.391648 0.901469 0.217093
H19   H     H_    0.110901 0.330082 0.669293 0.386404
H20   H     H_    0.340420 0.648518 0.003429 0.201584
H21   H     H_    0.292953 0.542739 0.070648 0.220188
H22   H     H_    0.741702 0.665087 0.609500 0.208216
H23   H     H_    0.391917 0.317063 0.275667 0.185574
H24   H     H_    0.230829 0.655929 0.612136 0.241557
H25   H     H_    0.146173 0.427859 0.383436 0.206750
H26   H     H_    0.564520 0.327645 0.983674 0.159820
H27   H     H_    0.394009 0.270468 0.133968 0.163997
H28   H     H_    0.665085 0.476902 0.888189 0.175254
N1    N     N_R   0.857140 0.501200 0.500750 -0.144511
N2    N     N_R   0.142740 0.501280 0.500770 -0.104591
N3    N     N_3   0.715795 0.582075 0.074424 -0.412081
N4    N     N_3   0.754182 0.882553 0.438026 -0.366654
N5    N     N_3   0.026685 0.808704 0.444076 -0.422764
N6    N     N_3   0.823588 0.793326 0.729385 -0.384750
N7    N     N_3   0.201187 0.473191 0.916171 -0.461242
N8    N     N_3   0.377063 0.584006 0.038719 -0.426825
O1    O     O_R   0.385310 0.683220 0.500000 -0.654037
O2    O     O_R   0.720746 0.323159 0.677853 -0.769737
O3    O     O_2   0.897959 0.955994 0.567748 -0.657192
O4    O     O_R   0.017012 0.094713 0.639602 -0.751196
O5    O     O_2   0.087379 0.248343 0.514058 -0.600531
O6    O     O_R   0.208862 0.216753 0.394258 -0.822447
O7    O     O_2   0.934837 0.420550 0.300320 -0.619250
O8    O     O_R   0.786837 0.297911 0.373781 -0.795305
O9    O     O_2   0.059739 0.875708 0.774712 -0.579105
O10   O     O_R   0.258471 0.783392 0.734593 -0.833746
O11   O     O_2   0.784195 0.641136 0.286587 -0.611256
O12   O     O_R   0.614640 0.683250 0.500010 -0.612618
O13   O     O_R   0.690288 0.766434 0.206262 -0.792921
O14   O     O_2   0.107986 0.499686 0.766180 -0.606505
O15   O     O_R   0.202377 0.339160 0.690559 -0.740863
O16   O     O_R   0.371780 0.500010 0.615800 -0.609078
O17   O     O_R   0.601110 0.500030 0.615800 -0.629086
O18   O     O_R   0.385360 0.316750 0.499990 -0.600286
O19   O     O_R   0.614690 0.316780 0.500000 -0.551588
O20   O     O_R   0.398890 0.499970 0.384200 -0.633118
O21   O     O_R   0.628220 0.499990 0.384200 -0.577026
O22   O     O_2   0.821359 0.465019 0.757967 -0.602595
Zn1   Zn    Zn3+2 0.346870 0.499980 0.499990 0.987211
Zn2   Zn    Zn3+2 0.653130 0.500020 0.500010 1.015201

loop_
_geom_bond_atom_site_label_1
_geom_bond_atom_site_label_2
_ccdc_geom_bond_type
C36   O10   S    
C6    C32   S    
C29   C42   S    
C41   C43   S    
C19   C20   A    
H5    N4    S    
C34   H23   S    
C7    C8    A    
H20   N8    S    
C36   O9    D    
C22   C35   S    
H17   N7    S    
C26   C27   A    
C37   O11   D    
C31   O22   D    
C28   C29   A    
H11   O8    S    
C35   O7    D    
C24   N2    A    
O19   Zn2   S    
C15   H22   S    
C18   C19   A    
C33   O6    S    
C4    O17   A    
C35   O8    S    
C2    C39   A    
C25   O20   A    
C8    C9    A    
H6    N4    S    
C19   H24   S    
C9    C10   A    
O18   Zn1   S    
O16   Zn1   S    
C2    C34   A    
C42   N8    S    
C43   H26   S    
C13   C14   A    
C7    C33   S    
C23   H27   S    
C22   N1    A    
H15   O10   S    
C3    H1    S    
C21   N1    A    
C27   C31   S    
H14   N6    S    
H8    N5    S    
C39   C40   A    
O21   Zn2   S    
H13   N6    S    
O1    Zn1   S    
H9    O4    S    
C29   C30   A    
C3    C9    A    
H7    N5    S    
C4    O16   A    
C25   O21   A    
H18   N7    S    
C23   C34   A    
C38   O15   S    
C17   N6    S    
C17   C18   A    
N2    Zn1   S    
H19   O15   S    
H21   N8    S    
C14   C16   S    
C28   H28   S    
C42   C43   D    
H3    N3    S    
C15   C17   A    
C32   O4    S    
C40   C41   A    
C8    C14   A    
C37   O13   S    
C12   C30   A    
H2    O2    S    
C1    C10   S    
H4    N3    S    
O12   Zn2   S    
C3    C5    A    
C23   C41   A    
C4    C26   S    
C6    C7    A    
N1    Zn2   S    
C32   O3    D    
C31   O2    S    
C5    N5    S    
C37   C39   S    
C11   N4    S    
C11   C13   A    
C16   O19   A    
C5    C6    A    
C38   O14   D    
C40   N3    S    
C20   N2    A    
C2    C25   S    
C22   C24   A    
H16   O13   S    
C12   C38   S    
C16   O18   A    
C33   O5    D    
C10   C11   A    
C24   H25   S    
C30   N7    S    
C15   C21   A    
O20   Zn1   S    
C20   C21   A    
C1    O12   A    
O17   Zn2   S    
C12   C26   A    
C27   C28   A    
C1    O1    A    
H10   O6    S    
C18   C36   S    
C13   H12   S    
