data_mof_unit_31157.cif
_audit_creation_date              2012-12-10T17:01:37-0500
_audit_creation_method            fapswitch 2.2
_symmetry_space_group_name_H-M    P1
_symmetry_Int_Tables_number       1
_space_group_crystal_system       triclinic
_cell_length_a                    9.910674
_cell_length_b                    11.123322
_cell_length_c                    12.922122
_cell_angle_alpha                 88.362033
_cell_angle_beta                  76.264205
_cell_angle_gamma                 110.918161
_cell_volume                      1282.45898464

loop_
_atom_site_label
_atom_site_type_symbol
_atom_type_description
_atom_site_fract_x
_atom_site_fract_y
_atom_site_fract_z
_atom_type_partial_charge
C1    C     C_R   0.440188 0.254978 0.507057 0.854652
C2    C     C_R   0.559970 0.744925 0.492009 0.858124
C3    C     C_2   0.083486 0.515806 0.493232 0.392112
C4    C     C_2   0.916506 0.484857 0.507422 0.399085
C5    C     C_R   0.473595 0.495884 0.702349 0.787547
C6    C     C_R   0.526426 0.504146 0.297635 0.783311
C7    C     C_R   0.542712 0.511847 0.183135 -0.042022
C8    C     C_R   0.457357 0.488078 0.816821 -0.041313
C9    C     C_R   0.306826 0.396392 0.997395 -0.234710
C10   C     C_R   0.693547 0.602899 0.002457 -0.233951
C11   C     C_R   0.319799 0.410796 0.888061 -0.201403
C12   C     C_R   0.680479 0.588661 0.111831 -0.204953
C13   C     C_R   0.580936 0.553903 0.854928 -0.291058
C14   C     C_R   0.419107 0.446085 0.145031 -0.290538
C15   C     C_R   0.569182 0.539614 0.964058 0.179179
C16   C     C_R   0.431010 0.460073 0.035861 0.178715
C17   C     C_2   0.407988 0.116849 0.521001 -0.404944
C18   C     C_2   0.592758 0.882643 0.474948 -0.405004
C19   C     C_2   0.512159 0.067303 0.478602 0.001480
C20   C     C_2   0.492489 0.934452 0.520862 -0.000105
Cu1   Cu    Cu3+1 0.647370 0.522180 0.481340 0.968712
Cu2   Cu    Cu3+1 0.352630 0.477820 0.518660 0.967802
H1    H     H_    0.313855 0.384351 0.200268 0.132284
H2    H     H_    0.686051 0.615932 0.799721 0.131957
H3    H     H_    0.776884 0.640068 0.140905 0.154604
H4    H     H_    0.223518 0.359098 0.858953 0.154516
H5    H     H_    0.200768 0.334677 0.051469 0.133938
H6    H     H_    0.799884 0.663973 0.948247 0.132917
H7    H     H_    0.693755 0.937156 0.412907 0.139097
H8    H     H_    0.302871 0.059394 0.577965 0.139596
H9    H     H_    0.942869 0.647318 0.420164 0.168899
H10   H     H_    0.056984 0.352602 0.579538 0.169241
N1    N     N_2   0.131210 0.444490 0.546730 -0.316146
N2    N     N_2   0.868790 0.555510 0.453270 -0.314865
O1    O     O_R   0.578710 0.332530 0.490040 -0.496120
O2    O     O_R   0.421290 0.667470 0.509960 -0.496274
O3    O     O_R   0.329810 0.295070 0.521560 -0.600114
O4    O     O_R   0.670190 0.704930 0.478440 -0.600412
O5    O     O_R   0.604230 0.515670 0.637800 -0.576405
O6    O     O_R   0.395770 0.484330 0.362200 -0.577168
O7    O     O_R   0.355330 0.478200 0.669330 -0.576778
O8    O     O_R   0.644670 0.521800 0.330670 -0.577893
C21   C     C_R   0.365845 0.859795 0.616075 0.162702
C22   C     C_R   0.396130 0.827588 0.711823 -0.165806
C23   C     C_R   0.279667 0.748772 0.798158 -0.117512
C24   C     C_R   0.132215 0.701978 0.789798 -0.118517
C25   C     C_R   0.100937 0.734170 0.695194 -0.164972
C26   C     C_R   0.217203 0.811859 0.608309 -0.070339
H11   H     H_    0.510175 0.861831 0.718761 0.114296
H12   H     H_    0.303898 0.723182 0.871252 0.132112
H13   H     H_    0.042366 0.640408 0.856472 0.113796
H14   H     H_    0.986814 0.698128 0.688743 0.102859
H15   H     H_    0.191870 0.833910 0.534669 0.143296
C27   C     C_R   0.645555 0.145336 0.388571 0.165706
C28   C     C_R   0.790947 0.185350 0.402545 -0.065735
C29   C     C_R   0.913896 0.265626 0.320928 -0.169598
C30   C     C_R   0.892633 0.308632 0.225596 -0.129982
C31   C     C_R   0.748634 0.269280 0.210818 -0.110630
C32   C     C_R   0.625508 0.187542 0.291676 -0.155558
H16   H     H_    0.808579 0.155335 0.477093 0.139214
H17   H     H_    0.025380 0.295630 0.332279 0.108945
H18   H     H_    0.987548 0.372926 0.163404 0.111901
H19   H     H_    0.732233 0.302967 0.137058 0.131082
H20   H     H_    0.514265 0.159094 0.279795 0.110734
O9    O     O_3   0.812528 0.372941 0.572231 -0.565325
C33   C     C_3   0.801665 0.387548 0.682204 0.075175
H21   H     H_    0.796191 0.482338 0.701612 0.150500
H22   H     H_    0.898146 0.381006 0.707442 0.107328
C34   C     C_3   0.662151 0.278556 0.750217 -0.746203
H23   H     H_    0.673484 0.183652 0.738941 0.225749
H24   H     H_    0.647488 0.292406 0.836386 0.197223
H25   H     H_    0.561247 0.277167 0.726387 0.248541
O10   O     O_3   0.187383 0.628127 0.428894 -0.567582
C35   C     C_3   0.199367 0.613951 0.318724 0.079520
H26   H     H_    0.103653 0.621247 0.292859 0.106803
H27   H     H_    0.204368 0.519051 0.299200 0.151041
C36   C     C_3   0.339709 0.722667 0.251317 -0.747631
H28   H     H_    0.439916 0.723632 0.275954 0.248336
H29   H     H_    0.355351 0.708861 0.165095 0.196324
H30   H     H_    0.328709 0.817743 0.262263 0.226618

loop_
_geom_bond_atom_site_label_1
_geom_bond_atom_site_label_2
_ccdc_geom_bond_type
C22   H11   S    
C33   H22   S    
C28   C29   A    
C8    C13   A    
C2    C18   S    
O10   C35   S    
C19   C20   S    
C30   H18   S    
C36   H28   S    
C1    O1    A    
C32   H20   S    
C35   H27   S    
C9    C16   A    
C10   C15   A    
C4    O9    S    
Cu2   O7    S    
C3    N1    D    
C10   H6    S    
C15   C16   A    
C29   C30   A    
C34   H24   S    
C27   C28   A    
C7    C14   A    
Cu1   O4    S    
C35   C36   S    
C21   C26   A    
C18   C20   D    
C1    O3    A    
C33   H21   S    
C28   H16   S    
C17   H8    S    
C7    C12   A    
C27   C32   A    
C36   H29   S    
C26   H15   S    
C4    N2    D    
C35   H26   S    
Cu1   N2    S    
C11   H4    S    
C31   C32   A    
C23   C24   A    
Cu2   O3    S    
C24   H13   S    
C13   H2    S    
C14   H1    S    
C34   H25   S    
C21   C22   A    
C2    O4    A    
C25   C26   A    
Cu1   O5    S    
Cu2   O6    S    
H9    N2    S    
C18   H7    S    
C9    C11   A    
C25   H14   S    
C10   C12   A    
C19   C27   S    
C5    O5    A    
C14   C16   A    
C3    C4    S    
C20   C21   S    
C22   C23   A    
C9    H5    S    
C36   H30   S    
C2    O2    A    
C31   H19   S    
Cu2   N1    S    
C5    O7    A    
C24   C25   A    
C5    C8    S    
C6    C7    S    
Cu1   O1    S    
Cu2   O2    S    
C1    C17   S    
C12   H3    S    
H10   N1    S    
C13   C15   A    
C30   C31   A    
C23   H12   S    
C8    C11   A    
C17   C19   D    
C6    O6    A    
C34   H23   S    
C3    O10   S    
Cu1   O8    S    
C33   C34   S    
O9    C33   S    
C6    O8    A    
C29   H17   S    
Cu1   Cu2   S    
