data_mof_unit_65868.cif
_audit_creation_date              2012-12-10T18:08:29-0500
_audit_creation_method            fapswitch 2.2
_symmetry_space_group_name_H-M    P1
_symmetry_Int_Tables_number       1
_space_group_crystal_system       triclinic
_cell_length_a                    12.736454
_cell_length_b                    13.890141
_cell_length_c                    19.343367
_cell_angle_alpha                 90.182372
_cell_angle_beta                  92.467676
_cell_angle_gamma                 98.014343
_cell_volume                      3385.34627151

loop_
_atom_site_label
_atom_site_type_symbol
_atom_type_description
_atom_site_fract_x
_atom_site_fract_y
_atom_site_fract_z
_atom_type_partial_charge
C1    C     C_R   0.483529 0.315785 0.498736 0.827998
C2    C     C_R   0.516471 0.684214 0.501269 0.827900
C3    C     C_1   0.525864 0.787573 0.503933 -0.146496
C4    C     C_1   0.474138 0.212425 0.496077 -0.146449
C5    C     C_2   0.541956 0.978413 0.509174 -0.146702
C6    C     C_2   0.458044 0.021584 0.490839 -0.146692
C7    C     C_1   0.466102 0.125368 0.493576 0.019693
C8    C     C_1   0.533900 0.874630 0.506436 0.019754
C9    C     C_2   0.028627 0.475568 0.478986 -0.259337
C10   C     C_2   0.971373 0.524431 0.521017 -0.259444
C11   C     C_1   0.854518 0.518443 0.514608 0.242087
C12   C     C_1   0.145482 0.481556 0.485393 0.242140
C13   C     C_R   0.500866 0.498886 0.367263 0.840811
C14   C     C_R   0.499135 0.501115 0.632736 0.840900
C15   C     C_R   0.437107 0.552392 0.251472 -0.045589
C16   C     C_R   0.562903 0.447613 0.748514 -0.045674
C17   C     C_R   0.437012 0.548177 0.179462 -0.223388
C18   C     C_R   0.563040 0.451838 0.820523 -0.223335
C19   C     C_R   0.502219 0.491685 0.145796 -0.073160
C20   C     C_R   0.497867 0.508355 0.854200 -0.073180
C21   C     C_R   0.566546 0.435051 0.184788 0.262058
C22   C     C_R   0.433547 0.565007 0.815219 0.262072
C23   C     C_R   0.566554 0.437625 0.257550 0.210915
C24   C     C_R   0.433501 0.562416 0.742456 0.210895
C25   C     C_R   0.502755 0.497392 0.291218 -0.185260
C26   C     C_R   0.497258 0.502621 0.708780 -0.185271
C27   C     C_R   0.498902 0.506016 0.930141 0.461776
C28   C     C_R   0.501189 0.494019 0.069854 0.461775
Cu1   Cu    Cu3+1 0.395330 0.493960 0.495610 1.023385
Cu2   Cu    Cu3+1 0.604670 0.506040 0.504390 1.023385
H1    H     H_    0.387653 0.591725 0.149352 0.183342
H2    H     H_    0.612399 0.408279 0.850622 0.183362
H3    H     H_    0.383094 0.979309 0.473669 0.156545
H4    H     H_    0.616906 0.020688 0.526345 0.156535
H5    H     H_    0.012641 0.570607 0.561849 0.181210
H6    H     H_    0.987360 0.429392 0.438154 0.181227
N1    N     N_R   0.592977 0.501513 0.035976 -0.169135
N2    N     N_R   0.407115 0.498521 0.964019 -0.169153
N3    N     N_R   0.591804 0.506704 0.967314 -0.212091
N4    N     N_R   0.408288 0.493329 0.032681 -0.212123
N5    N     N_1   0.238030 0.484880 0.489000 -0.143984
N6    N     N_1   0.761970 0.515120 0.511000 -0.143980
O1    O     O_R   0.399110 0.356330 0.495750 -0.576986
O2    O     O_R   0.600890 0.643670 0.504250 -0.576969
O3    O     O_R   0.575900 0.366540 0.503170 -0.551399
O4    O     O_R   0.424100 0.633460 0.496830 -0.551439
O5    O     O_R   0.411580 0.494880 0.396430 -0.573033
O6    O     O_R   0.588420 0.505120 0.603570 -0.573060
O7    O     O_R   0.588360 0.505090 0.403850 -0.543400
O8    O     O_R   0.411640 0.494910 0.596150 -0.543417
C29   C     C_R   0.369286 0.616884 0.283570 0.137171
C30   C     C_R   0.258342 0.596252 0.275483 -0.115981
C31   C     C_R   0.194054 0.656448 0.306342 -0.126476
C32   C     C_R   0.240079 0.738080 0.344717 -0.093352
C33   C     C_R   0.350459 0.759661 0.352281 -0.110769
C34   C     C_R   0.415073 0.699153 0.322067 -0.129682
H7    H     H_    0.221825 0.533111 0.245931 0.146645
H8    H     H_    0.108557 0.639860 0.300458 0.148764
H9    H     H_    0.190236 0.784758 0.368429 0.136265
H10   H     H_    0.385871 0.823297 0.381571 0.133938
H11   H     H_    0.500517 0.716364 0.328514 0.117308
C35   C     C_R   0.630655 0.383086 0.716392 0.137280
C36   C     C_R   0.584742 0.300694 0.678036 -0.130099
C37   C     C_R   0.649267 0.240176 0.647755 -0.110932
C38   C     C_R   0.759679 0.261890 0.655098 -0.093059
C39   C     C_R   0.805834 0.343660 0.693326 -0.126554
C40   C     C_R   0.741639 0.403854 0.724264 -0.115740
H12   H     H_    0.499265 0.283402 0.671742 0.117542
H13   H     H_    0.613755 0.176440 0.618578 0.133976
H14   H     H_    0.809447 0.215217 0.631321 0.136217
H15   H     H_    0.891354 0.360359 0.699030 0.148660
H16   H     H_    0.778247 0.467111 0.753694 0.146561
Br1   Br    Br    0.648148 0.348134 0.139346 -0.377414
Br2   Br    Br    0.352016 0.651973 0.860676 -0.377412
Br3   Br    Br    0.648045 0.353257 0.310141 -0.426227
Br4   Br    Br    0.352012 0.646792 0.689873 -0.426251

loop_
_geom_bond_atom_site_label_1
_geom_bond_atom_site_label_2
_ccdc_geom_bond_type
C33   C34   A    
Cu2   O3    S    
C13   C25   S    
C31   C32   A    
C2    O4    A    
C12   N5    T    
C35   C40   A    
Cu1   O5    S    
Cu2   O6    S    
C19   C21   A    
C24   C26   A    
C29   C34   A    
C5    C6    D    
C15   C25   A    
C28   N4    A    
C27   N2    A    
C38   H14   S    
C21   Br1   S    
C11   N6    T    
C40   H16   S    
C32   C33   A    
C1    O1    A    
C27   N3    A    
C9    H6    S    
C10   H5    S    
C15   C29   S    
Cu1   Cu2   S    
C9    C10   D    
C32   H9    S    
C39   C40   A    
C33   H10   S    
Cu1   O1    S    
Cu2   O2    S    
C16   C35   S    
C4    C7    T    
Cu1   O8    S    
C16   C26   A    
C29   C30   A    
C3    C8    T    
C30   H7    S    
C2    O2    A    
C13   O5    A    
C24   Br4   S    
C14   O6    A    
C35   C36   A    
C39   H15   S    
C5    H4    S    
C37   H13   S    
C14   C26   S    
C19   C28   S    
C13   O7    A    
Cu2   O7    S    
C20   C22   A    
C21   C23   A    
C17   H1    S    
C22   C24   A    
C18   H2    S    
C22   Br2   S    
C30   C31   A    
C15   C17   A    
C36   H12   S    
Cu1   N5    S    
C23   Br3   S    
C5    C8    S    
C31   H8    S    
C6    C7    S    
C20   C27   S    
C6    H3    S    
Cu1   O4    S    
C1    C4    S    
C37   C38   A    
C2    C3    S    
N1    N3    A    
N2    N4    A    
C1    O3    A    
C14   O8    A    
C28   N1    A    
C17   C19   A    
C18   C20   A    
C23   C25   A    
C9    C12   S    
C10   C11   S    
C36   C37   A    
C16   C18   A    
C38   C39   A    
C34   H11   S    
Cu2   N6    S    
