data_mof_unit_19387.cif
_audit_creation_date              2012-12-11T14:04:01-0500
_audit_creation_method            fapswitch 2.2
_symmetry_space_group_name_H-M    P1
_symmetry_Int_Tables_number       1
_space_group_crystal_system       triclinic
_cell_length_a                    18.963831
_cell_length_b                    10.965326
_cell_length_c                    19.059668
_cell_angle_alpha                 89.819417
_cell_angle_beta                  89.413939
_cell_angle_gamma                 90.179878
_cell_volume                      3963.10787715

loop_
_atom_site_label
_atom_site_type_symbol
_atom_type_description
_atom_site_fract_x
_atom_site_fract_y
_atom_site_fract_z
_atom_type_partial_charge
C1    C     C_R   0.223996 0.524801 0.640205 0.559313
C2    C     C_R   0.776180 0.524845 0.359579 0.558619
C3    C     C_R   0.723996 0.024801 0.640205 0.558933
C4    C     C_R   0.276180 0.024846 0.359579 0.558114
C5    C     C_2   0.287059 0.867111 0.536247 0.326291
C6    C     C_2   0.713136 0.866475 0.463959 0.327038
C7    C     C_2   0.787084 0.367140 0.536257 0.325800
C8    C     C_2   0.213140 0.366468 0.463960 0.327233
C9    C     C_R   0.985474 0.656505 0.429043 -0.015353
C10   C     C_R   0.015016 0.656611 0.570711 -0.017802
C11   C     C_R   0.485460 0.156509 0.429048 -0.015189
C12   C     C_R   0.515007 0.156611 0.570715 -0.018524
C13   C     C_R   0.012487 0.879891 0.427497 -0.055700
C14   C     C_R   0.988124 0.879678 0.571534 -0.055486
C15   C     C_R   0.512465 0.379900 0.427507 -0.055601
C16   C     C_R   0.488107 0.379675 0.571545 -0.055369
C17   C     C_R   0.008839 0.989680 0.463737 -0.058529
C18   C     C_R   0.991580 0.989519 0.534904 -0.058806
C19   C     C_R   0.508815 0.489686 0.463750 -0.058662
C20   C     C_R   0.491558 0.489519 0.534918 -0.058492
C21   C     C_R   0.000176 0.768140 0.536418 -0.004963
C22   C     C_R   0.000442 0.768163 0.462979 -0.003781
C23   C     C_R   0.500161 0.268140 0.536425 -0.005270
C24   C     C_R   0.500424 0.268167 0.462986 -0.003808
C25   C     C_R   0.017150 0.545652 0.531594 0.002601
C26   C     C_R   0.983275 0.545504 0.468466 0.003410
C27   C     C_R   0.517138 0.045653 0.531597 0.002314
C28   C     C_R   0.483260 0.045508 0.468470 0.003451
C29   C     C_R   0.048266 0.433133 0.552613 -0.070671
C30   C     C_R   0.952150 0.432681 0.447745 -0.069897
C31   C     C_R   0.548254 0.933132 0.552613 -0.070361
C32   C     C_R   0.452132 0.932689 0.447750 -0.069923
C33   C     C_R   0.026958 0.322816 0.524544 -0.071928
C34   C     C_R   0.973548 0.322544 0.476083 -0.071890
C35   C     C_R   0.526939 0.822817 0.524547 -0.071402
C36   C     C_R   0.473526 0.822550 0.476089 -0.072002
C37   C     C_2   0.238398 0.897017 0.928230 -0.060405
C38   C     C_2   0.762054 0.896474 0.071518 -0.067539
C39   C     C_2   0.752995 0.422529 0.918549 -0.061681
C40   C     C_2   0.261924 0.397151 0.071682 -0.058249
C41   C     C_2   0.249348 0.903348 0.083515 -0.160929
C42   C     C_2   0.749967 0.900890 0.916305 -0.153800
C43   C     C_2   0.755874 0.437324 0.073942 -0.145264
C44   C     C_2   0.249927 0.401526 0.916469 -0.161847
C45   C     C_R   0.227807 0.877181 0.649192 0.591248
C46   C     C_R   0.772172 0.877106 0.350783 0.590161
C47   C     C_R   0.727807 0.377182 0.649192 0.593111
C48   C     C_R   0.272172 0.377106 0.350782 0.589442
C49   C     C_2   0.191076 0.928904 0.047642 -0.121638
C50   C     C_2   0.809402 0.919998 0.951558 -0.117582
C51   C     C_2   0.727836 0.521159 0.030448 -0.109423
C52   C     C_2   0.309256 0.421359 0.951775 -0.114022
C53   C     C_2   0.183206 0.903422 0.973404 0.333681
C54   C     C_2   0.816527 0.889699 0.025531 0.345203
C55   C     C_2   0.714340 0.500491 0.956356 0.342845
C56   C     C_2   0.316463 0.391194 0.025723 0.348163
C57   C     C_2   0.039884 0.654864 0.931833 -0.043431
C58   C     C_2   0.014012 0.664040 0.085205 -0.082893
C59   C     C_2   0.541746 0.155922 0.932043 -0.093224
C60   C     C_2   0.514115 0.163772 0.085251 -0.083178
C61   C     C_2   0.035647 0.564471 0.050308 -0.163484
C62   C     C_2   0.059994 0.567843 0.976857 -0.165127
C63   C     C_2   0.535290 0.063990 0.050197 -0.160673
C64   C     C_2   0.559503 0.066697 0.976646 -0.169880
C65   C     C_R   0.034828 0.653514 0.643436 0.540464
C66   C     C_R   0.965421 0.653467 0.356424 0.529663
C67   C     C_R   0.534826 0.153514 0.643437 0.540268
C68   C     C_R   0.465414 0.153467 0.356428 0.529514
C69   C     C_R   0.238637 0.464711 0.850390 0.556578
C70   C     C_R   0.762537 0.470943 0.147309 0.566189
C71   C     C_R   0.738656 0.964581 0.850353 0.558768
C72   C     C_R   0.261170 0.964894 0.149778 0.569179
C73   C     C_R   0.224909 0.868154 0.855169 0.570376
C74   C     C_R   0.774977 0.868615 0.144873 0.578125
C75   C     C_R   0.727762 0.374089 0.852415 0.565909
C76   C     C_R   0.274907 0.368844 0.144958 0.580752
C77   C     C_R   0.060623 0.647830 0.858270 0.578969
C78   C     C_R   0.972150 0.652718 0.149792 0.578908
C79   C     C_R   0.561195 0.147892 0.858141 0.559963
C80   C     C_R   0.472171 0.152674 0.149807 0.583270
C81   C     C_2   0.248884 0.931157 0.582925 0.367706
C82   C     C_2   0.751058 0.930994 0.416856 0.366943
C83   C     C_2   0.748875 0.431154 0.582922 0.368146
C84   C     C_2   0.251055 0.430994 0.416856 0.366938
C85   C     C_2   0.274182 0.004505 0.434403 -0.097353
C86   C     C_2   0.726285 0.004229 0.565416 -0.100995
C87   C     C_2   0.774185 0.504509 0.434405 -0.097799
C88   C     C_2   0.226284 0.504226 0.565416 -0.100473
C89   C     C_2   0.284205 0.892849 0.460999 -0.112271
C90   C     C_2   0.715850 0.892560 0.539164 -0.111030
C91   C     C_2   0.784233 0.392863 0.461006 -0.112239
C92   C     C_2   0.215855 0.392554 0.539165 -0.111307
Cr1   Cr    Cr6+3 0.113970 0.508630 0.747920 1.025940
Cr2   Cr    Cr6+3 0.886030 0.508630 0.252080 1.028756
Cr3   Cr    Cr6+3 0.613970 0.008630 0.747920 1.039504
Cr4   Cr    Cr6+3 0.386030 0.008630 0.252080 1.029503
Cr5   Cr    Cr6+3 0.269200 0.666740 0.749850 1.067136
Cr6   Cr    Cr6+3 0.730800 0.666740 0.250150 1.064344
Cr7   Cr    Cr6+3 0.769200 0.166740 0.749850 1.061894
Cr8   Cr    Cr6+3 0.230800 0.166740 0.250150 1.063451
Cr9   Cr    Cr6+3 0.112300 0.820070 0.749800 1.073877
Cr10  Cr    Cr6+3 0.887700 0.820070 0.250200 1.069278
Cr11  Cr    Cr6+3 0.612300 0.320070 0.749800 1.070788
Cr12  Cr    Cr6+3 0.387700 0.320070 0.250200 1.072226
H1    H     H_    0.292771 0.816042 0.426032 0.191809
H2    H     H_    0.706808 0.815862 0.574443 0.193809
H3    H     H_    0.792822 0.316056 0.426044 0.191958
H4    H     H_    0.206818 0.315854 0.574446 0.192806
H5    H     H_    0.291850 0.850074 0.060599 0.106229
H6    H     H_    0.706416 0.849891 0.939643 0.127776
H7    H     H_    0.776268 0.350623 0.055614 0.089189
H8    H     H_    0.206448 0.350388 0.939821 0.100048
H9    H     H_    0.031548 0.474900 0.074541 0.161347
H10   H     H_    0.090133 0.490348 0.957793 0.135707
H11   H     H_    0.530559 0.974403 0.074310 0.164716
H12   H     H_    0.587291 0.986970 0.957100 0.147679
H13   H     H_    0.021522 0.754656 0.063254 0.174342
H14   H     H_    0.008227 0.731873 0.948684 0.181061
H15   H     H_    0.521997 0.254442 0.063577 0.153843
H16   H     H_    0.512880 0.235784 0.949384 0.152296
H17   H     H_    0.270788 0.085105 0.466698 0.201771
H18   H     H_    0.730254 0.084817 0.532868 0.201978
H19   H     H_    0.770766 0.585109 0.466698 0.201768
H20   H     H_    0.230241 0.584815 0.532865 0.202029
H21   H     H_    0.017624 0.074244 0.435800 0.131635
H22   H     H_    0.982571 0.073887 0.562542 0.132410
H23   H     H_    0.517597 0.574252 0.435815 0.131863
H24   H     H_    0.482548 0.573884 0.562557 0.133094
H25   H     H_    0.025753 0.884190 0.372320 0.143255
H26   H     H_    0.974864 0.883790 0.626693 0.147524
H27   H     H_    0.525731 0.384206 0.372331 0.144000
H28   H     H_    0.474849 0.383780 0.626704 0.148064
H29   H     H_    0.911282 0.425400 0.410114 0.167841
H30   H     H_    0.089059 0.426251 0.590295 0.167308
H31   H     H_    0.411265 0.925413 0.410118 0.167927
H32   H     H_    0.589052 0.926248 0.590291 0.167219
H33   H     H_    0.050325 0.238870 0.542602 0.150907
H34   H     H_    0.950244 0.238334 0.458263 0.150062
H35   H     H_    0.550305 0.738867 0.542604 0.151547
H36   H     H_    0.450218 0.738341 0.458270 0.150074
H37   H     H_    0.147303 0.976495 0.072453 0.184924
H38   H     H_    0.854341 0.964713 0.926580 0.185627
H39   H     H_    0.708718 0.607596 0.050861 0.174892
H40   H     H_    0.354117 0.466325 0.926804 0.184191
O1    O     O_R   0.043230 0.549300 0.667990 -0.531516
O2    O     O_R   0.956770 0.549300 0.332010 -0.539378
O3    O     O_R   0.543230 0.049300 0.667990 -0.531069
O4    O     O_R   0.456770 0.049300 0.332010 -0.539417
O5    O     O_R   0.262920 0.788600 0.824420 -0.516384
O6    O     O_R   0.737080 0.788600 0.175580 -0.521649
O7    O     O_R   0.762920 0.288600 0.824420 -0.523456
O8    O     O_R   0.237080 0.288600 0.175580 -0.515028
O9    O     O_R   0.167530 0.905110 0.830340 -0.442405
O10   O     O_R   0.832470 0.905110 0.169660 -0.445510
O11   O     O_R   0.667530 0.405110 0.830340 -0.434556
O12   O     O_R   0.332470 0.405110 0.169660 -0.446527
O13   O     O_R   0.054010 0.748440 0.822860 -0.457827
O14   O     O_R   0.945990 0.748440 0.177140 -0.453004
O15   O     O_R   0.554010 0.248440 0.822860 -0.483994
O16   O     O_R   0.445990 0.248440 0.177140 -0.451483
O17   O     O_3   0.165160 0.665150 0.749190 -0.320714
O18   O     O_3   0.834840 0.665150 0.250810 -0.296990
O19   O     O_3   0.665160 0.165150 0.749190 -0.322959
O20   O     O_3   0.334840 0.165150 0.250810 -0.295363
O21   O     O_R   0.178620 0.457600 0.674100 -0.530392
O22   O     O_R   0.821380 0.457600 0.325900 -0.531612
O23   O     O_R   0.678620 0.957600 0.674100 -0.527870
O24   O     O_R   0.321380 0.957600 0.325900 -0.532895
O25   O     O_R   0.284680 0.542100 0.669460 -0.449153
O26   O     O_R   0.715320 0.542100 0.330540 -0.452945
O27   O     O_R   0.784680 0.042100 0.669460 -0.448721
O28   O     O_R   0.215320 0.042100 0.330540 -0.455108
O29   O     O_R   0.262860 0.790390 0.676650 -0.487932
O30   O     O_R   0.737140 0.790390 0.323350 -0.491658
O31   O     O_R   0.762860 0.290390 0.676650 -0.488702
O32   O     O_R   0.237140 0.290390 0.323350 -0.492459
O33   O     O_R   0.167460 0.907030 0.670940 -0.483858
O34   O     O_R   0.832540 0.907030 0.329060 -0.485661
O35   O     O_R   0.667460 0.407030 0.670940 -0.478994
O36   O     O_R   0.332540 0.407030 0.329060 -0.485909
O37   O     O_R   0.053950 0.750220 0.675100 -0.514961
O38   O     O_R   0.946050 0.750220 0.324900 -0.522752
O39   O     O_R   0.553950 0.250220 0.675100 -0.513159
O40   O     O_R   0.446050 0.250220 0.324900 -0.522881
O41   O     O_R   0.043300 0.547370 0.827390 -0.505237
O42   O     O_R   0.956700 0.547370 0.172610 -0.514811
O43   O     O_R   0.543300 0.047370 0.827390 -0.488141
O44   O     O_R   0.456700 0.047370 0.172610 -0.515138
O45   O     O_R   0.178690 0.455820 0.821860 -0.505142
O46   O     O_R   0.821310 0.455820 0.178140 -0.480638
O47   O     O_R   0.678690 0.955820 0.821860 -0.496000
O48   O     O_R   0.321310 0.955820 0.178140 -0.481434
O49   O     O_R   0.284750 0.540170 0.828860 -0.508237
O50   O     O_R   0.715250 0.540170 0.171140 -0.510343
O51   O     O_R   0.784750 0.040170 0.828860 -0.511168
O52   O     O_R   0.215250 0.040170 0.171140 -0.515067
F1    F     F_    0.115576 0.895619 0.950601 -0.628803
F2    F     F_    0.882885 0.863544 0.047530 -0.619837
F3    F     F_    0.659009 0.561100 0.927752 -0.605690
F4    F     F_    0.382927 0.365631 0.047676 -0.621371
H41   H     H_    0.292553 0.902720 0.945780 0.050351
H42   H     H_    0.708597 0.914986 0.054752 0.025235
H43   H     H_    0.800299 0.382209 0.940247 0.054104
H44   H     H_    0.208411 0.415260 0.054927 0.024946
F5    F     F_    0.319582 0.761898 0.555484 -0.643661
F6    F     F_    0.680854 0.760625 0.445212 -0.643556
F7    F     F_    0.819641 0.261964 0.555507 -0.643748
F8    F     F_    0.180867 0.260609 0.445216 -0.643602
F9    F     F_    0.211380 0.031215 0.563558 -0.663021
F10   F     F_    0.788325 0.031856 0.435592 -0.665438
F11   F     F_    0.711329 0.531156 0.563533 -0.661846
F12   F     F_    0.288313 0.531867 0.435587 -0.665535

loop_
_geom_bond_atom_site_label_1
_geom_bond_atom_site_label_2
_ccdc_geom_bond_type
Cr2   O2    S    
C7    C83   D    
C59   H16   S    
C6    C82   D    
C87   C91   D    
Cr8   O28   S    
C77   O41   A    
C14   C18   A    
C81   F9    S    
C35   C36   A    
C88   H20   S    
C57   C77   S    
Cr11  O15   S    
Cr2   O22   S    
C3    O23   A    
C57   C62   D    
C65   O37   A    
Cr8   O8    S    
C15   C19   A    
C12   C23   A    
C74   O10   A    
C59   C64   D    
C50   C54   S    
C79   O43   A    
C60   C63   D    
Cr11  O39   S    
C32   C36   A    
C14   C21   A    
C62   H10   S    
C39   H43   S    
C79   O15   A    
Cr6   O30   S    
C43   C51   D    
C9    C22   A    
C80   O16   A    
Cr7   O27   S    
C76   O8    A    
C29   C33   A    
C11   C24   A    
Cr5   O25   S    
Cr6   O50   S    
C60   H15   S    
Cr5   O49   S    
C8    F8    S    
C46   O34   A    
C9    C66   S    
C47   O35   A    
C35   H35   S    
C5    C81   D    
C46   C82   S    
C52   C56   S    
C78   O14   A    
C69   O49   A    
C39   C55   D    
C88   C92   D    
C33   H33   S    
C40   C56   D    
C49   H37   S    
Cr8   O32   S    
C23   C24   A    
C46   O30   A    
Cr1   O1    S    
C78   O42   A    
C39   C75   S    
Cr10  O10   S    
C51   C55   S    
C68   O4    A    
C70   O50   A    
C63   H11   S    
C44   C52   D    
C58   C61   D    
C29   H30   S    
C66   O38   A    
Cr1   O21   S    
C40   C76   S    
C41   H5    S    
C21   C22   A    
C3    C86   S    
Cr10  O14   S    
C61   C62   S    
C43   H7    S    
Cr12  O16   S    
C41   C49   D    
Cr6   O18   S    
C5    F5    S    
C92   H4    S    
C9    C26   A    
C17   C18   A    
C17   H21   S    
Cr8   O52   S    
C10   C21   A    
C25   C29   A    
Cr4   O4    S    
C12   C67   S    
C55   F3    S    
Cr5   O29   S    
C30   C34   A    
C12   C27   A    
Cr3   O43   S    
C37   C73   S    
Cr10  O38   S    
C91   H3    S    
C28   C32   A    
Cr3   O3    S    
C90   H2    S    
C7    F7    S    
C86   C90   D    
C59   C79   S    
C85   C89   D    
C11   C68   S    
C82   F10   S    
C4    C85   S    
C38   C74   S    
C25   C26   A    
C6    C90   S    
C27   C31   A    
C64   H12   S    
C76   O12   A    
C58   H13   S    
C47   C83   S    
C4    O24   A    
C75   O7    A    
Cr2   O46   S    
C40   H44   S    
C83   F11   S    
C45   O29   A    
C48   C84   S    
C71   O51   A    
C38   C54   D    
Cr9   O9    S    
C16   C20   A    
C30   H29   S    
C7    C91   S    
Cr4   O24   S    
C33   C34   A    
C80   O44   A    
Cr7   O31   S    
C2    C87   S    
Cr8   O20   S    
C52   H40   S    
Cr12  O12   S    
C85   H17   S    
C36   H36   S    
C37   H41   S    
C67   O39   A    
C42   C50   D    
C41   C72   S    
C8    C92   S    
C44   H8    S    
C10   C25   A    
Cr11  O11   S    
C15   C24   A    
Cr12  O40   S    
C2    O26   A    
Cr1   O17   S    
C26   C30   A    
C43   C70   S    
Cr1   O45   S    
C61   H9    S    
Cr10  O34   S    
Cr7   O19   S    
Cr7   O51   S    
C65   O1    A    
C48   O36   A    
C66   O2    A    
Cr9   O37   S    
Cr10  O18   S    
C70   O46   A    
Cr6   O6    S    
C10   C65   S    
C14   H26   S    
C2    O22   A    
C60   C80   S    
Cr5   O5    S    
Cr3   O47   S    
C4    O28   A    
C73   O5    A    
C1    O21   A    
C8    C84   D    
Cr11  O19   S    
C45   C81   S    
Cr2   O42   S    
C31   H32   S    
C69   O45   A    
Cr3   O23   S    
C72   O52   A    
C32   H31   S    
C84   F12   S    
C75   O11   A    
C20   H24   S    
C13   H25   S    
C45   O33   A    
C16   C23   A    
Cr5   O17   S    
C54   F2    S    
C13   C17   A    
Cr3   O19   S    
C53   F1    S    
C89   H1    S    
Cr4   O48   S    
C19   C20   A    
Cr9   O17   S    
C42   H6    S    
C68   O40   A    
C37   C53   D    
C18   H22   S    
C87   H19   S    
C3    O27   A    
Cr12  O20   S    
Cr12  O36   S    
Cr7   O7    S    
C11   C28   A    
C1    C88   S    
C49   C53   S    
C31   C35   A    
C1    O25   A    
C42   C71   S    
C34   H34   S    
C13   C22   A    
Cr11  O35   S    
C51   H39   S    
C86   H18   S    
C16   H28   S    
C47   O31   A    
C6    F6    S    
Cr9   O33   S    
C58   C78   S    
Cr9   O13   S    
C63   C64   S    
Cr6   O26   S    
Cr4   O20   S    
C15   H27   S    
C57   H14   S    
C38   H42   S    
C67   O3    A    
C73   O9    A    
C27   C28   A    
C44   C69   S    
C74   O6    A    
C19   H23   S    
C71   O47   A    
Cr4   O44   S    
C72   O48   A    
C5    C89   S    
Cr2   O18   S    
C50   H38   S    
C77   O13   A    
C48   O32   A    
C56   F4    S    
Cr1   O41   S    
