data_mof_unit_29129.cif
_audit_creation_date              2012-12-11T15:37:07-0500
_audit_creation_method            fapswitch 2.2
_symmetry_space_group_name_H-M    P1
_symmetry_Int_Tables_number       1
_space_group_crystal_system       triclinic
_cell_length_a                    15.040375
_cell_length_b                    15.05979
_cell_length_c                    34.819126
_cell_angle_alpha                 91.033676
_cell_angle_beta                  91.673638
_cell_angle_gamma                 60.103106
_cell_volume                      6834.1977728

loop_
_atom_site_label
_atom_site_type_symbol
_atom_type_description
_atom_site_fract_x
_atom_site_fract_y
_atom_site_fract_z
_atom_type_partial_charge
C1    C     C_R   0.610258 0.304029 0.443452 0.589731
C2    C     C_R   0.623913 0.093861 0.765123 -0.081044
C3    C     C_R   0.036193 0.782230 0.877011 -0.147041
C4    C     C_R   0.052942 0.767837 0.838053 -0.144265
C5    C     C_R   0.096626 0.669867 0.821989 -0.024871
C6    C     C_R   0.130003 0.583016 0.845750 0.038164
C7    C     C_R   0.114804 0.597538 0.885953 0.032335
C8    C     C_R   0.209167 0.607380 0.765677 -0.046835
C9    C     C_R   0.223179 0.606774 0.726496 -0.066080
C10   C     C_R   0.139042 0.661813 0.701378 -0.015470
C11   C     C_R   0.038512 0.716245 0.715700 0.027476
C12   C     C_R   0.025540 0.714969 0.755389 -0.065070
C13   C     C_R   0.585331 0.178417 0.790253 0.047808
C14   C     C_R   0.647528 0.720205 0.160468 0.058586
C15   C     C_R   0.110534 0.661633 0.780280 0.020635
C16   C     C_R   0.224712 0.698404 0.649755 -0.126802
C17   C     C_R   0.261583 0.681673 0.612779 -0.135047
C18   C     C_R   0.163054 0.597232 0.595794 0.010099
C19   C     C_R   0.127803 0.613325 0.633565 -0.086350
C20   C     C_R   0.160798 0.661156 0.660624 -0.028477
C21   C     C_R   0.235408 0.626995 0.586046 -0.009437
C22   C     C_R   0.668752 0.085004 0.907238 -0.011615
C23   C     C_R   0.598432 0.063644 0.887645 -0.170967
C24   C     C_R   0.570400 0.175428 0.641289 -0.128571
C25   C     C_R   0.562230 0.100420 0.850494 0.024961
C26   C     C_2   0.553342 0.779002 0.096027 0.312486
C27   C     C_2   0.818408 0.533685 0.440179 0.251594
C28   C     C_2   0.875009 0.126032 0.093763 0.581890
C29   C     C_2   0.539240 0.100009 0.341979 0.627259
C30   C     C_2   0.884971 0.562538 0.365227 0.217912
C31   C     C_2   0.851653 0.966629 0.217813 0.250867
C32   C     C_2   0.746136 0.322524 0.387020 0.592442
C33   C     C_2   0.515050 0.179089 0.420291 0.618047
C34   C     C_2   0.830213 0.510670 0.932041 0.640843
C35   C     C_R   0.830635 0.661747 0.165165 -0.098771
C36   C     C_2   0.468832 0.655305 0.723386 0.221391
C37   C     C_2   0.799110 0.458508 0.850567 0.264728
C38   C     C_2   0.151688 0.508139 0.911948 0.652828
C39   C     C_2   0.947907 0.777731 0.690125 0.220420
C40   C     C_2   0.178321 0.478477 0.828497 0.604492
C41   C     C_2   0.554701 0.731918 0.179441 0.276186
C42   C     C_2   0.123198 0.550619 0.567135 0.256630
C43   C     C_2   0.757719 0.191521 0.911246 0.601187
C44   C     C_2   0.501155 0.372284 0.799685 0.554559
C45   C     C_2   0.486194 0.076314 0.832252 0.236241
C46   C     C_R   0.576894 0.193248 0.602272 0.009312
C47   C     C_2   0.540050 0.144809 0.573450 0.240517
C48   C     C_2   0.655928 0.880414 0.230427 0.565567
C49   C     C_R   0.661107 0.290252 0.621252 -0.144199
C50   C     C_R   0.654035 0.272102 0.659679 -0.123207
C51   C     C_R   0.606341 0.216959 0.670013 0.022449
C52   C     C_R   0.619563 0.254829 0.592170 0.046144
C53   C     C_R   0.045619 0.738918 0.048567 0.543560
C54   C     C_R   0.738544 0.688625 0.182839 0.010769
C55   C     C_R   0.747010 0.745691 0.063870 0.524227
C56   C     C_R   0.750621 0.041048 0.050724 0.568917
C57   C     C_R   0.017791 0.722049 0.939767 0.564685
C58   C     C_R   0.716886 0.729826 0.954983 0.550035
C59   C     C_R   0.832715 0.672926 0.125859 -0.127541
C60   C     C_R   0.720376 0.026471 0.942498 0.567210
C61   C     C_R   0.777995 0.590620 0.243049 -0.138675
C62   C     C_R   0.769761 0.584861 0.282532 -0.078493
C63   C     C_R   0.722943 0.674388 0.304757 0.049251
C64   C     C_R   0.687716 0.769748 0.287297 -0.095872
C65   C     C_R   0.600525 0.156972 0.831973 0.045351
C66   C     C_R   0.695899 0.777022 0.247547 0.052220
C67   C     C_R   0.738977 0.685907 0.225156 -0.026398
C68   C     C_R   0.594531 0.719523 0.354114 -0.124751
C69   C     C_R   0.594036 0.611290 0.449850 0.609727
C70   C     C_R   0.563230 0.704081 0.389086 -0.120830
C71   C     C_R   0.741468 0.592354 0.409365 0.001399
C72   C     C_R   0.773723 0.607397 0.373148 0.006167
C73   C     C_R   0.698364 0.669055 0.345124 0.043637
C74   C     C_R   0.634790 0.637713 0.416364 0.064248
C75   C     C_R   0.102180 0.728233 0.085059 0.016337
C76   C     C_R   0.665778 0.183509 0.852377 -0.101385
C77   C     C_R   0.148540 0.633975 0.104368 -0.114744
C78   C     C_R   0.171294 0.629650 0.143540 -0.118364
C79   C     C_R   0.149314 0.719129 0.163915 0.025582
C80   C     C_R   0.113743 0.811284 0.143996 -0.086740
C81   C     C_R   0.303520 0.591762 0.442447 0.536909
C82   C     C_R   0.090315 0.815836 0.104685 -0.106287
C83   C     C_R   0.206817 0.755916 0.227301 -0.084042
C84   C     C_R   0.213326 0.748588 0.267332 -0.094657
C85   C     C_R   0.164065 0.704457 0.286772 0.039027
C86   C     C_R   0.105363 0.671176 0.265427 -0.066224
C87   C     C_R   0.697114 0.151884 0.890309 0.043440
C88   C     C_R   0.100446 0.676883 0.225500 -0.068127
C89   C     C_R   0.152515 0.717638 0.206159 0.039988
C90   C     C_R   0.196968 0.591522 0.343399 -0.094323
C91   C     C_R   0.229229 0.564753 0.381447 -0.102591
C92   C     C_R   0.226329 0.725746 0.391432 -0.119798
C93   C     C_R   0.605892 0.300190 0.553728 0.594966
C94   C     C_R   0.193141 0.752947 0.353393 -0.106417
C95   C     C_R   0.181838 0.684429 0.328589 0.031858
C96   C     C_R   0.248141 0.629802 0.405397 0.018317
C97   C     C_R   0.721440 0.097883 0.087754 0.006676
C98   C     C_R   0.546782 0.278415 0.775221 0.065151
C99   C     C_R   0.789594 0.118127 0.110386 0.042689
C100  C     C_R   0.775258 0.131988 0.150252 -0.140034
C101  C     C_R   0.692887 0.129956 0.167191 -0.011285
C102  C     C_R   0.618457 0.124861 0.144008 -0.095032
C103  C     C_R   0.632056 0.109891 0.104737 -0.123366
C104  C     C_R   0.594569 0.213984 0.225081 -0.135419
C105  C     C_R   0.587909 0.606455 0.558995 0.554948
C106  C     C_R   0.582364 0.222073 0.264603 -0.075600
C107  C     C_R   0.658339 0.149168 0.288873 0.031580
C108  C     C_R   0.746288 0.066958 0.273425 -0.055709
C109  C     C_R   0.552490 0.289478 0.735569 -0.114214
C110  C     C_R   0.759616 0.057161 0.233492 0.045849
C111  C     C_R   0.683405 0.133371 0.209199 -0.008050
C112  C     C_R   0.710453 0.217294 0.343031 -0.144359
C113  C     C_R   0.698118 0.258773 0.379691 0.042371
C114  C     C_R   0.581335 0.194488 0.393640 0.001344
C115  C     C_R   0.591695 0.156736 0.355368 0.043894
C116  C     C_R   0.654737 0.171335 0.330144 -0.053520
C117  C     C_R   0.296360 0.589977 0.551153 0.513871
C118  C     C_R   0.632177 0.249171 0.405750 -0.045974
C119  C     C_R   0.690191 0.690443 0.919634 -0.013633
C120  C     C_R   0.593819 0.204089 0.710960 -0.001064
C121  C     C_R   0.753170 0.589026 0.905681 0.062594
C122  C     C_R   0.740138 0.564477 0.866871 -0.001059
C123  C     C_R   0.665109 0.643022 0.843043 -0.030713
C124  C     C_R   0.597307 0.738691 0.858596 -0.131938
C125  C     C_R   0.609047 0.761845 0.896368 -0.144084
C126  C     C_R   0.570688 0.647689 0.782319 -0.057448
C127  C     C_R   0.563858 0.644550 0.742041 0.045893
C128  C     C_R   0.649213 0.628195 0.720315 -0.013959
C129  C     C_R   0.742098 0.714116 0.103335 -0.025653
C130  C     C_R   0.740005 0.610836 0.739296 -0.102625
C131  C     C_R   0.627117 0.106634 0.725819 -0.095302
C132  C     C_R   0.745982 0.612559 0.779253 -0.116928
C133  C     C_R   0.661257 0.631546 0.800935 -0.028828
C134  C     C_R   0.713683 0.542609 0.657201 -0.117770
C135  C     C_R   0.701125 0.538673 0.617468 -0.112976
C136  C     C_R   0.556875 0.711985 0.618505 -0.123226
C137  C     C_R   0.570223 0.716151 0.658177 -0.120577
C138  C     C_R   0.645282 0.629620 0.677937 0.009420
C139  C     C_R   0.619311 0.621470 0.598023 0.028405
C140  C     C_R   0.062459 0.698860 0.901149 -0.015119
C141  C     C_R   0.648510 0.736460 0.120328 0.025313
Cr1   Cr    Cr6+3 0.426010 0.422500 0.497000 1.090406
Cr2   Cr    Cr6+3 0.651300 0.426310 0.501970 1.103565
Cr3   Cr    Cr6+3 0.422670 0.651170 0.501050 1.033902
Cr4   Cr    Cr6+3 0.905130 0.911420 0.992650 1.083009
Cr5   Cr    Cr6+3 0.911860 0.682710 0.002320 1.081184
Cr6   Cr    Cr6+3 0.682710 0.906840 0.004710 1.045286
H1    H     H_    0.481584 0.740080 0.393846 0.137848
H2    H     H_    0.904826 0.655976 0.113472 0.138733
H3    H     H_    0.055977 0.649288 0.209609 0.104195
H4    H     H_    0.190073 0.536380 0.325040 0.123435
H5    H     H_    0.245437 0.490236 0.391317 0.158745
H6    H     H_    0.096605 0.881063 0.159328 0.151152
H7    H     H_    0.239405 0.777879 0.409340 0.135402
H8    H     H_    0.576028 0.099096 0.088184 0.152030
H9    H     H_    0.515488 0.287508 0.276441 0.143951
H10   H     H_    0.535651 0.272353 0.206792 0.125591
H11   H     H_    0.828924 0.142993 0.168338 0.146576
H12   H     H_    0.900694 0.635499 0.182176 0.120628
H13   H     H_    0.805044 0.011993 0.292745 0.169905
H14   H     H_    0.758023 0.228429 0.322983 0.146982
H15   H     H_    0.552613 0.126514 0.156614 0.141095
H16   H     H_    0.558949 0.839352 0.906285 0.141039
H17   H     H_    0.518449 0.784873 0.673778 0.127488
H18   H     H_    0.795758 0.510844 0.295533 0.126203
H19   H     H_    0.505770 0.662140 0.799455 0.161791
H20   H     H_    0.805761 0.598057 0.723047 0.149081
H21   H     H_    0.815931 0.601632 0.793320 0.144505
H22   H     H_    0.773124 0.475739 0.672010 0.122059
H23   H     H_    0.159550 0.565004 0.089937 0.140507
H24   H     H_    0.751151 0.468191 0.602467 0.139096
H25   H     H_    0.538781 0.798415 0.840604 0.130728
H26   H     H_    0.493767 0.777365 0.604321 0.137925
H27   H     H_    0.996978 0.860148 0.887831 0.157408
H28   H     H_    0.811137 0.520827 0.226101 0.128301
H29   H     H_    0.076904 0.586289 0.642377 0.166412
H30   H     H_    0.300352 0.564288 0.715667 0.153852
H31   H     H_    0.275311 0.567179 0.784734 0.160580
H32   H     H_    0.029744 0.834211 0.820065 0.140394
H33   H     H_    0.949573 0.757401 0.767273 0.153503
H34   H     H_    0.054654 0.889495 0.090545 0.170551
H35   H     H_    0.250390 0.735679 0.670566 0.152448
H36   H     H_    0.316474 0.705437 0.605990 0.137162
H37   H     H_    0.574275 0.014685 0.900841 0.119802
H38   H     H_    0.683872 0.303233 0.681479 0.122379
H39   H     H_    0.524667 0.364971 0.723554 0.150416
H40   H     H_    0.659895 0.039878 0.707234 0.156728
H41   H     H_    0.655355 0.016952 0.776242 0.130053
H42   H     H_    0.535598 0.130651 0.649390 0.109482
H43   H     H_    0.652041 0.838470 0.304841 0.184766
H44   H     H_    0.693084 0.228756 0.838301 0.158315
H45   H     H_    0.179807 0.826057 0.343043 0.123139
H46   H     H_    0.693635 0.337878 0.614450 0.125279
H47   H     H_    0.536456 0.766791 0.332931 0.124033
H48   H     H_    0.556835 0.753206 0.066516 0.114008
H49   H     H_    0.889828 0.465245 0.433524 0.086257
H50   H     H_    0.924952 0.174505 0.050009 0.348736
H51   H     H_    0.441568 0.089484 0.303770 0.360072
H52   H     H_    0.942053 0.492601 0.379056 0.090739
H53   H     H_    0.858150 0.950817 0.187216 0.130978
H54   H     H_    0.875682 0.331165 0.388588 0.320191
H55   H     H_    0.502507 0.125219 0.471025 0.367518
H56   H     H_    0.260427 0.773567 0.282863 0.105979
H57   H     H_    0.857061 0.430659 0.980944 0.345047
H58   H     H_    0.467078 0.637083 0.693206 0.102262
H59   H     H_    0.776234 0.440868 0.822943 0.125301
H60   H     H_    0.228449 0.439031 0.960867 0.347385
H61   H     H_    0.957314 0.786610 0.659943 0.128443
H62   H     H_    0.293826 0.331915 0.830425 0.381506
H63   H     H_    0.540468 0.755708 0.209264 0.099254
H64   H     H_    0.136693 0.551713 0.536775 0.136009
H65   H     H_    0.860316 0.240173 0.908536 0.380672
H66   H     H_    0.460680 0.521278 0.805096 0.347510
H67   H     H_    0.247133 0.787902 0.212775 0.138755
H68   H     H_    0.472865 0.018695 0.844889 0.099443
H69   H     H_    0.489695 0.116696 0.581991 0.104928
H70   H     H_    0.562758 0.032983 0.235820 0.354563
H71   H     H_    0.200527 0.557478 0.158427 0.112769
H72   H     H_    0.064522 0.639161 0.279538 0.141999
O1    O     O_R   0.324990 0.503440 0.453910 -0.507958
O2    O     O_R   0.675430 0.831160 0.051290 -0.506323
O3    O     O_R   0.698870 0.998880 0.039560 -0.506942
O4    O     O_R   0.522030 0.339050 0.458320 -0.469817
O5    O     O_R   0.811290 0.006780 0.950620 -0.479779
O6    O     O_R   0.980960 0.812920 0.953200 -0.508268
O7    O     O_R   0.001480 0.656720 0.955830 -0.467868
O8    O     O_R   0.809240 0.683250 0.968050 -0.476376
O9    O     O_R   0.652500 0.818540 0.967340 -0.518876
O10   O     O_R   0.677620 0.987170 0.961730 -0.502862
O11   O     O_3   0.833240 0.833660 0.999890 -0.268219
O12   O     O_R   0.639980 0.519500 0.542640 -0.494661
O13   O     O_R   0.676180 0.324490 0.458320 -0.474018
O14   O     O_R   0.643570 0.521510 0.464260 -0.433818
O15   O     O_R   0.504630 0.675350 0.460920 -0.524232
O16   O     O_R   0.339850 0.642450 0.459830 -0.504201
O17   O     O_R   0.321120 0.501280 0.538470 -0.520496
O18   O     O_R   0.518440 0.337050 0.536710 -0.458962
O19   O     O_R   0.672300 0.322330 0.542880 -0.522804
O20   O     O_2   0.471461 0.846418 0.108040 -0.442747
O21   O     O_2   0.803240 0.562771 0.473548 -0.469406
O22   O     O_2   0.955559 0.096069 0.112032 -0.542861
O23   O     O_R   0.500750 0.673190 0.545480 -0.517203
O24   O     O_R   0.861695 0.172546 0.058034 -0.637495
O25   O     O_2   0.552007 0.024992 0.359696 -0.486009
O26   O     O_R   0.474364 0.133131 0.309485 -0.684967
O27   O     O_2   0.914629 0.604575 0.343484 -0.490676
O28   O     O_2   0.921503 0.907545 0.239083 -0.515076
O29   O     O_2   0.692274 0.414085 0.393227 -0.539191
O30   O     O_R   0.852267 0.279198 0.384124 -0.688460
O31   O     O_2   0.426405 0.205262 0.410845 -0.495301
O32   O     O_R   0.554424 0.133918 0.456037 -0.625912
O33   O     O_2   0.921727 0.473540 0.926121 -0.419743
O34   O     O_R   0.336260 0.640450 0.538210 -0.500559
O35   O     O_R   0.797658 0.483455 0.964728 -0.676875
O36   O     O_2   0.391000 0.684174 0.741678 -0.527251
O37   O     O_2   0.872916 0.389357 0.867253 -0.431744
O38   O     O_2   0.131530 0.440317 0.904584 -0.421478
O39   O     O_R   0.208277 0.502805 0.945277 -0.666517
O40   O     O_2   0.861076 0.819957 0.702541 -0.526451
O41   O     O_2   0.139341 0.462035 0.799933 -0.490597
O42   O     O_R   0.268429 0.399068 0.844825 -0.616432
O43   O     O_2   0.495842 0.709971 0.162618 -0.466868
O44   O     O_2   0.073012 0.511824 0.577026 -0.486330
O45   O     O_3   0.499990 0.499990 0.500010 -0.273261
O46   O     O_2   0.747473 0.208619 0.945783 -0.455930
O47   O     O_R   0.823814 0.213138 0.891156 -0.676588
O48   O     O_2   0.469314 0.371563 0.831509 -0.465403
O49   O     O_R   0.493169 0.462759 0.785966 -0.718586
O50   O     O_2   0.435313 0.122103 0.803898 -0.482405
O51   O     O_2   0.568820 0.131528 0.540391 -0.469922
O52   O     O_2   0.684359 0.890318 0.199055 -0.525090
O53   O     O_R   0.585823 0.967368 0.250582 -0.700654
O54   O     O_R   0.834210 0.019400 0.034570 -0.457343
O55   O     O_R   0.002210 0.824620 0.031030 -0.500862
O56   O     O_R   0.024400 0.669340 0.039790 -0.513254
O57   O     O_R   0.830490 0.694950 0.045870 -0.495202

loop_
_geom_bond_atom_site_label_1
_geom_bond_atom_site_label_2
_ccdc_geom_bond_type
Cr1   O18   S    
Cr4   O11   S    
C101  C102  A    
C120  C131  A    
C85   C95   S    
C37   H59   S    
Cr1   O4    S    
C130  C132  A    
C19   C20   A    
C61   H28   S    
C104  H10   S    
C23   H37   S    
C104  C106  A    
C114  C115  A    
C40   O41   D    
C27   C71   S    
C80   H6    S    
C44   O49   S    
Cr4   O5    S    
C13   C65   S    
C77   C78   A    
C45   O50   D    
C112  H14   S    
C82   H34   S    
C33   C114  S    
C126  C127  A    
C65   C76   A    
C123  C133  S    
C105  O12   A    
C41   O43   D    
C27   H49   S    
C92   H7    S    
C43   O46   D    
Cr5   O57   S    
C33   O31   D    
C18   C42   S    
C31   C110  S    
C22   C60   S    
C7    C140  A    
Cr6   O11   S    
C86   C88   A    
C129  C141  A    
C106  C107  A    
H51   O26   S    
C115  C116  A    
C18   C21   A    
C46   C52   A    
C92   C96   A    
C35   C59   A    
C18   C19   A    
C46   C47   S    
C13   C98   A    
C33   O32   S    
C2    C13   A    
C128  C138  S    
C19   H29   S    
C31   H53   S    
C21   C117  S    
C34   O35   S    
C71   C74   A    
C91   C96   A    
C110  C111  A    
C44   C98   S    
C130  H20   S    
C7    C38   S    
C109  C120  A    
C94   C95   A    
C83   C84   A    
C48   O52   D    
C10   C20   S    
C16   C17   A    
C55   C129  S    
C134  H22   S    
Cr3   O23   S    
C70   C74   A    
C107  C108  A    
C81   O16   A    
C24   H42   S    
C53   C75   S    
C28   O24   S    
C135  H24   S    
C32   C113  S    
C26   C141  S    
C132  C133  A    
C9    C10   A    
C68   H47   S    
Cr6   O2    S    
C102  H15   S    
C137  C138  A    
C36   H58   S    
C57   O6    A    
C37   O37   D    
C24   C51   A    
Cr1   O17   S    
C30   H52   S    
C29   C115  S    
C14   C141  A    
H65   O47   S    
C98   C109  A    
Cr2   O12   S    
C60   O5    A    
C35   C54   A    
Cr2   O19   S    
C31   O28   D    
C102  C103  A    
Cr1   O45   S    
C56   C97   S    
C136  C139  A    
C26   H48   S    
C26   O20   D    
C112  C113  A    
C97   C99   A    
C27   O21   D    
C2    C131  A    
C44   O48   D    
C2    H41   S    
C59   H2    S    
C29   O26   S    
C83   C89   A    
C36   O36   D    
C79   C89   S    
C63   C64   A    
C117  O34   A    
C60   O10   A    
C123  C124  A    
C25   C65   A    
C84   C85   A    
C126  C133  A    
C43   O47   S    
C80   C82   A    
Cr5   O56   S    
C93   O18   A    
C81   C96   S    
C78   C79   A    
C8    C9    A    
C54   C67   S    
Cr5   O7    S    
C117  O17   A    
C50   C51   A    
C68   C73   A    
C85   C86   A    
C81   O1    A    
Cr4   O6    S    
C32   O30   S    
C17   C21   A    
C37   C122  S    
C57   C140  S    
C64   C66   A    
Cr4   O54   S    
C69   O15   A    
C62   C63   A    
C38   O39   S    
C100  H11   S    
C104  C111  A    
C94   H45   S    
H57   O35   S    
C40   O42   S    
C61   C67   A    
C3    H27   S    
C30   C72   S    
C99   C100  A    
H66   O49   S    
C12   C15   A    
C53   O56   A    
C93   O19   A    
C16   C20   A    
C49   C52   A    
C47   H69   S    
C92   C94   A    
C51   C120  S    
C55   O57   A    
C69   C74   S    
C97   C103  A    
C22   C87   A    
H60   O39   S    
C1    C118  S    
C11   C39   S    
C17   H36   S    
C75   C77   A    
C76   C87   A    
Cr1   O1    S    
C121  C122  A    
C114  C118  A    
C119  C121  A    
C39   O40   D    
C14   C41   S    
C41   H63   S    
C119  C125  A    
C84   H56   S    
C103  H8    S    
C53   O55   A    
C12   H33   S    
C32   O29   D    
C8    C15   A    
H54   O30   S    
C55   O2    A    
Cr2   O13   S    
C6    C40   S    
C79   C80   A    
C36   C127  S    
C70   H1    S    
C28   O22   D    
C57   O7    A    
C4    H32   S    
C3    C4    A    
Cr3   O45   S    
C38   O38   D    
C25   C45   S    
C105  O23   A    
C112  C116  A    
C83   H67   S    
C9    H30   S    
C28   C99   S    
Cr5   O11   S    
C42   O44   D    
C39   H61   S    
C136  H26   S    
C59   C129  A    
C69   O14   A    
C30   O27   D    
Cr3   O16   S    
C14   C54   A    
C90   H4    S    
C88   H3    S    
C47   O51   D    
C132  H21   S    
C72   C73   A    
C126  H19   S    
C128  C130  A    
C134  C138  A    
C137  H17   S    
C64   H43   S    
Cr6   O9    S    
C108  C110  A    
C75   C82   A    
H62   O42   S    
C6    C7    A    
C108  H13   S    
Cr3   O15   S    
C109  H39   S    
C34   C121  S    
H70   O53   S    
C63   C73   S    
Cr3   O34   S    
C135  C139  A    
C134  C135  A    
C106  H9    S    
C52   C93   S    
C1    O4    A    
C24   C46   A    
Cr2   O14   S    
Cr4   O55   S    
C122  C123  A    
C43   C87   S    
C71   C72   A    
C76   H44   S    
C66   C67   A    
C78   H71   S    
C56   O3    A    
Cr6   O10   S    
C1    O13   A    
C90   C91   A    
C5    C6    A    
C49   H46   S    
C101  C111  S    
C125  H16   S    
Cr6   O3    S    
C100  C101  A    
C45   H68   S    
C29   O25   D    
H50   O24   S    
H55   O32   S    
C16   H35   S    
C86   H72   S    
C23   C25   A    
C61   C62   A    
C35   H12   S    
C107  C116  S    
C5    C15   S    
C10   C11   A    
C58   O8    A    
C113  C118  A    
C8    H31   S    
C4    C5    A    
C62   H18   S    
C58   C119  S    
C88   C89   A    
C48   O53   S    
C68   C70   A    
C49   C50   A    
Cr5   O8    S    
C56   O54   A    
C48   C66   S    
C22   C23   A    
C136  C137  A    
C58   O9    A    
C34   O33   D    
C3    C140  A    
C105  C139  S    
C124  H25   S    
C91   H5    S    
C77   H23   S    
C50   H38   S    
Cr2   O45   S    
C90   C95   A    
C42   H64   S    
C127  C128  A    
C11   C12   A    
C124  C125  A    
C131  H40   S    
