data_mof_unit_7274.cif
_audit_creation_date              2012-12-10T17:31:23-0500
_audit_creation_method            fapswitch 2.2
_symmetry_space_group_name_H-M    P1
_symmetry_Int_Tables_number       1
_space_group_crystal_system       triclinic
_cell_length_a                    19.349512
_cell_length_b                    18.761315
_cell_length_c                    12.384406
_cell_angle_alpha                 90.235837
_cell_angle_beta                  129.981574
_cell_angle_gamma                 89.55909
_cell_volume                      3444.81959121

loop_
_atom_site_label
_atom_site_type_symbol
_atom_type_description
_atom_site_fract_x
_atom_site_fract_y
_atom_site_fract_z
_atom_type_partial_charge
C1    C     C_R   0.612661 0.898571 0.653827 0.813446
C2    C     C_R   0.615822 0.097692 0.658350 0.818976
C3    C     C_R   0.115695 0.401138 0.658456 0.833748
C4    C     C_R   0.116000 0.597337 0.659425 0.840140
C5    C     C_R   0.244299 0.782142 0.026848 0.047663
C6    C     C_R   0.264277 0.247472 0.077712 0.035468
C7    C     C_R   0.747024 0.279410 0.028441 0.043620
C8    C     C_R   0.737295 0.717509 0.028044 0.035967
C9    C     C_R   0.663615 0.280350 0.001080 0.011440
C10   C     C_R   0.669627 0.738130 0.034205 0.011644
C11   C     C_R   0.155861 0.804038 0.967773 0.012297
C12   C     C_R   0.185459 0.251069 0.061954 0.005897
C13   C     C_R   0.586510 0.252687 0.875019 -0.199697
C14   C     C_R   0.594073 0.774182 0.919868 -0.214548
C15   C     C_R   0.081571 0.774809 0.839821 -0.192248
C16   C     C_R   0.106013 0.276604 0.936009 -0.196351
C17   C     C_R   0.593307 0.214966 0.786546 -0.179643
C18   C     C_R   0.590922 0.797125 0.810982 -0.177213
C19   C     C_R   0.093369 0.722594 0.773309 -0.186176
C20   C     C_R   0.106435 0.300932 0.830698 -0.165064
C21   C     C_R   0.317067 0.808002 0.161466 -0.325750
C22   C     C_R   0.331890 0.198991 0.175233 -0.256682
C23   C     C_R   0.821075 0.312199 0.152947 -0.328608
C24   C     C_R   0.796204 0.663669 0.118813 -0.292903
C25   C     C_R   0.217758 0.888264 0.160539 0.145888
C26   C     C_R   0.259173 0.182048 0.275872 0.159679
C27   C     C_R   0.728591 0.349952 0.212354 0.168300
C28   C     C_R   0.746053 0.672525 0.254203 0.169963
C29   C     C_R   0.688897 0.147130 0.756615 -0.198183
C30   C     C_R   0.676812 0.838959 0.739193 -0.216681
C31   C     C_R   0.192141 0.642142 0.767242 -0.201679
C32   C     C_R   0.192358 0.354380 0.766142 -0.226677
C33   C     C_R   0.684043 0.999587 0.290930 -0.322671
C34   C     C_R   0.183713 0.491700 0.290473 -0.328663
C35   C     C_R   0.345148 0.012141 0.624617 0.090348
C36   C     C_R   0.845634 0.513673 0.625259 0.102328
C37   C     C_R   0.314627 0.035757 0.694001 -0.306308
C38   C     C_R   0.815998 0.538948 0.694887 -0.311119
C39   C     C_R   0.388749 0.102096 0.348723 0.851512
C40   C     C_R   0.383651 0.902777 0.339936 0.845977
C41   C     C_R   0.881878 0.596401 0.339063 0.828996
C42   C     C_R   0.884070 0.401759 0.341050 0.818248
C43   C     C_R   0.375016 0.041722 0.840272 -0.169590
C44   C     C_R   0.876807 0.545131 0.841018 -0.173597
C45   C     C_R   0.465000 0.017636 0.920353 0.004649
C46   C     C_R   0.966179 0.519474 0.920997 0.000144
C47   C     C_R   0.495218 0.003498 0.843477 0.238249
C48   C     C_R   0.995591 0.503419 0.843587 0.237029
C49   C     C_R   0.527281 0.010897 0.072214 -0.189161
C50   C     C_R   0.028343 0.511798 0.072886 -0.186439
C51   C     C_R   0.620987 0.004109 0.143025 0.055843
C52   C     C_R   0.121322 0.499845 0.143120 0.067021
C53   C     C_R   0.650771 0.001322 0.065279 0.207700
C54   C     C_R   0.150908 0.495165 0.065232 0.212113
C55   C     C_R   0.588276 0.998399 0.918749 -0.248642
C56   C     C_R   0.088426 0.496049 0.918640 -0.241392
C57   C     C_R   0.501619 0.007442 0.158045 0.631374
C58   C     C_R   0.002611 0.511060 0.158686 0.649585
C59   C     C_R   0.655189 0.998305 0.368320 -0.032536
C60   C     C_R   0.154634 0.491924 0.367594 -0.054217
C61   C     C_R   0.657902 0.308374 0.100668 0.430641
C62   C     C_R   0.676496 0.718761 0.150893 0.421495
C63   C     C_R   0.142773 0.855784 0.036299 0.434766
C64   C     C_R   0.187312 0.225643 0.170382 0.413614
C65   C     C_R   0.304758 0.861926 0.226307 -0.169611
C66   C     C_R   0.326510 0.162244 0.267481 -0.184375
C67   C     C_R   0.810809 0.352556 0.237601 -0.172205
C68   C     C_R   0.807359 0.645488 0.238087 -0.191892
C69   C     C_R   0.774016 0.135019 0.794661 0.440163
C70   C     C_R   0.750861 0.829033 0.743279 0.458031
C71   C     C_R   0.279234 0.620466 0.822277 0.445022
C72   C     C_R   0.276008 0.362463 0.796844 0.481443
C73   C     C_R   0.353568 0.657903 0.936744 -0.311099
C74   C     C_R   0.355581 0.342354 0.928955 -0.284978
C75   C     C_R   0.843139 0.182679 0.884240 -0.281768
C76   C     C_R   0.816623 0.778149 0.834158 -0.330754
C77   C     C_R   0.341868 0.717885 0.990587 0.176478
C78   C     C_R   0.353794 0.310059 0.028425 0.175012
C79   C     C_R   0.832313 0.237912 0.948008 0.187399
C80   C     C_R   0.818591 0.744773 0.936209 0.185162
C81   C     C_R   0.753864 0.240866 0.935548 0.075239
C82   C     C_R   0.742241 0.750671 0.929672 0.081029
C83   C     C_R   0.256628 0.732989 0.951859 0.085639
C84   C     C_R   0.269949 0.288631 0.988226 0.076403
C85   C     C_R   0.678123 0.200802 0.825194 -0.040003
C86   C     C_R   0.668930 0.795255 0.824215 -0.036191
C87   C     C_R   0.180226 0.698624 0.830694 -0.032613
C88   C     C_R   0.188791 0.313956 0.859332 -0.041113
Cu1   Cu    Cu3+1 0.526340 0.000000 0.421010 0.996174
Cu2   Cu    Cu3+1 0.026340 0.500000 0.421010 0.987526
Cu3   Cu    Cu3+1 0.473640 0.000000 0.578990 0.924862
Cu4   Cu    Cu3+1 0.973640 0.500000 0.578990 0.930909
H1    H     H_    0.755799 0.995892 0.347542 0.194395
H2    H     H_    0.254914 0.483399 0.346627 0.185441
H3    H     H_    0.298871 0.010450 0.510718 0.154969
H4    H     H_    0.799617 0.512661 0.511756 0.163365
H5    H     H_    0.349782 0.066638 0.887448 0.202853
H6    H     H_    0.852477 0.572523 0.887353 0.203761
H7    H     H_    0.244891 0.051879 0.634142 0.150176
H8    H     H_    0.746840 0.556699 0.635208 0.148683
H9    H     H_    0.615994 0.995730 0.867390 0.211255
H10   H     H_    0.116272 0.494028 0.867509 0.213710
H11   H     H_    0.520674 0.258272 0.846165 0.176803
H12   H     H_    0.536418 0.783720 0.912680 0.170051
H13   H     H_    0.013397 0.791410 0.791059 0.173495
H14   H     H_    0.042709 0.273271 0.915333 0.170567
H15   H     H_    0.384908 0.788462 0.216613 0.181150
H16   H     H_    0.385907 0.186465 0.173541 0.211049
H17   H     H_    0.887844 0.307860 0.186571 0.193987
H18   H     H_    0.832495 0.633807 0.095159 0.261674
H19   H     H_    0.421119 0.645068 0.977430 0.165605
H20   H     H_    0.419443 0.357818 0.958144 0.206855
H21   H     H_    0.904867 0.178658 0.899607 0.176759
H22   H     H_    0.873561 0.771088 0.838221 0.155001
H23   H     H_    0.531377 0.195315 0.689683 0.161063
H24   H     H_    0.527171 0.818038 0.718988 0.176009
H25   H     H_    0.033241 0.702375 0.674374 0.150811
H26   H     H_    0.041656 0.311410 0.728851 0.167728
H27   H     H_    0.703807 0.996156 0.482052 0.213921
H28   H     H_    0.202527 0.485707 0.480421 0.208629
N1    N     N_R   0.566260 0.000000 0.302220 -0.217335
N2    N     N_R   0.066260 0.500000 0.302220 -0.211318
N3    N     N_R   0.434410 0.000000 0.697680 -0.208638
N4    N     N_R   0.934410 0.500000 0.697680 -0.207003
O1    O     O_R   0.608610 0.924520 0.551740 -0.529315
O2    O     O_R   0.608610 0.075480 0.551740 -0.533593
O3    O     O_R   0.108610 0.424520 0.551740 -0.534374
O4    O     O_R   0.108610 0.575480 0.551740 -0.538326
O5    O     O_R   0.564110 0.924510 0.685150 -0.623744
O6    O     O_R   0.564110 0.075490 0.685150 -0.619212
O7    O     O_R   0.064110 0.424510 0.685150 -0.619851
O8    O     O_R   0.064110 0.575490 0.685150 -0.613872
O9    O     O_R   0.435880 0.075470 0.314850 -0.542471
O10   O     O_R   0.435880 0.924530 0.314850 -0.582247
O11   O     O_R   0.935880 0.575470 0.314850 -0.541347
O12   O     O_R   0.935880 0.424530 0.314850 -0.599558
O13   O     O_R   0.391380 0.075460 0.448260 -0.557065
O14   O     O_R   0.391380 0.924540 0.448260 -0.576294
O15   O     O_R   0.891380 0.575460 0.448260 -0.572748
O16   O     O_R   0.891380 0.424540 0.448260 -0.555742
N5    N     N_2   0.206508 0.951492 0.212033 -0.413497
H29   H     H_    0.169289 0.945066 0.244012 0.246186
C89   C     C_3   0.179469 0.013617 0.123775 -0.634097
H30   H     H_    0.113965 0.005131 0.016816 0.253929
H31   H     H_    0.231627 0.026569 0.115129 0.219765
H32   H     H_    0.170638 0.059326 0.170519 0.213345
N6    N     N_2   0.260441 0.155500 0.384844 -0.393974
H33   H     H_    0.198045 0.143723 0.354145 0.266966
C90   C     C_3   0.318643 0.193315 0.517855 -0.664565
H34   H     H_    0.280168 0.208329 0.552780 0.202035
H35   H     H_    0.347398 0.242323 0.510369 0.202722
H36   H     H_    0.375025 0.158074 0.599662 0.252546
N7    N     N_2   0.714665 0.391466 0.293405 -0.400897
H37   H     H_    0.684013 0.363684 0.324091 0.269748
C91   C     C_3   0.670039 0.458973 0.228291 -0.670967
H38   H     H_    0.602980 0.450314 0.123096 0.234255
H39   H     H_    0.712052 0.492429 0.216632 0.223611
H40   H     H_    0.659339 0.487963 0.294811 0.204499
N8    N     N_2   0.749210 0.649125 0.366665 -0.402186
H41   H     H_    0.686805 0.639355 0.337532 0.262423
C92   C     C_3   0.808549 0.688660 0.497279 -0.666653
H42   H     H_    0.773382 0.700306 0.539109 0.202979
H43   H     H_    0.831856 0.739002 0.483149 0.200847
H44   H     H_    0.868672 0.656186 0.578237 0.256846
N9    N     N_2   0.744494 0.999856 0.134108 -0.438280
H45   H     H_    0.760538 0.967022 0.085849 0.246158
C93   C     C_3   0.783518 0.069918 0.162051 -0.700996
H46   H     H_    0.857266 0.064687 0.222420 0.223791
H47   H     H_    0.772435 0.102052 0.225398 0.240950
H48   H     H_    0.753005 0.098044 0.061431 0.230663
N10   N     N_2   0.244179 0.487046 0.133687 -0.442807
H49   H     H_    0.256376 0.452746 0.082138 0.259693
C94   C     C_3   0.291045 0.553869 0.168193 -0.693726
H50   H     H_    0.363887 0.543252 0.227435 0.220792
H51   H     H_    0.283977 0.587069 0.235162 0.239644
H52   H     H_    0.263639 0.583589 0.070348 0.233496
O17   O     O_3   0.413011 0.016922 0.101183 -0.590264
C95   C     C_3   0.364787 0.952665 0.042407 -0.290725
H53   H     H_    0.307944 0.953847 0.043406 0.195645
H54   H     H_    0.406680 0.904974 0.101483 0.211391
H55   H     H_    0.334026 0.947075 0.930941 0.154092
O18   O     O_3   0.915511 0.527626 0.102437 -0.605456
C96   C     C_3   0.860313 0.466639 0.046377 -0.292416
H56   H     H_    0.812626 0.470636 0.067293 0.189337
H57   H     H_    0.898676 0.416152 0.091792 0.208410
H58   H     H_    0.817781 0.464553 0.930584 0.159242
O19   O     O_3   0.581534 0.297582 0.085827 -0.618724
C97   C     C_3   0.586762 0.228253 0.135440 -0.393307
H59   H     H_    0.604211 0.186418 0.092180 0.184633
H60   H     H_    0.519773 0.213746 0.100895 0.200048
H61   H     H_    0.636379 0.226893 0.252540 0.179501
O20   O     O_3   0.616925 0.745684 0.167063 -0.608311
C98   C     C_3   0.641754 0.816515 0.216379 -0.353039
H62   H     H_    0.623308 0.852969 0.131011 0.181967
H63   H     H_    0.715038 0.821514 0.307367 0.160668
H64   H     H_    0.604340 0.834476 0.251649 0.190090
O21   O     O_3   0.057010 0.880751 0.973237 -0.593058
C99   C     C_3   0.027321 0.847221 0.038194 -0.359333
H65   H     H_    0.021841 0.788744 0.019863 0.166150
H66   H     H_    0.960318 0.869476 0.992664 0.217116
H67   H     H_    0.072421 0.857358 0.153227 0.145858
O22   O     O_3   0.120212 0.243483 0.175910 -0.610815
C100  C     C_3   0.136486 0.313421 0.229818 -0.344784
H68   H     H_    0.112184 0.352688 0.145189 0.187802
H69   H     H_    0.208896 0.323120 0.321549 0.162881
H70   H     H_    0.098564 0.322433 0.267793 0.183090
O23   O     O_3   0.787018 0.081009 0.732699 -0.573285
C101  C     C_3   0.845406 0.029053 0.835482 -0.262059
H71   H     H_    0.811255 0.999813 0.867471 0.158196
H72   H     H_    0.910085 0.051837 0.929708 0.139463
H73   H     H_    0.863408 0.990370 0.789115 0.240033
O24   O     O_3   0.768053 0.879237 0.681347 -0.575538
C102  C     C_3   0.777138 0.846298 0.588935 -0.339065
H74   H     H_    0.717786 0.812403 0.511256 0.173868
H75   H     H_    0.841653 0.816454 0.647385 0.162282
H76   H     H_    0.780353 0.888070 0.529561 0.174965
O25   O     O_3   0.288791 0.559994 0.766830 -0.542122
C103  C     C_3   0.357262 0.567911 0.757186 -0.245638
H77   H     H_    0.424250 0.554693 0.859449 0.154713
H78   H     H_    0.357124 0.622068 0.720417 0.130617
H79   H     H_    0.345437 0.529274 0.679013 0.187787
O26   O     O_3   0.282643 0.402627 0.710710 -0.536551
C104  C     C_3   0.296926 0.356010 0.637199 -0.374834
H80   H     H_    0.235377 0.323980 0.560085 0.172919
H81   H     H_    0.356777 0.320775 0.709566 0.164007
H82   H     H_    0.310293 0.387992 0.577328 0.168799
N11   N     N_2   0.408103 0.771663 0.049509 -0.443436
H83   H     H_    0.471922 0.753086 0.131113 0.291486
C105  C     C_3   0.403915 0.808314 0.942460 -0.677397
H84   H     H_    0.456458 0.849973 0.991075 0.220480
H85   H     H_    0.336604 0.833564 0.864105 0.225356
H86   H     H_    0.413961 0.770157 0.885010 0.227113
N12   N     N_2   0.434659 0.308441 0.172217 -0.436826
H87   H     H_    0.492934 0.311121 0.185835 0.286536
C106  C     C_3   0.436652 0.359271 0.262530 -0.683049
H88   H     H_    0.500301 0.352458 0.372620 0.222597
H89   H     H_    0.379502 0.350906 0.261480 0.242207
H90   H     H_    0.433630 0.414560 0.227702 0.227444
N13   N     N_2   0.894468 0.294662 0.005280 -0.460504
H91   H     H_    0.959217 0.277261 0.084536 0.286473
C107  C     C_3   0.888217 0.335688 0.900201 -0.693099
H92   H     H_    0.939812 0.378050 0.952594 0.221523
H93   H     H_    0.820219 0.360367 0.824675 0.239853
H94   H     H_    0.900529 0.301677 0.840529 0.226500
N14   N     N_2   0.901889 0.712513 0.051513 -0.429742
H95   H     H_    0.939720 0.689922 0.028184 0.252873
C108  C     C_3   0.954850 0.750762 0.184491 -0.669993
H96   H     H_    0.967792 0.715799 0.267831 0.249197
H97   H     H_    0.920198 0.800142 0.178189 0.223658
H98   H     H_    0.021386 0.765102 0.217335 0.200323

loop_
_geom_bond_atom_site_label_1
_geom_bond_atom_site_label_2
_ccdc_geom_bond_type
C27   N7    S    
C89   H32   S    
C83   C87   A    
C100  H68   S    
C39   O13   A    
C59   N1    A    
N9    H45   S    
C91   H39   S    
C70   O24   S    
C14   C18   A    
N13   H91   S    
C7    C81   A    
C79   N13   S    
C38   H8    S    
N10   H49   S    
C11   C63   A    
C20   H26   S    
C92   H42   S    
C104  H82   S    
C32   C72   A    
Cu3   O6    S    
Cu1   O1    S    
C102  H74   S    
C15   C19   A    
N10   C94   S    
C18   C86   A    
C95   H55   S    
C97   H61   S    
C9    C61   A    
C5    C21   A    
C97   H60   S    
C28   C68   A    
C1    O1    A    
C55   H9    S    
C5    C11   A    
C105  H86   S    
C1    O5    A    
Cu4   N4    S    
C74   H20   S    
C5    C83   A    
C3    O3    A    
C108  H98   S    
C77   C83   A    
C89   H30   S    
C6    C22   A    
C71   C73   A    
C61   O19   S    
C49   C57   A    
C42   O12   A    
C107  H92   S    
C25   C63   A    
C23   C67   A    
N11   H83   S    
C9    C13   A    
O18   C96   S    
C22   C66   A    
C95   H53   S    
C26   C64   A    
C27   C61   A    
N6    H33   S    
C30   C70   A    
Cu3   O13   S    
Cu2   Cu4   S    
C73   C77   A    
C12   C16   A    
C44   C46   A    
C101  H71   S    
C98   H63   S    
C40   O14   A    
Cu2   N2    S    
C76   H22   S    
Cu2   O3    S    
N8    C92   S    
C69   C75   A    
C99   H65   S    
C75   H21   S    
Cu1   Cu3   S    
N12   H87   S    
C69   O23   S    
C29   C85   A    
C48   C56   A    
C16   H14   S    
C53   C55   A    
C33   C59   A    
Cu3   N3    S    
N14   H95   S    
C91   H40   S    
C34   C60   A    
C106  H89   S    
C10   C62   A    
C43   H5    S    
C11   C15   A    
C17   C85   A    
C6    C12   A    
C92   H43   S    
C52   C54   A    
C73   H19   S    
C41   C68   S    
C29   C69   A    
Cu1   O2    S    
C45   C47   A    
C23   H17   S    
C100  H70   S    
C46   C48   A    
C58   N2    A    
Cu1   O9    S    
O22   C100  S    
C4    O4    A    
C42   O16   A    
O23   C101  S    
C26   C66   A    
C84   C88   A    
Cu4   O7    S    
C6    C84   A    
C104  H80   S    
C72   C74   A    
C10   C14   A    
C90   H36   S    
C18   H24   S    
C93   H46   S    
C79   C81   A    
C2    O6    A    
C35   N3    A    
C62   O20   S    
C49   C51   A    
O25   C103  S    
C94   H50   S    
C40   O10   A    
C28   N8    S    
C14   H12   S    
C63   O21   S    
C93   H47   S    
C74   C78   A    
C97   H59   S    
C51   C53   A    
N5    C89   S    
C50   C58   A    
C37   C43   A    
C96   H56   S    
C38   C44   A    
C105  H84   S    
C78   C84   A    
C106  H90   S    
Cu3   O14   S    
C100  H69   S    
C36   H4    S    
C50   C52   A    
N8    H41   S    
C45   C49   A    
C16   C20   A    
C98   H64   S    
C72   O26   S    
C99   H67   S    
C108  H97   S    
C24   H18   S    
C3    C32   S    
N13   C107  S    
C60   N2    A    
C43   C45   A    
N7    C91   S    
C21   H15   S    
C94   H51   S    
O17   C95   S    
C93   H48   S    
C2    O2    A    
C80   C82   A    
N11   C105  S    
C34   H2    S    
C30   C86   A    
C77   N11   S    
C40   C65   S    
N14   C108  S    
C70   C76   A    
C42   C67   S    
C39   C66   S    
C3    O7    A    
C96   H58   S    
C31   C87   A    
C13   H11   S    
C36   N4    A    
Cu4   O16   S    
C41   O11   A    
C92   H44   S    
C17   H23   S    
C103  H79   S    
C47   C55   A    
C39   O9    A    
C102  H76   S    
C53   N9    S    
C89   H31   S    
C64   O22   S    
O21   C99   S    
C59   H27   S    
Cu1   O10   S    
C94   H52   S    
C21   C65   A    
C34   C52   A    
C54   N10   S    
C8    C10   A    
C25   N5    S    
C76   C80   A    
C99   H66   S    
C57   N1    A    
C33   H1    S    
C48   N4    A    
C95   H54   S    
C108  H96   S    
C104  H81   S    
C54   C56   A    
C47   N3    A    
Cu3   O5    S    
C35   H3    S    
C33   C51   A    
N6    C90   S    
Cu4   O8    S    
C46   C50   A    
C19   C87   A    
C71   O25   S    
C13   C17   A    
C103  H78   S    
C58   O18   S    
C107  H94   S    
O20   C98   S    
C15   H13   S    
C90   H35   S    
C102  H75   S    
C56   H10   S    
C35   C37   A    
C105  H85   S    
C101  H72   S    
C82   C86   A    
N5    H29   S    
C57   O17   S    
Cu2   O11   S    
C4    O8    A    
C37   H7    S    
C103  H77   S    
C7    C23   A    
Cu1   N1    S    
C78   N12   S    
C12   C64   A    
C20   C88   A    
C36   C38   A    
C1    C30   S    
C8    C24   A    
Cu2   O12   S    
C60   H28   S    
C22   H16   S    
C26   N6    S    
C41   O15   A    
C4    C31   S    
C27   C67   A    
C106  H88   S    
C24   C68   A    
C44   H6    S    
C7    C9    A    
C8    C82   A    
C2    C29   S    
O24   C102  S    
C19   H25   S    
C96   H57   S    
N9    C93   S    
C98   H62   S    
C101  H73   S    
N12   C106  S    
C91   H38   S    
C25   C65   A    
Cu2   O4    S    
C80   N14   S    
O19   C97   S    
C107  H93   S    
N7    H37   S    
C90   H34   S    
Cu4   O15   S    
C75   C79   A    
O26   C104  S    
C81   C85   A    
C28   C62   A    
C31   C71   A    
C32   C88   A    
