data_mof_unit_57284.cif
_audit_creation_date              2012-12-10T19:27:38-0500
_audit_creation_method            fapswitch 2.2
_symmetry_space_group_name_H-M    P1
_symmetry_Int_Tables_number       1
_space_group_crystal_system       triclinic
_cell_length_a                    23.433553
_cell_length_b                    10.503727
_cell_length_c                    9.759987
_cell_angle_alpha                 90.960636
_cell_angle_beta                  90.090483
_cell_angle_gamma                 90.090188
_cell_volume                      2401.9759994

loop_
_atom_site_label
_atom_site_type_symbol
_atom_type_description
_atom_site_fract_x
_atom_site_fract_y
_atom_site_fract_z
_atom_type_partial_charge
C1    C     C_R   0.500454 0.257777 0.498874 1.001494
C2    C     C_R   0.499489 0.742231 0.501121 0.992519
C3    C     C_R   0.239496 0.520967 0.369970 -0.113952
C4    C     C_R   0.760423 0.525845 0.371331 -0.111943
C5    C     C_R   0.298468 0.521405 0.374494 -0.271296
C6    C     C_R   0.701461 0.522796 0.375129 -0.287087
C7    C     C_R   0.327001 0.498666 0.498073 -0.173149
C8    C     C_R   0.673033 0.502083 0.499150 -0.175121
C9    C     C_R   0.295531 0.474741 0.617705 0.569661
C10   C     C_R   0.704638 0.484383 0.620226 0.579796
C11   C     C_R   0.235809 0.474277 0.613887 0.025671
C12   C     C_R   0.764348 0.488312 0.617248 0.024886
C13   C     C_R   0.208207 0.497725 0.488312 0.190675
C14   C     C_R   0.791820 0.508872 0.491041 0.193324
C15   C     C_3   0.541928 0.043541 0.579827 0.595060
C16   C     C_3   0.457930 0.956484 0.420131 0.591867
C17   C     C_3   0.550872 0.955394 0.453594 -0.479179
C18   C     C_3   0.448988 0.044654 0.546343 -0.473469
C19   C     C_3   0.499644 0.876823 0.502935 -0.370246
C20   C     C_3   0.500220 0.123204 0.497029 -0.375072
C21   C     C_3   0.491445 0.963744 0.628497 0.602105
C22   C     C_3   0.508405 0.036304 0.371447 0.604786
C23   C     C_R   0.389375 0.499385 0.499833 0.925012
C24   C     C_R   0.610639 0.500048 0.500086 0.923317
C25   C     C_3   0.465189 0.416543 0.045568 0.152455
C26   C     C_3   0.534788 0.583445 0.954531 0.166576
C27   C     C_3   0.515201 0.389806 0.949025 -0.048458
C28   C     C_3   0.484783 0.610127 0.051014 -0.099595
C29   C     C_3   0.449641 0.525950 0.951387 -0.104279
C30   C     C_3   0.550362 0.474028 0.048661 -0.081200
C31   C     C_R   0.881037 0.621025 0.500244 0.588949
C32   C     C_R   0.118969 0.389992 0.452722 0.585161
C33   C     C_R   0.879596 0.396551 0.455034 0.590062
C34   C     C_R   0.120428 0.614263 0.499194 0.596030
C35   C     C_R   0.939242 0.392655 0.450298 -0.224145
C36   C     C_R   0.060773 0.619440 0.495968 -0.224751
C37   C     C_R   0.969969 0.507004 0.472623 -0.165489
C38   C     C_R   0.030041 0.505330 0.472165 -0.165850
C39   C     C_R   0.940741 0.622852 0.496443 -0.225255
C40   C     C_R   0.059264 0.389374 0.449006 -0.225622
C41   C     C_R   0.968832 0.278091 0.425375 0.597043
C42   C     C_R   0.031178 0.734599 0.517127 0.601639
C43   C     C_R   0.028162 0.276488 0.424642 0.604426
C44   C     C_R   0.971842 0.736300 0.517252 0.604008
H1    H     H_    0.527836 0.297359 0.901420 0.189053
H2    H     H_    0.472194 0.702613 0.098612 0.190942
H3    H     H_    0.407371 0.547473 0.905971 0.196669
H4    H     H_    0.592651 0.452797 0.094248 0.152382
H5    H     H_    0.217803 0.539417 0.274336 0.157497
H6    H     H_    0.782021 0.541047 0.274911 0.157490
H7    H     H_    0.321648 0.540471 0.281101 0.196339
H8    H     H_    0.678205 0.536978 0.280614 0.184131
H9    H     H_    0.592041 0.915755 0.416429 0.209766
H10   H     H_    0.407821 0.084312 0.583504 0.215047
N1    N     N_R   0.852378 0.508893 0.481913 -0.365022
N2    N     N_R   0.147643 0.500712 0.479779 -0.366573
N3    N     N_3   0.499960 0.500030 0.863290 -0.111336
N4    N     N_3   0.500040 0.499970 0.136710 -0.114139
O1    O     O_R   0.500000 0.313960 0.616610 -0.600229
O2    O     O_R   0.500000 0.686040 0.383390 -0.604885
O3    O     O_R   0.500030 0.313950 0.383350 -0.606702
O4    O     O_R   0.499970 0.686050 0.616650 -0.611958
O5    O     O_R   0.416140 0.499970 0.616650 -0.567017
O6    O     O_R   0.583860 0.500030 0.383350 -0.641843
O7    O     O_R   0.416170 0.499960 0.383400 -0.643908
O8    O     O_R   0.583830 0.500040 0.616600 -0.571076
O9    O     O_2   0.851498 0.729428 0.523461 -0.449897
O10   O     O_2   0.148509 0.281304 0.431230 -0.446816
O11   O     O_2   0.848674 0.289498 0.433794 -0.462708
O12   O     O_2   0.151352 0.721005 0.522292 -0.455754
Zn1   Zn    Zn3+2 0.499980 0.500010 0.655740 1.015273
Zn2   Zn    Zn3+2 0.500020 0.499990 0.344260 0.966251
F1    F     F_    0.940768 0.166434 0.402710 -0.521207
F2    F     F_    0.059246 0.846402 0.538826 -0.518947
C45   C     C_3   0.423571 0.318406 0.101847 -0.384528
C46   C     C_3   0.395500 0.240307 0.986095 -0.395097
C47   C     C_3   0.354431 0.141645 0.043052 -0.703489
H11   H     H_    0.377638 0.074630 0.110065 0.305758
H12   H     H_    0.320038 0.189304 0.102909 0.255360
H13   H     H_    0.334710 0.086565 0.957143 0.259471
H14   H     H_    0.371521 0.304484 0.917568 0.276981
H15   H     H_    0.428757 0.190261 0.924582 0.264269
H16   H     H_    0.447062 0.253337 0.169735 0.279093
H17   H     H_    0.390186 0.368621 0.162392 0.210137
C48   C     C_3   0.575949 0.682841 0.899023 -0.364520
C49   C     C_3   0.605907 0.756227 0.015628 -0.412606
C50   C     C_3   0.646180 0.856946 0.959542 -0.704562
H18   H     H_    0.679545 0.811499 0.894523 0.256053
H19   H     H_    0.622030 0.926671 0.897814 0.306204
H20   H     H_    0.667300 0.908587 0.045956 0.255907
H21   H     H_    0.573683 0.804009 0.082230 0.264162
H22   H     H_    0.630870 0.689222 0.079092 0.221338
H23   H     H_    0.608295 0.634540 0.833923 0.257001
H24   H     H_    0.551724 0.750496 0.835607 0.271410
F3    F     F_    0.054740 0.163369 0.401272 -0.516734
F4    F     F_    0.945258 0.849666 0.539022 -0.519125
F5    F     F_    0.322531 0.449545 0.737446 -0.709176
F6    F     F_    0.677844 0.462359 0.740944 -0.680449
C51   C     C_3   0.202614 0.447755 0.743505 -0.356517
C52   C     C_3   0.203069 0.563813 0.840967 -0.318004
C53   C     C_3   0.169764 0.537168 0.971673 -0.835318
H25   H     H_    0.124532 0.514740 0.946869 0.271637
H26   H     H_    0.189011 0.455851 0.026422 0.265815
H27   H     H_    0.170945 0.622518 0.040314 0.263646
H28   H     H_    0.247647 0.589322 0.869268 0.262979
H29   H     H_    0.183468 0.646488 0.789222 0.260205
H30   H     H_    0.157689 0.421717 0.720104 0.201951
H31   H     H_    0.221661 0.364329 0.795189 0.243727
C54   C     C_3   0.797699 0.471735 0.748897 -0.384959
C55   C     C_3   0.799170 0.331686 0.790657 -0.306845
C56   C     C_3   0.832165 0.315431 0.924160 -0.781086
H32   H     H_    0.876947 0.348206 0.912089 0.262585
H33   H     H_    0.811603 0.370837 0.008509 0.260631
H34   H     H_    0.832546 0.213338 0.951871 0.278506
H35   H     H_    0.755062 0.295243 0.804751 0.277320
H36   H     H_    0.820024 0.273709 0.708738 0.266061
H37   H     H_    0.842155 0.506844 0.738548 0.199432
H38   H     H_    0.777787 0.530569 0.831636 0.234648
F7    F     F_    0.584662 0.092879 0.663029 -0.627643
F8    F     F_    0.415198 0.907108 0.336957 -0.636352
F9    F     F_    0.482926 0.924219 0.761294 -0.639454
F10   F     F_    0.516818 0.076005 0.238657 -0.638015

loop_
_geom_bond_atom_site_label_1
_geom_bond_atom_site_label_2
_ccdc_geom_bond_type
C33   N1    A    
C50   H18   S    
C34   N2    A    
C53   H25   S    
C55   H36   S    
C18   C21   S    
C36   C42   A    
C56   H32   S    
O6    Zn2   S    
C16   C22   S    
C3    H5    S    
C54   H37   S    
C48   C49   S    
C31   O9    S    
C51   H31   S    
C28   H2    S    
C52   H28   S    
C29   H3    S    
C30   H4    S    
C28   C29   S    
C35   C37   A    
C49   H21   S    
C16   F8    S    
C33   C35   A    
C2    O2    A    
C45   H17   S    
O2    Zn2   S    
C11   C51   S    
C10   F6    S    
C55   C56   S    
C8    C24   S    
C48   H23   S    
C45   H16   S    
C40   C43   A    
O8    Zn1   S    
C15   F7    S    
C43   F3    S    
C34   O12   S    
C18   C20   S    
C3    C13   A    
C24   O8    A    
C32   O10   S    
C13   N2    S    
C27   H1    S    
C23   O5    A    
C14   N1    S    
C53   H26   S    
C27   C30   S    
C4    C14   A    
C41   C43   A    
C42   C44   A    
C12   C54   S    
C54   H38   S    
C22   F10   S    
C47   H12   S    
C25   C29   S    
C15   C20   S    
C42   F2    S    
C46   C47   S    
C4    C6    A    
C27   N3    S    
C46   H15   S    
C5    C7    A    
C49   C50   S    
C6    C8    A    
C47   H11   S    
C4    H6    S    
C25   C45   S    
C45   C46   S    
C37   C38   A    
C44   F4    S    
C48   H24   S    
C51   C52   S    
C56   H33   S    
N3    Zn1   S    
C9    C11   A    
O5    Zn1   S    
C10   C12   A    
O3    Zn2   S    
C8    C10   A    
C29   N3    S    
C26   C30   S    
C53   H27   S    
C28   N4    S    
C50   H19   S    
C25   N4    S    
C17   H9    S    
C47   H13   S    
C15   C17   S    
C1    C20   S    
C9    F5    S    
C19   C21   S    
C2    C19   S    
C52   H29   S    
C20   C22   S    
C3    C5    A    
C1    O3    A    
C46   H14   S    
C39   C44   A    
C33   O11   S    
C25   C27   S    
O7    Zn2   S    
C51   H30   S    
C26   C28   S    
C17   C22   S    
C6    H8    S    
C23   O7    A    
C1    O1    A    
C12   C14   A    
C37   C39   A    
C49   H22   S    
C54   C55   S    
C38   C40   A    
C11   C13   A    
N4    Zn2   S    
C26   C48   S    
C7    C23   S    
C30   N4    S    
C36   C38   A    
C52   C53   S    
C17   C19   S    
C31   C39   A    
O4    Zn1   S    
C24   O6    A    
C56   H34   S    
C34   C36   A    
C32   C40   A    
C21   F9    S    
C35   C41   A    
C26   N3    S    
C18   H10   S    
C41   F1    S    
C7    C9    A    
C15   C21   S    
C16   C18   S    
C50   H20   S    
C5    H7    S    
C31   N1    A    
C55   H35   S    
C32   N2    A    
C2    O4    A    
O1    Zn1   S    
C16   C19   S    
