data_mof_unit_15491.cif
_audit_creation_date              2012-12-10T19:15:20-0500
_audit_creation_method            fapswitch 2.2
_symmetry_space_group_name_H-M    P1
_symmetry_Int_Tables_number       1
_space_group_crystal_system       triclinic
_cell_length_a                    13.42199
_cell_length_b                    14.762195
_cell_length_c                    15.996011
_cell_angle_alpha                 90.243098
_cell_angle_beta                  90.278449
_cell_angle_gamma                 72.056277
_cell_volume                      3015.20817028

loop_
_atom_site_label
_atom_site_type_symbol
_atom_type_description
_atom_site_fract_x
_atom_site_fract_y
_atom_site_fract_z
_atom_type_partial_charge
C1    C     C_R   0.499898 0.500263 0.659048 0.824457
C2    C     C_R   0.980502 0.453017 0.519553 0.026332
C3    C     C_R   0.874028 0.474664 0.542619 0.040946
C4    C     C_R   0.030488 0.524684 0.528399 0.051518
C5    C     C_R   0.974466 0.614458 0.563047 0.055137
C6    C     C_R   0.876648 0.627060 0.602524 0.062712
C7    C     C_R   0.830398 0.552984 0.597322 0.143853
C8    C     C_R   0.134131 0.510440 0.502004 -0.248080
C9    C     C_R   0.121584 0.674687 0.531938 0.086591
C10   C     C_R   0.816235 0.415529 0.511513 -0.132516
C11   C     C_R   0.480877 0.430998 0.043434 -0.249273
C12   C     C_R   0.700930 0.449106 0.504109 0.810072
C13   C     C_R   0.508818 0.501201 0.087431 0.057954
C14   C     C_R   0.539695 0.571996 0.045081 0.087381
C15   C     C_R   0.542302 0.570542 0.956300 0.143956
C16   C     C_R   0.511329 0.499658 0.912581 0.089391
C17   C     C_R   0.481514 0.429243 0.956268 0.057051
C18   C     C_1   0.504894 0.499259 0.177024 -0.053225
C19   C     C_1   0.506934 0.500078 0.822764 -0.049404
C20   C     C_1   0.503224 0.500084 0.747878 -0.198236
C21   C     C_1   0.502278 0.498924 0.251952 -0.195274
C22   C     C_R   0.526240 0.040947 0.422519 0.101447
C23   C     C_R   0.500201 0.499743 0.340903 0.835436
C24   C     C_R   0.502014 0.096817 0.496481 -0.061242
C25   C     C_R   0.479658 0.054991 0.569471 -0.223335
C26   C     C_R   0.479943 0.959426 0.571463 0.170863
C27   C     C_R   0.501471 0.902603 0.497887 0.007099
C28   C     C_R   0.525966 0.943636 0.423116 0.146259
C29   C     C_1   0.500716 0.197249 0.498947 0.123501
C30   C     C_1   0.500258 0.802521 0.499372 0.109340
C31   C     C_R   0.298408 0.551133 0.500064 0.788462
C32   C     C_R   0.019503 0.688964 0.560160 -0.226739
C33   C     C_R   0.182851 0.581571 0.508946 -0.091119
C34   C     C_R   0.869413 0.325177 0.479124 -0.204243
C35   C     C_R   0.978396 0.295145 0.471043 0.145277
C36   C     C_R   0.032314 0.360554 0.487925 -0.214556
Cu1   Cu    Cu3+1 0.499970 0.410790 0.500000 0.958160
Cu2   Cu    Cu3+1 0.500030 0.589210 0.500000 0.949448
H1    H     H_    0.458087 0.377218 0.077574 0.150358
H2    H     H_    0.462685 0.097203 0.626317 0.158620
H3    H     H_    0.976462 0.759908 0.580794 0.155062
H4    H     H_    0.180382 0.443316 0.476568 0.155803
H5    H     H_    0.824734 0.279534 0.458446 0.150564
H6    H     H_    0.115445 0.335523 0.477232 0.124366
N1    N     N_1   0.499970 0.723300 0.500020 -0.161840
N2    N     N_1   0.500030 0.276700 0.499980 -0.157658
O1    O     O_R   0.499950 0.424690 0.619690 -0.564726
O2    O     O_R   0.500000 0.575360 0.619690 -0.584240
O3    O     O_R   0.650940 0.387890 0.499980 -0.582666
O4    O     O_R   0.650990 0.538570 0.499980 -0.557592
O5    O     O_R   0.500000 0.424640 0.380310 -0.571726
O6    O     O_R   0.500050 0.575310 0.380310 -0.568230
O7    O     O_R   0.349010 0.461430 0.500020 -0.574362
O8    O     O_R   0.349060 0.612110 0.500020 -0.581289
C37   C     C_3   0.159478 0.761253 0.529815 -0.394636
C38   C     C_3   0.201933 0.778705 0.615499 -0.318966
C39   C     C_3   0.221496 0.874978 0.618423 -0.865471
H7    H     H_    0.147286 0.933332 0.607827 0.250381
H8    H     H_    0.279179 0.878415 0.569981 0.269142
H9    H     H_    0.252313 0.885085 0.681079 0.244059
H10   H     H_    0.144442 0.777658 0.665037 0.209309
H11   H     H_    0.276199 0.721677 0.629376 0.239757
H12   H     H_    0.217574 0.756448 0.479704 0.217714
H13   H     H_    0.092536 0.824572 0.512578 0.186364
C40   C     C_3   0.569935 0.647595 0.095364 -0.394602
C41   C     C_3   0.683353 0.609371 0.126755 -0.334567
C42   C     C_3   0.712085 0.682771 0.181230 -0.851185
H14   H     H_    0.703276 0.749046 0.145319 0.251305
H15   H     H_    0.661006 0.699736 0.237216 0.261271
H16   H     H_    0.794731 0.653577 0.202285 0.243082
H17   H     H_    0.694250 0.543708 0.164103 0.225704
H18   H     H_    0.737467 0.591180 0.072566 0.215473
H19   H     H_    0.560311 0.713188 0.058531 0.200359
H20   H     H_    0.515917 0.671013 0.149202 0.201915
C43   C     C_3   0.578218 0.644055 0.909323 -0.891731
H21   H     H_    0.520614 0.715716 0.917996 0.227337
H22   H     H_    0.656042 0.644275 0.932901 0.230011
H23   H     H_    0.587113 0.630658 0.841168 0.242869
C44   C     C_3   0.553260 0.884239 0.343979 -0.903849
H24   H     H_    0.557853 0.808695 0.352546 0.239740
H25   H     H_    0.492783 0.913763 0.295385 0.227823
H26   H     H_    0.630990 0.884422 0.320759 0.235472
C45   C     C_3   0.554795 0.085621 0.344141 -0.397715
C46   C     C_3   0.669896 0.083264 0.347030 -0.337130
C47   C     C_3   0.698026 0.131870 0.270673 -0.853646
H27   H     H_    0.685080 0.095712 0.212447 0.251446
H28   H     H_    0.649590 0.207928 0.268702 0.261013
H29   H     H_    0.781821 0.128177 0.274066 0.236745
H30   H     H_    0.685175 0.120085 0.404159 0.219312
H31   H     H_    0.721428 0.008188 0.349064 0.216578
H32   H     H_    0.540593 0.049694 0.286386 0.201243
H33   H     H_    0.503125 0.160332 0.338074 0.195994
C48   C     C_3   0.459026 0.921246 0.654644 -0.902232
H34   H     H_    0.520083 0.925070 0.700297 0.236439
H35   H     H_    0.381965 0.965846 0.678502 0.234694
H36   H     H_    0.458720 0.846325 0.651699 0.242964
C49   C     C_3   0.824605 0.717826 0.652385 -0.410770
C50   C     C_3   0.763229 0.798862 0.594568 -0.328438
C51   C     C_3   0.748738 0.896132 0.634471 -0.856964
H37   H     H_    0.707358 0.901723 0.695094 0.254114
H38   H     H_    0.826028 0.907159 0.645132 0.243870
H39   H     H_    0.702222 0.952921 0.592055 0.255421
H40   H     H_    0.803361 0.796341 0.533604 0.217488
H41   H     H_    0.685471 0.790277 0.581587 0.232151
H42   H     H_    0.770098 0.708351 0.700838 0.197651
H43   H     H_    0.885050 0.737969 0.689157 0.192695
C52   C     C_3   0.040896 0.196389 0.440543 -0.407700
C53   C     C_3   0.978954 0.124869 0.431433 -0.356638
C54   C     C_3   0.050770 0.026110 0.407753 -0.857912
H44   H     H_    0.089474 0.028823 0.347004 0.256031
H45   H     H_    0.111586 0.998889 0.456635 0.256265
H46   H     H_    0.003983 0.976083 0.401805 0.237594
H47   H     H_    0.939892 0.119412 0.491509 0.220572
H48   H     H_    0.918573 0.149004 0.381697 0.215530
H49   H     H_    0.076407 0.203612 0.379255 0.194058
H50   H     H_    0.105899 0.166602 0.485766 0.201585
C55   C     C_3   0.746265 0.550703 0.659473 -0.824345
H51   H     H_    0.774559 0.556476 0.724018 0.208077
H52   H     H_    0.674063 0.610756 0.647814 0.256431
H53   H     H_    0.727815 0.482572 0.658599 0.208853
C56   C     C_3   0.448841 0.352137 0.911278 -0.391733
C57   C     C_3   0.544363 0.274009 0.877550 -0.324886
C58   C     C_3   0.511220 0.199244 0.828228 -0.856259
H54   H     H_    0.465940 0.165236 0.868641 0.249897
H55   H     H_    0.462453 0.232476 0.773541 0.257912
H56   H     H_    0.581811 0.143360 0.805198 0.240555
H57   H     H_    0.591133 0.305165 0.835920 0.227644
H58   H     H_    0.595117 0.238782 0.930665 0.214828
H59   H     H_    0.405439 0.318979 0.954427 0.187385
H60   H     H_    0.393795 0.384135 0.859547 0.203407

loop_
_geom_bond_atom_site_label_1
_geom_bond_atom_site_label_2
_ccdc_geom_bond_type
C15   C43   S    
C37   C38   S    
C48   H34   S    
C18   C21   T    
C7    C55   S    
C30   N1    T    
C35   C36   A    
C56   H60   S    
C4    C8    A    
C12   O3    A    
C23   O6    A    
C58   H54   S    
C47   H27   S    
C53   C54   S    
C45   H33   S    
C26   C27   A    
C13   C18   S    
C45   C46   S    
C8    H4    S    
C3    C7    A    
C54   H45   S    
C25   H2    S    
C5    C6    A    
Cu1   O5    S    
C39   H8    S    
Cu2   O6    S    
C15   C16   A    
C40   H19   S    
C38   C39   S    
C34   C35   A    
C53   H48   S    
C57   H57   S    
C28   C44   S    
C24   C29   S    
Cu2   N1    S    
C9    C32   A    
C46   C47   S    
C41   H18   S    
C19   C20   T    
C16   C17   A    
C37   H12   S    
C52   C53   S    
C31   C33   S    
C9    C37   S    
Cu1   O1    S    
Cu2   O2    S    
C5    C32   A    
Cu1   O7    S    
C26   C48   S    
C41   C42   S    
C48   H35   S    
C22   C28   A    
C13   C14   A    
C27   C30   S    
C9    C33   A    
C46   H31   S    
C49   C50   S    
C47   H28   S    
C42   H14   S    
C6    C49   S    
C35   C52   S    
C24   C25   A    
C55   H53   S    
C44   H25   S    
C1    O1    A    
C39   H9    S    
C25   C26   A    
C40   H20   S    
C54   H46   S    
C42   H15   S    
C53   H47   S    
C2    C4    A    
C43   H21   S    
Cu1   Cu2   S    
Cu1   O3    S    
C23   O5    A    
C41   H17   S    
Cu2   O8    S    
C32   H3    S    
C37   H13   S    
C10   C34   A    
C31   O7    A    
C11   H1    S    
C43   H22   S    
C52   H49   S    
C56   C57   S    
C10   C12   S    
C49   H43   S    
C17   C56   S    
C51   H38   S    
C50   C51   S    
C48   H36   S    
C21   C23   S    
C22   C24   A    
C36   H6    S    
C46   H30   S    
C47   H29   S    
C2    C36   A    
C11   C17   A    
C1    C20   S    
C14   C15   A    
C34   H5    S    
C56   H59   S    
C4    C5    A    
C58   H56   S    
C44   H26   S    
C12   O4    A    
C1    O2    A    
C6    C7    A    
Cu2   O4    S    
C45   H32   S    
C51   H37   S    
C29   N2    T    
C42   H16   S    
C22   C45   S    
C55   H52   S    
C2    C3    A    
C57   C58   S    
C49   H42   S    
C3    C10   A    
C54   H44   S    
C11   C13   A    
C39   H7    S    
C16   C19   S    
C50   H41   S    
C14   C40   S    
C38   H11   S    
C8    C33   A    
C31   O8    A    
C57   H58   S    
C43   H23   S    
C52   H50   S    
C58   H55   S    
C44   H24   S    
C51   H39   S    
C40   C41   S    
C27   C28   A    
C38   H10   S    
Cu1   N2    S    
C55   H51   S    
C50   H40   S    
