data_mof_unit_39371.cif
_audit_creation_date              2012-12-11T16:25:28-0500
_audit_creation_method            fapswitch 2.2
_symmetry_space_group_name_H-M    P1
_symmetry_Int_Tables_number       1
_space_group_crystal_system       triclinic
_cell_length_a                    20.470228
_cell_length_b                    7.280542
_cell_length_c                    13.18275
_cell_angle_alpha                 88.721587
_cell_angle_beta                  103.741362
_cell_angle_gamma                 92.209779
_cell_volume                      1906.85501057

loop_
_atom_site_label
_atom_site_type_symbol
_atom_type_description
_atom_site_fract_x
_atom_site_fract_y
_atom_site_fract_z
_atom_type_partial_charge
O1    O     O_R   0.449520 0.506760 0.599710 -0.532431
O2    O     O_R   0.550480 0.006760 0.400290 -0.531347
O3    O     O_R   0.587930 0.180200 0.595790 -0.528578
O4    O     O_R   0.412070 0.680200 0.404210 -0.537517
C1    C     C_R   0.613603 0.346364 0.620563 0.689773
C2    C     C_R   0.386225 0.842716 0.379785 0.690146
O5    O     O_R   0.452350 0.177380 0.611700 -0.532620
O6    O     O_R   0.547650 0.677380 0.388300 -0.532358
O7    O     O_R   0.413930 0.001760 0.416320 -0.527407
O8    O     O_R   0.586070 0.501760 0.583680 -0.536152
C3    C     C_R   0.435542 0.341388 0.637965 0.721290
C4    C     C_R   0.564536 0.849276 0.362503 0.722468
O9    O     O_3   0.487550 0.337460 0.435880 -0.366947
O10   O     O_3   0.512450 0.837460 0.564120 -0.369819
V1    V     V_3+5 0.502310 0.064670 0.511900 1.521969
V2    V     V_3+5 0.497690 0.564670 0.488100 1.509897
C5    C     C_R   0.623720 0.037844 0.130240 -0.108756
C6    C     C_R   0.377508 0.192592 0.878607 -0.107908
H1    H     H_    0.605077 0.123894 0.062508 0.182864
H2    H     H_    0.396658 0.117151 0.950367 0.182683
C7    C     C_R   0.604416 0.875616 0.283216 -0.084543
C8    C     C_R   0.396013 0.330145 0.718465 -0.089336
C9    C     C_R   0.925866 0.766534 0.312810 -0.142029
C10   C     C_R   0.073874 0.442588 0.683436 -0.137600
C11   C     C_R   0.891251 0.743399 0.391020 -0.042731
C12   C     C_R   0.108401 0.454978 0.604775 -0.042779
C13   C     C_R   0.823473 0.785810 0.374044 0.137292
C14   C     C_R   0.176483 0.414980 0.623753 0.136303
C15   C     C_R   0.787387 0.844982 0.272512 0.029795
C16   C     C_R   0.212862 0.368090 0.727448 0.032098
C17   C     C_R   0.825663 0.884186 0.195586 0.043201
C18   C     C_R   0.174682 0.339777 0.805601 0.043124
C19   C     C_R   0.716414 0.876976 0.244613 0.072745
C20   C     C_R   0.284045 0.338371 0.756892 0.076393
C21   C     C_R   0.689536 0.976929 0.151343 0.092040
C22   C     C_R   0.311320 0.251073 0.854312 0.091634
C23   C     C_R   0.728136 0.015448 0.079099 -0.159233
C24   C     C_R   0.272788 0.222790 0.927614 -0.159702
C25   C     C_R   0.794382 0.964399 0.099172 -0.177490
C26   C     C_R   0.206319 0.272254 0.905139 -0.178975
C27   C     C_R   0.670191 0.810277 0.302884 -0.202403
C28   C     C_R   0.330079 0.395011 0.695988 -0.203825
C29   C     C_R   0.582487 0.996427 0.198073 0.179040
C30   C     C_R   0.418542 0.222540 0.809292 0.187135
C31   C     C_R   0.894869 0.843477 0.216540 -0.080320
C32   C     C_R   0.105237 0.378867 0.782811 -0.082890
H3    H     H_    0.684017 0.707854 0.363375 0.159487
H4    H     H_    0.316095 0.489319 0.631360 0.160123
H5    H     H_    0.821492 0.994394 0.039256 0.133380
H6    H     H_    0.179349 0.250790 0.965963 0.134597
C33   C     C_R   0.223121 0.800690 0.032369 -0.188781
C34   C     C_R   0.776632 0.432107 0.965123 -0.189300
C35   C     C_R   0.274380 0.758514 0.985928 -0.169700
C36   C     C_R   0.725077 0.478291 0.009980 -0.172950
C37   C     C_R   0.339318 0.743419 0.046094 0.228966
C38   C     C_R   0.659916 0.485387 0.949519 0.232003
C39   C     C_R   0.354025 0.771392 0.154040 -0.143565
C40   C     C_R   0.645362 0.446210 0.842753 -0.143637
C41   C     C_R   0.302541 0.814294 0.203815 0.024333
C42   C     C_R   0.697147 0.398958 0.794659 0.023545
C43   C     C_R   0.235577 0.826037 0.141516 0.067571
C44   C     C_R   0.764222 0.394331 0.857233 0.069051
C45   C     C_R   0.316188 0.844780 0.313226 -0.137301
C46   C     C_R   0.683746 0.357946 0.686514 -0.136696
C47   C     C_R   0.261910 0.873015 0.360351 0.089658
C48   C     C_R   0.738211 0.326449 0.640426 0.089677
C49   C     C_R   0.194737 0.879930 0.298020 0.047236
C50   C     C_R   0.805460 0.326525 0.702863 0.046249
C51   C     C_R   0.182010 0.861116 0.188111 -0.139354
C52   C     C_R   0.818018 0.355049 0.811993 -0.138793
C53   C     C_R   0.273098 0.887822 0.470062 -0.140638
C54   C     C_R   0.727030 0.301088 0.531438 -0.140249
C55   C     C_R   0.219755 0.904888 0.517303 -0.102165
C56   C     C_R   0.780496 0.281796 0.484762 -0.100674
C57   C     C_R   0.154230 0.910564 0.456849 0.242521
C58   C     C_R   0.846132 0.283606 0.545217 0.243562
C59   C     C_R   0.141519 0.900081 0.348107 -0.125903
C60   C     C_R   0.858836 0.303479 0.653483 -0.127199
H7    H     H_    0.263445 0.738265 0.902345 0.152205
H8    H     H_    0.735935 0.507504 0.092630 0.152502
H9    H     H_    0.405473 0.757981 0.197990 0.140461
H10   H     H_    0.593830 0.454671 0.798245 0.138211
H11   H     H_    0.229507 0.913659 0.601497 0.145576
H12   H     H_    0.770757 0.265615 0.400981 0.146317
H13   H     H_    0.089821 0.905012 0.303782 0.105216
H14   H     H_    0.910611 0.303883 0.697893 0.104502
O11   O     O_R   0.913760 0.203480 0.916370 -0.536513
O12   O     O_R   0.086240 0.703480 0.083630 -0.530193
O13   O     O_R   0.047590 0.535230 0.888250 -0.540450
O14   O     O_R   0.952410 0.035230 0.111750 -0.531909
C61   C     C_R   0.065316 0.372397 0.863042 0.678032
C62   C     C_R   0.934955 0.864955 0.136997 0.678552
O15   O     O_R   0.912020 0.532880 0.904260 -0.531489
O16   O     O_R   0.087980 0.032880 0.095740 -0.538405
O17   O     O_R   0.949590 0.708460 0.099750 -0.539916
O18   O     O_R   0.050410 0.208460 0.900250 -0.532253
C63   C     C_R   0.887495 0.363329 0.878823 0.673299
C64   C     C_R   0.112677 0.865918 0.120852 0.671699
O19   O     O_3   0.012370 0.375360 0.064120 -0.372288
O20   O     O_3   0.987630 0.875360 0.935880 -0.371309
V3    V     V_3+5 0.997700 0.648160 0.988110 1.466371
V4    V     V_3+5 0.002300 0.148160 0.011890 1.467783
I1    I     I_    0.488330 0.125627 0.167030 -0.362469
I2    I     I_    0.513448 0.096750 0.847346 -0.358219
H15   H     H_    0.173659 0.812928 0.981056 0.136944
H16   H     H_    0.826299 0.426626 0.016611 0.135809
I3    I     I_    0.412921 0.680044 0.968356 -0.345523
I4    I     I_    0.585776 0.553374 0.025280 -0.342390
H17   H     H_    0.322943 0.882077 0.521005 0.122268
H18   H     H_    0.677061 0.300635 0.480500 0.122445
H19   H     H_    0.706460 0.082943 0.005348 0.153928
H20   H     H_    0.294600 0.164073 0.003889 0.153289
H21   H     H_    0.978242 0.730583 0.328971 0.141810
H22   H     H_    0.021350 0.477487 0.665613 0.143988
I5    I     I_    0.791909 0.794672 0.517322 -0.470529
I6    I     I_    0.208184 0.393323 0.481157 -0.471200
H23   H     H_    0.918549 0.697498 0.467498 0.179743
H24   H     H_    0.080908 0.491865 0.526696 0.180255
I7    I     I_    0.075248 0.935735 0.532213 -0.428487
I8    I     I_    0.925260 0.257652 0.470291 -0.428909

loop_
_geom_bond_atom_site_label_1
_geom_bond_atom_site_label_2
_ccdc_geom_bond_type
C48   C50   A    
C45   C47   A    
C10   H22   S    
C9    C31   A    
O18   V4    S    
C13   C15   A    
C49   C59   A    
O2    C4    A    
C2    O7    A    
O12   V3    S    
C30   I2    S    
O5    C3    A    
C58   I8    S    
C56   C58   A    
C58   C60   A    
C21   C23   A    
C10   C12   A    
C40   H10   S    
C39   C41   A    
O16   C64   A    
C40   C42   A    
C15   C19   A    
C44   C52   A    
C42   C44   A    
C31   C62   S    
O14   V4    S    
C14   I6    S    
C5    H1    S    
C61   O18   A    
C7    C29   A    
C8    C30   A    
C48   C54   A    
C20   C28   A    
C47   C49   A    
C33   C43   A    
C38   C40   A    
O13   C61   A    
C36   H8    S    
C52   C63   S    
O6    C4    A    
C51   C64   S    
C60   H14   S    
O5    V1    S    
C34   H16   S    
O6    V2    S    
C55   C57   A    
C12   C14   A    
C34   C36   A    
C54   H18   S    
C35   C37   A    
C50   C60   A    
C36   C38   A    
C41   C43   A    
C16   C20   A    
C16   C18   A    
C57   I7    S    
C54   C56   A    
O15   V3    S    
C53   C55   A    
C32   C61   S    
C47   C53   A    
C4    C7    S    
C62   O17   A    
C1    C46   S    
C37   I3    S    
C49   C51   A    
C46   C48   A    
C2    C45   S    
O4    V2    S    
C5    C29   A    
C6    C30   A    
C9    H21   S    
O11   V4    S    
O14   C62   A    
C33   H15   S    
O19   V4    S    
C27   H3    S    
O1    V2    S    
C28   H4    S    
O2    V1    S    
C57   C59   A    
C7    C27   A    
O4    C2    A    
C25   H5    S    
C37   C39   A    
C39   H9    S    
C24   H20   S    
O15   C63   A    
O3    V1    S    
C43   C51   A    
O13   V3    S    
C18   C32   A    
C12   H24   S    
C56   H12   S    
O3    C1    A    
C11   H23   S    
C11   C13   A    
C3    C8    S    
C41   C45   A    
C42   C46   A    
C35   H7    S    
C22   C24   A    
O7    V1    S    
C19   C27   A    
C1    O8    A    
C15   C17   A    
O8    V2    S    
C24   C26   A    
C8    C28   A    
C26   H6    S    
C53   H17   S    
C14   C16   A    
O20   V3    S    
C19   C21   A    
C20   C22   A    
C17   C25   A    
C6    H2    S    
C18   C26   A    
C29   I1    S    
C23   H19   S    
C59   H13   S    
C9    C11   A    
O16   V4    S    
C23   C25   A    
C17   C31   A    
O9    V2    S    
C50   C52   A    
C38   I4    S    
O10   V1    S    
C34   C44   A    
O1    C3    A    
C5    C21   A    
C33   C35   A    
C6    C22   A    
C55   H11   S    
O12   C64   A    
O17   V3    S    
C10   C32   A    
O11   C63   A    
C13   I5    S    
