data_mof_unit_6853.cif
_audit_creation_date              2012-12-10T18:00:16-0500
_audit_creation_method            fapswitch 2.2
_symmetry_space_group_name_H-M    P1
_symmetry_Int_Tables_number       1
_space_group_crystal_system       triclinic
_cell_length_a                    11.001543
_cell_length_b                    9.486193
_cell_length_c                    10.621148
_cell_angle_alpha                 89.805385
_cell_angle_beta                  89.758441
_cell_angle_gamma                 89.881191
_cell_volume                      1108.43372598

loop_
_atom_site_label
_atom_site_type_symbol
_atom_type_description
_atom_site_fract_x
_atom_site_fract_y
_atom_site_fract_z
_atom_type_partial_charge
C1    C     C_R   0.871815 0.489145 0.479120 -0.145380
C2    C     C_R   0.126661 0.491054 0.505632 -0.146093
C3    C     C_R   0.261512 0.498505 0.504448 0.796964
C4    C     C_R   0.737847 0.497986 0.491334 0.797323
C5    C     C_R   0.500433 0.500319 0.259126 0.768850
C6    C     C_R   0.500089 0.499702 0.740927 0.777690
C7    C     C_3   0.502093 0.634271 0.040214 -0.132349
C8    C     C_3   0.499389 0.365868 0.960020 -0.138655
C9    C     C_3   0.601148 0.565061 0.957183 -0.167626
C10   C     C_3   0.400288 0.435063 0.042993 -0.166751
C11   C     C_3   0.401384 0.568130 0.958520 -0.180498
C12   C     C_3   0.600069 0.432050 0.041783 -0.181141
C13   C     C_3   0.500422 0.499046 0.877755 0.026784
C14   C     C_3   0.500922 0.501089 0.122413 0.031075
C15   C     C_R   0.543669 0.074653 0.398789 -0.045283
C16   C     C_R   0.455924 0.925263 0.600932 -0.054258
C17   C     C_R   0.455487 0.074147 0.600786 -0.048790
C18   C     C_R   0.543343 0.925762 0.398724 -0.061254
C19   C     C_R   0.064286 0.357703 0.496886 0.039474
C20   C     C_R   0.938456 0.614672 0.463207 0.051613
C21   C     C_R   0.935487 0.356926 0.488457 0.038280
C22   C     C_R   0.058390 0.617998 0.506181 0.045448
Cu1   Cu    Cu3+1 0.500000 0.640660 0.500000 0.928116
Cu2   Cu    Cu3+1 0.500000 0.359340 0.500000 0.918421
H1    H     H_    0.579891 0.130472 0.318143 0.120395
H2    H     H_    0.420634 0.869146 0.681774 0.140329
H3    H     H_    0.419001 0.129646 0.681251 0.117539
H4    H     H_    0.578271 0.869997 0.317866 0.133993
H5    H     H_    0.320035 0.623831 0.921936 0.121673
H6    H     H_    0.681310 0.376732 0.079320 0.115588
H7    H     H_    0.503476 0.744187 0.075794 0.129634
H8    H     H_    0.498270 0.255928 0.924496 0.126366
H9    H     H_    0.683210 0.617936 0.918548 0.123333
H10   H     H_    0.318224 0.381956 0.081442 0.116645
N1    N     N_R   0.500000 0.852070 0.500000 -0.154070
N2    N     N_R   0.500000 0.147930 0.500000 -0.144726
O1    O     O_R   0.319640 0.618740 0.499990 -0.578098
O2    O     O_R   0.680360 0.381260 0.500010 -0.589410
O3    O     O_R   0.680360 0.618740 0.500010 -0.574950
O4    O     O_R   0.319640 0.381260 0.499990 -0.588349
O5    O     O_R   0.499970 0.618770 0.316850 -0.591540
O6    O     O_R   0.500030 0.381230 0.683150 -0.595509
O7    O     O_R   0.500030 0.618770 0.683150 -0.587740
O8    O     O_R   0.499970 0.381230 0.316850 -0.594603
C23   C     C_3   0.131622 0.214630 0.492356 -0.340317
C24   C     C_3   0.167209 0.180311 0.355102 -0.316718
C25   C     C_3   0.212460 0.029639 0.339886 -0.861948
H11   H     H_    0.282166 0.004608 0.411336 0.273265
H12   H     H_    0.135344 0.955677 0.349683 0.232235
H13   H     H_    0.252902 0.015986 0.244731 0.238342
H14   H     H_    0.087103 0.194865 0.292858 0.195514
H15   H     H_    0.238761 0.253375 0.320885 0.239337
H16   H     H_    0.207410 0.205670 0.559620 0.202560
H17   H     H_    0.080134 0.126392 0.534085 0.175794
C26   C     C_3   0.889831 0.739343 0.386469 -0.402328
C27   C     C_3   0.847047 0.693543 0.255047 -0.325928
C28   C     C_3   0.828789 0.820291 0.168014 -0.882637
H18   H     H_    0.765472 0.897630 0.211109 0.240567
H19   H     H_    0.917173 0.872906 0.149179 0.253512
H20   H     H_    0.790362 0.784661 0.077070 0.240093
H21   H     H_    0.915886 0.622505 0.211668 0.211481
H22   H     H_    0.759982 0.635162 0.262302 0.216557
H23   H     H_    0.816627 0.796206 0.437079 0.219918
H24   H     H_    0.962885 0.817686 0.370607 0.187845
C29   C     C_3   0.869460 0.213442 0.490959 -0.343006
C30   C     C_3   0.841496 0.170837 0.628494 -0.318742
C31   C     C_3   0.791524 0.021847 0.639815 -0.856181
H25   H     H_    0.713537 0.007450 0.576359 0.275181
H26   H     H_    0.862569 0.944189 0.615572 0.237332
H27   H     H_    0.761325 0.001761 0.738124 0.238095
H28   H     H_    0.925575 0.177133 0.685848 0.195845
H29   H     H_    0.774844 0.244965 0.670801 0.240365
H30   H     H_    0.789688 0.208300 0.428604 0.202517
H31   H     H_    0.919779 0.129143 0.441558 0.169472
C32   C     C_3   0.104215 0.754268 0.566020 -0.392221
C33   C     C_3   0.134721 0.733383 0.705943 -0.325145
C34   C     C_3   0.147980 0.874606 0.773253 -0.899037
H32   H     H_    0.214513 0.942848 0.723471 0.243471
H33   H     H_    0.058976 0.930023 0.776944 0.257604
H34   H     H_    0.179755 0.856537 0.871086 0.239621
H35   H     H_    0.061093 0.672569 0.753167 0.213285
H36   H     H_    0.220733 0.673166 0.715711 0.215644
H37   H     H_    0.182009 0.799575 0.514058 0.224075
H38   H     H_    0.033529 0.836934 0.562087 0.186215

loop_
_geom_bond_atom_site_label_1
_geom_bond_atom_site_label_2
_ccdc_geom_bond_type
C15   C18   A    
C26   C27   S    
C1    C21   A    
C8    C13   S    
Cu2   O6    S    
Cu1   O7    S    
C25   H12   S    
C23   C24   S    
C7    C11   S    
Cu2   N2    S    
C19   C21   A    
C16   N1    A    
C32   H38   S    
C15   H1    S    
C24   H15   S    
C29   H30   S    
C27   C28   S    
C9    C13   S    
C7    C14   S    
C30   H29   S    
C30   H28   S    
C16   C17   A    
C26   H23   S    
C2    C22   A    
Cu2   O2    S    
Cu1   Cu2   S    
C17   N2    A    
C18   N1    A    
C34   H32   S    
C12   H6    S    
C30   C31   S    
C23   H16   S    
C9    H9    S    
C22   C32   S    
C20   C26   S    
C25   H13   S    
C34   H33   S    
C16   H2    S    
C7    H7    S    
C31   H25   S    
C8    H8    S    
C18   H4    S    
C33   C34   S    
C10   C14   S    
C33   H36   S    
C28   H20   S    
Cu1   O1    S    
C24   H14   S    
C29   H31   S    
C31   H26   S    
C17   H3    S    
C32   C33   S    
C25   H11   S    
C4    O3    A    
C8    C12   S    
C26   H24   S    
C10   H10   S    
C3    O1    A    
C5    C14   S    
C5    O8    A    
C12   C14   S    
C3    O4    A    
Cu1   N1    S    
C6    O7    A    
Cu2   O8    S    
C27   H22   S    
C15   N2    A    
C34   H34   S    
C7    C9    S    
C5    O5    A    
C24   C25   S    
C1    C20   A    
C21   C29   S    
C2    C19   A    
C20   C22   A    
C33   H35   S    
C23   H17   S    
C19   C23   S    
Cu1   O5    S    
C1    C4    S    
C31   H27   S    
C2    C3    S    
C6    C13   S    
C11   C13   S    
C32   H37   S    
C28   H18   S    
Cu1   O3    S    
Cu2   O4    S    
C9    C12   S    
C28   H19   S    
C10   C11   S    
C11   H5    S    
C8    C10   S    
C29   C30   S    
C6    O6    A    
C27   H21   S    
C4    O2    A    
