data_mof_unit_54587.cif
_audit_creation_date              2012-12-11T17:01:19-0500
_audit_creation_method            fapswitch 2.2
_symmetry_space_group_name_H-M    P1
_symmetry_Int_Tables_number       1
_space_group_crystal_system       triclinic
_cell_length_a                    19.334916
_cell_length_b                    7.14107
_cell_length_c                    17.529188
_cell_angle_alpha                 89.999288
_cell_angle_beta                  108.404462
_cell_angle_gamma                 90.000231
_cell_volume                      2296.49547391

loop_
_atom_site_label
_atom_site_type_symbol
_atom_type_description
_atom_site_fract_x
_atom_site_fract_y
_atom_site_fract_z
_atom_type_partial_charge
O1    O     O_R   0.413720 0.494330 0.415730 -0.544044
O2    O     O_R   0.586280 0.994330 0.584270 -0.544030
O3    O     O_R   0.560210 0.819300 0.430070 -0.536430
O4    O     O_R   0.439790 0.319300 0.569930 -0.536432
C1    C     C_R   0.580797 0.655044 0.414227 0.726039
C2    C     C_R   0.419197 0.155044 0.585766 0.726040
O5    O     O_R   0.412670 0.823730 0.406310 -0.543234
O6    O     O_R   0.587330 0.323730 0.593690 -0.543235
O7    O     O_R   0.437690 0.998790 0.560340 -0.538306
O8    O     O_R   0.562310 0.498790 0.439660 -0.538315
C3    C     C_R   0.385938 0.655429 0.382936 0.710479
C4    C     C_R   0.614061 0.155426 0.617065 0.710508
O9    O     O_3   0.508380 0.662350 0.550560 -0.383110
O10   O     O_3   0.491620 0.162350 0.449440 -0.383117
V1    V     V_3+5 0.498450 0.935370 0.490620 1.396467
V2    V     V_3+5 0.501550 0.435370 0.509380 1.396436
C5    C     C_R   0.695883 0.998009 0.741797 0.112089
C6    C     C_R   0.304121 0.498030 0.258202 0.112064
C7    C     C_R   0.680819 0.148762 0.687942 -0.102826
C8    C     C_R   0.319181 0.648772 0.312059 -0.102818
C9    C     C_R   0.731727 0.296812 0.704743 -0.183732
C10   C     C_R   0.268269 0.796813 0.295259 -0.183678
H1    H     H_    0.722275 0.418593 0.666101 0.130401
H2    H     H_    0.277717 0.918588 0.333903 0.130395
C11   C     C_R   0.797824 0.283594 0.768616 -0.166233
C12   C     C_R   0.202171 0.783584 0.231388 -0.166238
H3    H     H_    0.837502 0.393662 0.777877 0.152892
H4    H     H_    0.162487 0.893634 0.222130 0.152915
C13   C     C_R   0.815657 0.122558 0.816870 -0.100531
C14   C     C_R   0.184345 0.622558 0.183128 -0.100532
C15   C     C_R   0.762731 0.982127 0.802431 0.026202
C16   C     C_R   0.237278 0.482143 0.197563 0.026168
C17   C     C_3   0.767704 0.777061 0.787999 -0.226445
C18   C     C_3   0.232317 0.277069 0.211988 -0.226422
C19   C     C_3   0.691039 0.791770 0.726989 -0.157281
C20   C     C_3   0.308975 0.291794 0.273009 -0.157289
H5    H     H_    0.773151 0.688696 0.841685 0.124381
H6    H     H_    0.226885 0.188720 0.158301 0.124381
H7    H     H_    0.688046 0.755639 0.664222 0.132494
H8    H     H_    0.311960 0.255654 0.335774 0.132492
C21   C     C_R   0.298922 0.105633 0.603066 -0.221620
C22   C     C_R   0.701048 0.605365 0.396904 -0.221604
C23   C     C_R   0.372791 0.145137 0.638359 -0.106235
C24   C     C_R   0.627199 0.645137 0.361630 -0.106249
C25   C     C_R   0.401820 0.173384 0.722351 -0.090976
C26   C     C_R   0.598186 0.673621 0.277651 -0.090992
C27   C     C_R   0.354659 0.171665 0.771272 0.007290
C28   C     C_R   0.645353 0.671969 0.228737 0.007317
C29   C     C_R   0.279059 0.133682 0.733040 0.037026
C30   C     C_R   0.720934 0.633712 0.266952 0.037025
C31   C     C_R   0.252051 0.098447 0.649371 0.114433
C32   C     C_R   0.747918 0.598166 0.350598 0.114416
C33   C     C_R   0.378411 0.205980 0.856170 -0.051913
C34   C     C_R   0.621626 0.706592 0.143862 -0.051897
C35   C     C_R   0.328252 0.205219 0.899064 -0.200179
C36   C     C_R   0.671792 0.705889 0.100978 -0.200219
C37   C     C_R   0.254563 0.167643 0.861178 0.093225
C38   C     C_R   0.745460 0.668011 0.138844 0.093235
C39   C     C_R   0.229733 0.129551 0.778189 0.054031
C40   C     C_R   0.770262 0.629584 0.221805 0.054046
C41   C     C_R   0.155207 0.086996 0.740253 0.104025
C42   C     C_R   0.844760 0.586679 0.259715 0.104008
C43   C     C_R   0.130118 0.050624 0.657596 -0.179494
C44   C     C_R   0.869821 0.549983 0.342346 -0.179501
C45   C     C_R   0.177992 0.057259 0.612539 -0.178490
C46   C     C_R   0.821950 0.556648 0.387405 -0.178479
C47   C     C_R   0.205297 0.166253 0.905453 -0.198994
C48   C     C_R   0.794731 0.666627 0.094575 -0.198978
C49   C     C_R   0.131704 0.122179 0.867981 -0.059980
C50   C     C_R   0.868294 0.622184 0.132017 -0.060020
C51   C     C_R   0.106929 0.081297 0.785626 -0.202584
C52   C     C_R   0.893035 0.580953 0.214341 -0.202606
H9    H     H_    0.277830 0.081351 0.538727 0.111000
H10   H     H_    0.722125 0.580870 0.461229 0.111017
H11   H     H_    0.347032 0.233345 0.963179 0.131467
H12   H     H_    0.653032 0.734265 0.036882 0.131456
H13   H     H_    0.224290 0.196087 0.969405 0.097344
H14   H     H_    0.775761 0.696727 0.030645 0.097378
H15   H     H_    0.049968 0.046906 0.756928 0.119823
H16   H     H_    0.949972 0.546282 0.243018 0.119874
H17   H     H_    0.073261 0.017933 0.627621 0.133358
H18   H     H_    0.926657 0.517018 0.372301 0.133361
H19   H     H_    0.156999 0.029756 0.548528 0.133652
H20   H     H_    0.842923 0.528893 0.451398 0.133636
O11   O     O_R   0.937800 0.775460 0.060470 -0.535271
O12   O     O_R   0.062200 0.275460 0.939530 -0.535270
O13   O     O_R   0.087350 0.441340 0.093710 -0.537836
O14   O     O_R   0.912650 0.941340 0.906290 -0.537844
C53   C     C_R   0.114583 0.610148 0.116359 0.692350
C54   C     C_R   0.885419 0.110149 0.883640 0.692335
O15   O     O_R   0.939820 0.446010 0.069950 -0.535927
O16   O     O_R   0.060180 0.946010 0.930050 -0.535920
O17   O     O_R   0.913690 0.271230 0.915700 -0.541832
O18   O     O_R   0.086310 0.771230 0.084300 -0.541831
C55   C     C_R   0.918652 0.614267 0.084386 0.698906
C56   C     C_R   0.081347 0.114267 0.915613 0.698905
O19   O     O_3   0.991670 0.603050 0.949510 -0.371795
O20   O     O_3   0.008330 0.103050 0.050490 -0.371792
V3    V     V_3+5 0.001550 0.329940 0.009370 1.442802
V4    V     V_3+5 0.998450 0.829940 0.990630 1.442801
C57   C     C_1   0.823786 0.741502 0.748885 0.309692
N1    N     N_1   0.867769 0.715338 0.718068 -0.376269
C58   C     C_1   0.176228 0.241476 0.251088 0.309702
N2    N     N_1   0.132239 0.215291 0.281896 -0.376309
C59   C     C_3   0.628772 0.700153 0.752067 -0.294154
C60   C     C_3   0.625627 0.754668 0.836295 -0.320655
C61   C     C_3   0.552656 0.700945 0.846493 -0.692438
H21   H     H_    0.507114 0.771869 0.800469 0.223601
H22   H     H_    0.544697 0.547556 0.840852 0.258685
H23   H     H_    0.551539 0.744494 0.906876 0.226699
H24   H     H_    0.669910 0.682733 0.883444 0.184012
H25   H     H_    0.632553 0.907789 0.846377 0.227878
H26   H     H_    0.576573 0.740714 0.706340 0.200421
H27   H     H_    0.633535 0.545568 0.749138 0.194312
C62   C     C_3   0.371262 0.200231 0.247951 -0.294126
C63   C     C_3   0.374399 0.254692 0.163713 -0.320639
C64   C     C_3   0.447430 0.201342 0.153580 -0.692304
H28   H     H_    0.492894 0.272661 0.199550 0.223569
H29   H     H_    0.455548 0.048021 0.159362 0.258655
H30   H     H_    0.448516 0.244709 0.093163 0.226711
H31   H     H_    0.330186 0.182481 0.116584 0.184033
H32   H     H_    0.367352 0.407768 0.153555 0.227776
H33   H     H_    0.423450 0.240880 0.293674 0.200433
H34   H     H_    0.366531 0.045642 0.250911 0.194304
C65   C     C_1   0.480161 0.194908 0.755405 0.269945
N3    N     N_1   0.542881 0.210422 0.780478 -0.384179
C66   C     C_1   0.519846 0.695215 0.244594 0.269814
N4    N     N_1   0.457127 0.710762 0.219516 -0.384055
C67   C     C_1   0.453095 0.243892 0.903364 0.329831
N5    N     N_1   0.512629 0.274050 0.942235 -0.344233
C68   C     C_1   0.546957 0.744736 0.096680 0.329747
N6    N     N_1   0.487436 0.775067 0.057815 -0.344233

loop_
_geom_bond_atom_site_label_1
_geom_bond_atom_site_label_2
_ccdc_geom_bond_type
C43   C45   A    
C57   N1    T    
C36   H12   S    
C61   H22   S    
C19   H7    S    
C47   H13   S    
C49   C56   S    
O2    C4    A    
C2    O7    A    
C51   H15   S    
C32   C46   A    
C27   C29   A    
C60   H25   S    
O5    C3    A    
C34   C68   S    
C63   H32   S    
C43   H17   S    
C19   C59   S    
C10   H2    S    
C59   H26   S    
C7    C9    A    
C64   H29   S    
C37   C39   A    
C60   C61   S    
C38   C40   A    
C62   C63   S    
O16   C56   A    
C63   C64   S    
C40   C42   A    
C31   C45   A    
C25   C27   A    
C53   O18   A    
C49   C51   A    
C42   C44   A    
C17   C19   S    
C25   C65   S    
C29   C31   A    
O1    C3    A    
C30   C32   A    
C61   H21   S    
C15   C17   S    
O17   V3    S    
C18   C20   S    
C27   C33   A    
C35   H11   S    
C41   C51   A    
C28   C30   A    
O6    V2    S    
C11   C13   A    
C21   C23   A    
C22   C24   A    
C37   C47   A    
C14   C53   S    
C13   C54   S    
O19   V3    S    
C24   C26   A    
O13   V3    S    
C60   H24   S    
C33   C35   A    
C48   H14   S    
C34   C36   A    
C3    C8    S    
C39   C41   A    
C62   H33   S    
C63   H31   S    
C59   H27   S    
C20   H8    S    
O4    C2    A    
C64   H30   S    
C16   C18   S    
C46   H20   S    
C17   H5    S    
C47   C49   A    
C44   C46   A    
O4    V2    S    
C28   C34   A    
C35   C37   A    
O2    V1    S    
C26   C66   S    
O18   V4    S    
O6    C4    A    
C41   C43   A    
C42   C52   A    
O1    V2    S    
O12   V3    S    
C23   C25   A    
C44   H18   S    
O14   V4    S    
C22   H10   S    
O12   C56   A    
C38   C48   A    
C1    C24   S    
C8    C10   A    
C12   C14   A    
O20   V4    S    
C2    C23   S    
C9    H1    S    
C65   N3    T    
C5    C15   A    
C61   H23   S    
C17   C57   S    
C6    C16   A    
C68   N6    T    
O19   V4    S    
O3    V1    S    
O16   V4    S    
C54   O17   A    
C67   N5    T    
C9    C11   A    
C62   H34   S    
C18   H6    S    
O14   C54   A    
O3    C1    A    
C11   H3    S    
C59   C60   S    
C12   H4    S    
C18   C58   S    
C29   C39   A    
C30   C40   A    
O13   C53   A    
C50   C55   S    
O7    V1    S    
C1    O8    A    
C52   H16   S    
O11   V4    S    
O8    V2    S    
C64   H28   S    
C14   C16   A    
O11   C55   A    
C4    C7    S    
O5    V1    S    
C5    C7    A    
C36   C38   A    
C6    C8    A    
C45   H19   S    
C21   H9    S    
C26   C28   A    
C33   C67   S    
O15   C55   A    
C13   C15   A    
O20   V3    S    
C10   C12   A    
O9    V2    S    
C58   N2    T    
C48   C50   A    
O10   V1    S    
C50   C52   A    
C5    C19   S    
O15   V3    S    
C20   C62   S    
C6    C20   S    
C21   C31   A    
C66   N4    T    
C22   C32   A    
