data_mof_unit_63701.cif
_audit_creation_date              2012-10-26T19:30:11-0400
_audit_creation_method            fapswitch 2.2
_symmetry_space_group_name_H-M    P1
_symmetry_Int_Tables_number       1
_space_group_crystal_system       triclinic
_cell_length_a                    15.863144
_cell_length_b                    10.604873
_cell_length_c                    9.524007
_cell_angle_alpha                 89.611924
_cell_angle_beta                  90.726878
_cell_angle_gamma                 90.097384
_cell_volume                      1602.02381257

loop_
_atom_site_label
_atom_site_type_symbol
_atom_type_description
_atom_site_fract_x
_atom_site_fract_y
_atom_site_fract_z
_atom_type_partial_charge
Br1   Br    Br    0.932391 0.208378 0.526272 -0.419322
Br2   Br    Br    0.067610 0.791621 0.473729 -0.419320
Br3   Br    Br    0.375453 0.715307 0.873564 -0.403660
Br4   Br    Br    0.624547 0.284692 0.126436 -0.403659
Br5   Br    Br    0.572631 0.767313 0.110211 -0.465127
Br6   Br    Br    0.427369 0.232687 0.889789 -0.465128
C1    C     C_R   0.499864 0.259754 0.500116 0.558061
C2    C     C_3   0.473598 0.392932 0.950632 0.219993
C3    C     C_3   0.451559 0.587750 0.947732 0.247087
C4    C     C_3   0.548441 0.412250 0.052268 0.247088
C5    C     C_3   0.573685 0.518758 0.952684 0.153739
C6    C     C_3   0.426315 0.481242 0.047316 0.153739
C7    C     C_R   0.340266 0.500009 0.499271 0.546837
C8    C     C_R   0.659735 0.499990 0.500729 0.546836
C9    C     C_3   0.972348 0.380653 0.512019 0.170646
C10   C     C_3   0.027652 0.619345 0.487982 0.170647
C11   C     C_3   0.026757 0.433975 0.393242 0.089762
C12   C     C_R   0.500136 0.740246 0.499884 0.558061
C13   C     C_3   0.973243 0.566023 0.606760 0.089763
C14   C     C_1   0.250649 0.500273 0.498025 0.039503
C15   C     C_1   0.749351 0.499727 0.501975 0.039505
C16   C     C_3   0.029629 0.448184 0.621969 -0.093166
C17   C     C_3   0.970372 0.551814 0.378032 -0.093160
C18   C     C_3   0.083558 0.500944 0.500262 0.021117
C19   C     C_3   0.916442 0.499054 0.499739 0.021123
C20   C     C_1   0.175154 0.500572 0.498488 0.030090
C21   C     C_1   0.824846 0.499427 0.501512 0.030098
C22   C     C_3   0.568377 0.041923 0.570223 -0.114706
C23   C     C_3   0.570170 0.958929 0.437406 -0.102065
C24   C     C_3   0.431623 0.958077 0.429776 -0.114707
C25   C     C_3   0.429830 0.041070 0.562594 -0.102066
C26   C     C_3   0.500211 0.877391 0.500263 0.028404
C27   C     C_3   0.499789 0.122609 0.499737 0.028404
C28   C     C_3   0.498444 0.958135 0.633319 -0.075809
C29   C     C_3   0.501556 0.041865 0.366681 -0.075810
C30   C     C_3   0.526402 0.607068 0.049368 0.219993
Cu1   Cu    Cu3+1 0.500020 0.499990 0.643150 1.071398
Cu2   Cu    Cu3+1 0.499980 0.500010 0.356850 1.071398
H1    H     H_    0.946087 0.592323 0.277665 0.160003
H2    H     H_    0.091999 0.285498 0.316608 0.264960
H3    H     H_    0.994701 0.676101 0.777015 0.269884
H4    H     H_    0.908019 0.714515 0.683400 0.264972
H5    H     H_    0.699196 0.545308 0.984717 0.255794
H6    H     H_    0.658021 0.629598 0.851281 0.254679
H7    H     H_    0.300803 0.454693 0.015283 0.255794
H8    H     H_    0.341979 0.370401 0.148718 0.254678
H9    H     H_    0.053914 0.407674 0.722335 0.160002
H10   H     H_    0.627706 0.922458 0.386562 0.177438
H11   H     H_    0.372294 0.077542 0.613438 0.177438
H12   H     H_    0.624213 0.079406 0.627788 0.166987
H13   H     H_    0.375787 0.920594 0.372212 0.166987
H14   H     H_    0.497513 0.921829 0.742872 0.206076
H15   H     H_    0.502487 0.078171 0.257128 0.206076
H16   H     H_    0.005302 0.323868 0.223008 0.269893
N1    N     N_3   0.500060 0.499970 0.858290 -0.257694
N2    N     N_3   0.499940 0.500030 0.141710 -0.257694
N3    N     N_3   0.057776 0.361576 0.275305 -0.578890
N4    N     N_3   0.942226 0.638420 0.724698 -0.578894
N5    N     N_3   0.657924 0.540363 0.898532 -0.532836
N6    N     N_3   0.342076 0.459637 0.101468 -0.532837
O1    O     O_R   0.500040 0.316850 0.620870 -0.456166
O2    O     O_R   0.499960 0.683150 0.379130 -0.456167
O3    O     O_R   0.500000 0.316860 0.379090 -0.489024
O4    O     O_R   0.500000 0.683140 0.620910 -0.489023
O5    O     O_R   0.379090 0.499980 0.620870 -0.465929
O6    O     O_R   0.620910 0.500020 0.379130 -0.465929
O7    O     O_R   0.379060 0.499990 0.379090 -0.478084
O8    O     O_R   0.620940 0.500010 0.620910 -0.478083

loop_
_geom_bond_atom_site_label_1
_geom_bond_atom_site_label_2
_ccdc_geom_bond_type
C24   H13   S    
Cu1   O8    S    
H7    N6    S    
C29   H15   S    
H4    N4    S    
C7    O5    A    
C11   C17   S    
C24   C29   S    
C30   N2    S    
C8    C15   S    
C5    C30   S    
C18   C20   S    
H3    N4    S    
C23   C26   S    
C24   C25   S    
C9    C19   S    
H6    N5    S    
Br5   C30   S    
C1    O1    A    
C26   C28   S    
C22   H12   S    
C9    C16   S    
Cu2   O6    S    
Cu1   O5    S    
C3    C30   S    
C25   C27   S    
Br1   C9    S    
Br2   C10   S    
H5    N5    S    
C16   H9    S    
C15   C21   T    
C22   C28   S    
C10   C18   S    
C1    C27   S    
C25   H11   S    
C5    N5    S    
C2    N1    S    
C13   N4    S    
C11   C18   S    
C23   H10   S    
C13   C16   S    
C12   O2    A    
Br6   C2    S    
C6    N6    S    
Cu1   Cu2   S    
Br3   C3    S    
C2    C6    S    
C8    O6    A    
C25   C28   S    
C1    O3    A    
C6    N2    S    
C3    N1    S    
C4    N2    S    
C22   C27   S    
C10   C17   S    
C16   C18   S    
C12   C26   S    
Br4   C4    S    
Cu1   O4    S    
C5    N1    S    
Cu2   O3    S    
C7    O7    A    
C9    C11   S    
C22   C23   S    
H2    N3    S    
C7    C14   S    
H8    N6    S    
Cu1   O1    S    
C19   C21   S    
C23   C29   S    
C28   H14   S    
C24   C26   S    
C12   O4    A    
C14   C20   T    
C10   C13   S    
C17   H1    S    
C27   C29   S    
C17   C19   S    
C13   C19   S    
C3    C6    S    
C4    C5    S    
Cu1   N1    S    
Cu2   N2    S    
Cu2   O7    S    
C2    C4    S    
C8    O8    A    
C11   N3    S    
Cu2   O2    S    
H16   N3    S    
