data_mof_unit_25215.cif
_audit_creation_date              2012-12-11T14:56:46-0500
_audit_creation_method            fapswitch 2.2
_symmetry_space_group_name_H-M    P1
_symmetry_Int_Tables_number       1
_space_group_crystal_system       triclinic
_cell_length_a                    10.523144
_cell_length_b                    10.66605
_cell_length_c                    17.063113
_cell_angle_alpha                 80.385098
_cell_angle_beta                  89.604906
_cell_angle_gamma                 119.170298
_cell_volume                      1640.09110114

loop_
_atom_site_label
_atom_site_type_symbol
_atom_type_description
_atom_site_fract_x
_atom_site_fract_y
_atom_site_fract_z
_atom_type_partial_charge
C1    C     C_R   0.278851 0.888788 0.132673 0.558978
C2    C     C_1   0.684288 0.402039 0.709950 -0.049400
C3    C     C_R   0.624972 0.712877 0.804946 -0.138209
C4    C     C_R   0.636262 0.280540 0.086077 0.538790
C5    C     C_R   0.610414 0.697737 0.726660 -0.138278
C6    C     C_R   0.669430 0.822205 0.665494 0.031285
C7    C     C_R   0.748958 0.962231 0.682886 -0.141943
C8    C     C_R   0.759757 0.977762 0.761906 -0.140316
C9    C     C_R   0.691511 0.852754 0.822990 0.021873
C10   C     C_R   0.083091 0.883452 0.790466 -0.135047
C11   C     C_R   0.066694 0.880170 0.710938 -0.124466
C12   C     C_R   0.798632 0.422385 0.262787 -0.127446
C13   C     C_R   0.114675 0.802249 0.671995 0.031919
C14   C     C_R   0.166667 0.716413 0.714864 -0.136716
C15   C     C_R   0.184868 0.721023 0.794839 -0.124418
C16   C     C_R   0.643391 0.855717 0.124251 0.545278
C17   C     C_R   0.150520 0.811418 0.831311 0.025707
C18   C     C_R   0.711406 0.772671 0.353452 0.561875
C19   C     C_R   0.689263 0.396044 0.394626 0.551194
C20   C     C_R   0.108397 0.812529 0.359949 0.546387
C21   C     C_R   0.677346 0.800169 0.585456 0.544827
C22   C     C_R   0.717131 0.446201 0.625988 0.562163
C23   C     C_R   0.788529 0.409781 0.183999 -0.130019
C24   C     C_R   0.089896 0.798617 0.589436 0.544493
C25   C     C_R   0.216408 0.858052 0.902429 0.557203
C26   C     C_R   0.640364 0.290742 0.861914 0.550375
C27   C     C_R   0.648027 0.866743 0.899673 0.545813
C28   C     C_R   0.524405 0.303460 0.205851 -0.129695
C29   C     C_R   0.534894 0.317987 0.285037 -0.135714
C30   C     C_R   0.671378 0.370876 0.314320 0.029404
C31   C     C_R   0.650891 0.342474 0.156519 0.027395
C32   C     C_1   0.685032 0.831601 0.201664 -0.028941
C33   C     C_1   0.703635 0.807473 0.270344 -0.031911
C34   C     C_1   0.227714 0.854148 0.215421 -0.043217
C35   C     C_1   0.179058 0.834563 0.283082 -0.045835
C36   C     C_1   0.661934 0.358005 0.780521 -0.046324
Cr1   Cr    Cr6+3 0.402240 0.783890 0.019450 1.024149
Cr2   Cr    Cr6+3 0.382360 0.097900 0.991800 1.020398
Cr3   Cr    Cr6+3 0.715380 0.118170 0.988700 1.024758
Cr4   Cr    Cr6+3 0.936650 0.882420 0.465510 1.022851
Cr5   Cr    Cr6+3 0.605770 0.565620 0.493360 1.025043
Cr6   Cr    Cr6+3 0.921340 0.550490 0.496380 1.018252
H1    H     H_    0.017823 0.940424 0.679713 0.148643
H2    H     H_    0.052953 0.950798 0.818246 0.134459
H3    H     H_    0.416712 0.251925 0.185194 0.142675
H4    H     H_    0.573365 0.615438 0.851568 0.130811
H5    H     H_    0.197789 0.650891 0.686011 0.130069
H6    H     H_    0.236026 0.663068 0.826030 0.143134
H7    H     H_    0.437107 0.284259 0.323703 0.135409
H8    H     H_    0.906581 0.472361 0.283318 0.146564
H9    H     H_    0.887223 0.443124 0.146204 0.141867
H10   H     H_    0.555201 0.588215 0.714014 0.134701
H11   H     H_    0.800911 0.058480 0.635587 0.137078
H12   H     H_    0.811541 0.087001 0.774969 0.146843
O1    O     O_R   0.521780 0.757110 0.108900 -0.513722
O2    O     O_R   0.805020 0.410040 0.421340 -0.514786
O3    O     O_R   0.049240 0.685450 0.403290 -0.499763
O4    O     O_R   0.275160 0.783810 0.101120 -0.492876
O5    O     O_R   0.077520 0.903010 0.551800 -0.518739
O6    O     O_R   0.802980 0.872780 0.546830 -0.504739
O7    O     O_R   0.578090 0.681300 0.569920 -0.522003
O8    O     O_R   0.608530 0.436370 0.586530 -0.491426
O9    O     O_R   0.798770 0.401880 0.597100 -0.503361
O10   O     O_R   0.043450 0.677890 0.566230 -0.515654
O11   O     O_3   0.821250 0.666180 0.485090 -0.299037
O12   O     O_R   0.513330 0.228330 0.898660 -0.495365
O13   O     O_R   0.237900 0.972600 0.090980 -0.510136
O14   O     O_R   0.511190 0.220540 0.061620 -0.524768
O15   O     O_R   0.736920 0.257720 0.063840 -0.514747
O16   O     O_R   0.710450 0.984050 0.081720 -0.493756
O17   O     O_R   0.524090 0.765520 0.933110 -0.519947
O18   O     O_R   0.277300 0.791600 0.938160 -0.502305
O19   O     O_R   0.240210 0.981010 0.915190 -0.512285
O20   O     O_R   0.739230 0.266130 0.888050 -0.511122
O21   O     O_R   0.712580 0.991850 0.918770 -0.504890
O22   O     O_3   0.499990 0.999980 0.999980 -0.264551
O23   O     O_R   0.083770 0.911170 0.376030 -0.510363
O24   O     O_R   0.808770 0.880340 0.383890 -0.484471
O25   O     O_R   0.584340 0.689460 0.394160 -0.499311
O26   O     O_R   0.614320 0.443940 0.423590 -0.510647

loop_
_geom_bond_atom_site_label_1
_geom_bond_atom_site_label_2
_ccdc_geom_bond_type
C19   O2    A    
Cr4   O6    S    
Cr5   O7    S    
Cr5   O26   S    
C7    C8    A    
C29   H7    S    
C12   C23   A    
C20   O23   A    
C15   H6    S    
C28   C29   A    
C5    C6    A    
C10   C17   A    
C34   C35   T    
Cr3   O20   S    
Cr6   O2    S    
C22   O9    A    
C20   C35   S    
Cr2   O12   S    
C18   O25   A    
C2    C22   S    
Cr6   O11   S    
C5    H10   S    
C11   H1    S    
Cr3   O21   S    
C21   O7    A    
Cr1   O4    S    
C24   O10   A    
Cr4   O5    S    
C13   C14   A    
Cr5   O8    S    
C27   O21   A    
Cr6   O3    S    
C4    O15   A    
C1    C34   S    
C28   H3    S    
C10   H2    S    
C26   O12   A    
C16   O16   A    
C21   O6    A    
C8    H12   S    
C4    O14   A    
C8    C9    A    
Cr2   O22   S    
C6    C21   S    
C13   C24   S    
C23   C31   A    
C29   C30   A    
C3    C9    A    
C22   O8    A    
C23   H9    S    
C18   O24   A    
Cr3   O15   S    
C25   O18   A    
Cr3   O22   S    
C6    C7    A    
C26   C36   S    
Cr1   O22   S    
Cr2   O14   S    
Cr4   O11   S    
Cr1   O17   S    
Cr4   O24   S    
C7    H11   S    
Cr6   O10   S    
C27   O17   A    
C9    C27   S    
C2    C36   T    
C15   C17   A    
C12   C30   A    
C14   C15   A    
C28   C31   A    
C3    C5    A    
Cr5   O25   S    
C12   H8    S    
C14   H5    S    
C1    O13   A    
C16   C32   S    
C3    H4    S    
C17   C25   S    
C32   C33   T    
C16   O1    A    
C1    O4    A    
C11   C13   A    
C24   O5    A    
C26   O20   A    
Cr3   O16   S    
C25   O19   A    
Cr5   O11   S    
C19   O26   A    
C18   C33   S    
C4    C31   S    
C10   C11   A    
Cr1   O1    S    
Cr2   O13   S    
Cr1   O18   S    
Cr4   O23   S    
C20   O3    A    
C19   C30   S    
Cr6   O9    S    
Cr2   O19   S    
