data_mof_unit_12945.cif
_audit_creation_date              2012-12-10T17:25:19-0500
_audit_creation_method            fapswitch 2.2
_symmetry_space_group_name_H-M    P1
_symmetry_Int_Tables_number       1
_space_group_crystal_system       triclinic
_cell_length_a                    27.796035
_cell_length_b                    10.792423
_cell_length_c                    9.595465
_cell_angle_alpha                 90.48479
_cell_angle_beta                  90.107147
_cell_angle_gamma                 93.180679
_cell_volume                      2873.96558348

loop_
_atom_site_label
_atom_site_type_symbol
_atom_type_description
_atom_site_fract_x
_atom_site_fract_y
_atom_site_fract_z
_atom_type_partial_charge
C1    C     C_R   0.505724 0.264016 0.500535 0.811217
C2    C     C_R   0.281057 0.455619 0.640808 0.208893
C3    C     C_R   0.253024 0.492316 0.528067 0.328329
C4    C     C_R   0.102079 0.488204 0.575195 -0.122007
C5    C     C_R   0.124528 0.376090 0.542682 -0.070936
C6    C     C_R   0.096099 0.261658 0.539873 0.165143
C7    C     C_R   0.130431 0.601312 0.592713 -0.017120
C8    C     C_R   0.354038 0.497725 0.503239 -0.099238
C9    C     C_R   0.646191 0.496111 0.502520 -0.087862
C10   C     C_R   0.972384 0.379353 0.551566 0.050792
C11   C     C_R   0.976954 0.598584 0.623501 0.051107
C12   C     C_R   0.407403 0.500235 0.499944 0.818323
C13   C     C_R   0.949411 0.489810 0.583271 0.075520
C14   C     C_R   0.944420 0.278922 0.492525 -0.214450
C15   C     C_R   0.894609 0.281032 0.482513 -0.151492
C16   C     C_R   0.871143 0.386349 0.524141 -0.023917
C17   C     C_R   0.898504 0.491928 0.572044 -0.050107
C18   C     C_R   0.874984 0.600036 0.606851 -0.021881
C19   C     C_R   0.824786 0.601444 0.590595 0.531089
C20   C     C_R   0.820893 0.390165 0.514328 0.542859
C21   C     C_R   0.725803 0.485843 0.393012 0.215562
C22   C     C_R   0.674692 0.474716 0.381844 0.132238
C23   C     C_R   0.498024 0.737958 0.500976 0.784032
C24   C     C_R   0.669280 0.516160 0.631853 -0.281395
C25   C     C_R   0.718928 0.515665 0.643723 -0.151246
C26   C     C_R   0.747500 0.501220 0.526078 0.318393
C27   C     C_R   0.023009 0.375041 0.569967 -0.005735
C28   C     C_R   0.051067 0.487616 0.587096 0.025097
C29   C     C_R   0.028192 0.599312 0.616658 0.021478
C30   C     C_R   0.046572 0.261882 0.572231 0.168466
C31   C     C_R   0.107309 0.711706 0.627695 0.174047
C32   C     C_R   0.951975 0.703751 0.664954 -0.215806
C33   C     C_R   0.902038 0.704360 0.655990 -0.146132
C34   C     C_R   0.592670 0.497943 0.499976 0.786275
C35   C     C_R   0.057162 0.709079 0.635997 -0.197542
C36   C     C_R   0.529338 0.118676 0.763072 0.139548
C37   C     C_R   0.511500 0.065199 0.886452 -0.153626
C38   C     C_R   0.482201 0.955749 0.881589 0.191624
C39   C     C_R   0.476159 0.891747 0.754863 -0.170774
C40   C     C_R   0.496096 0.941693 0.630631 0.008863
C41   C     C_R   0.514051 0.066024 0.632631 0.086567
C42   C     C_R   0.514312 0.131226 0.504455 -0.107145
C43   C     C_R   0.514471 0.064798 0.378894 -0.215514
C44   C     C_R   0.509313 0.936709 0.379541 -0.209443
C45   C     C_R   0.175112 0.382551 0.521672 0.552845
C46   C     C_R   0.498686 0.873649 0.503838 -0.087276
C47   C     C_R   0.561887 0.671872 0.145706 -0.225151
C48   C     C_R   0.590977 0.758694 0.074573 -0.212685
C49   C     C_R   0.591166 0.759037 0.930261 0.178430
C50   C     C_R   0.562037 0.671112 0.857800 -0.150729
C51   C     C_R   0.530283 0.584710 0.926319 0.139939
C52   C     C_R   0.530153 0.585072 0.075754 0.167750
C53   C     C_R   0.471739 0.416357 0.070489 0.244250
C54   C     C_R   0.471558 0.419090 0.922918 -0.071492
C55   C     C_R   0.180872 0.599179 0.574336 0.537445
C56   C     C_R   0.275199 0.532120 0.404308 -0.138299
C57   C     C_R   0.325521 0.536132 0.390119 0.124890
C58   C     C_R   0.331096 0.457924 0.627049 -0.246547
Cu1   Cu    Cu3+1 0.500000 0.499990 0.640660 0.917480
Cu2   Cu    Cu3+1 0.500000 0.500010 0.359340 0.921872
H1    H     H_    0.874689 0.200619 0.439020 0.189285
N1    N     N_R   0.201477 0.491655 0.539868 -0.455624
N2    N     N_R   0.798841 0.497647 0.544047 -0.460974
N3    N     N_R   0.500460 0.501210 0.147910 -0.188486
N4    N     N_R   0.500480 0.501290 0.852040 -0.218042
O1    O     O_R   0.500000 0.319640 0.618810 -0.571070
O2    O     O_2   0.794238 0.287510 0.474670 -0.536246
O3    O     O_2   0.209727 0.702917 0.589921 -0.547518
O4    O     O_2   0.802159 0.706080 0.619383 -0.539671
O5    O     O_R   0.500000 0.319660 0.381240 -0.580549
O6    O     O_R   0.430260 0.500010 0.618770 -0.580942
O7    O     O_R   0.430270 0.500030 0.381200 -0.576245
O8    O     O_R   0.500000 0.680340 0.618760 -0.603121
O9    O     O_R   0.500000 0.680360 0.381190 -0.595717
O10   O     O_R   0.569730 0.499970 0.618800 -0.606146
O11   O     O_R   0.569740 0.499990 0.381230 -0.591658
O12   O     O_2   0.198599 0.281448 0.484789 -0.550814
H2    H     H_    0.352315 0.428287 0.714294 0.166781
H3    H     H_    0.252784 0.561049 0.319349 0.144132
C59   C     C_3   0.134185 0.835001 0.657421 -0.767856
H4    H     H_    0.109790 0.907934 0.690025 0.193419
H5    H     H_    0.159900 0.825430 0.744821 0.260423
H6    H     H_    0.153235 0.868897 0.562358 0.264000
H7    H     H_    0.969755 0.787287 0.706422 0.139900
H8    H     H_    0.648867 0.531053 0.725981 0.180669
H9    H     H_    0.884737 0.787797 0.686859 0.186843
H10   H     H_    0.735488 0.527467 0.745599 0.161712
H11   H     H_    0.041429 0.796546 0.654370 0.137241
H12   H     H_    0.518508 0.111595 0.280047 0.149816
C60   C     C_3   0.570136 0.216403 0.775590 -0.790070
H13   H     H_    0.585482 0.242504 0.672571 0.226755
H14   H     H_    0.599724 0.179339 0.837988 0.213801
H15   H     H_    0.557838 0.300064 0.829715 0.251180
H16   H     H_    0.521102 0.107917 0.986059 0.137638
C61   C     C_3   0.257868 0.415782 0.776159 -0.829013
H17   H     H_    0.285089 0.393705 0.855786 0.221377
H18   H     H_    0.236491 0.491505 0.818198 0.235349
H19   H     H_    0.233733 0.331647 0.758920 0.249883
C62   C     C_3   0.459216 0.903406 0.011168 -0.870681
H20   H     H_    0.464589 0.968511 0.100630 0.225276
H21   H     H_    0.419837 0.887138 0.994270 0.238114
H22   H     H_    0.474882 0.814035 0.036907 0.243400
H23   H     H_    0.454112 0.806009 0.754223 0.178620
H24   H     H_    0.512610 0.887276 0.281801 0.173048
C63   C     C_3   0.442431 0.310402 0.135380 -0.789187
H25   H     H_    0.415720 0.267782 0.060414 0.182996
H26   H     H_    0.466385 0.236273 0.164014 0.224500
H27   H     H_    0.421327 0.338666 0.225564 0.263086
H28   H     H_    0.566750 0.675293 0.255426 0.215165
H29   H     H_    0.614186 0.824339 0.133050 0.159164
C64   C     C_3   0.622878 0.851416 0.851693 -0.848407
H30   H     H_    0.643574 0.915977 0.923254 0.237168
H31   H     H_    0.648757 0.801727 0.786647 0.239028
H32   H     H_    0.600379 0.906964 0.782884 0.241039
H33   H     H_    0.566086 0.673738 0.747986 0.208815
H34   H     H_    0.449143 0.352326 0.863691 0.151777
C65   C     C_3   0.117625 0.138709 0.505548 -0.762557
H35   H     H_    0.090724 0.059407 0.498922 0.211428
H36   H     H_    0.134359 0.142909 0.400664 0.260864
H37   H     H_    0.144416 0.116533 0.586251 0.254850
C66   C     C_3   0.651161 0.436568 0.244126 -0.815892
H38   H     H_    0.676506 0.400643 0.166844 0.226704
H39   H     H_    0.623676 0.359453 0.260457 0.238430
H40   H     H_    0.634531 0.517107 0.196899 0.245678
C67   C     C_3   0.757055 0.485935 0.263802 -0.814656
H41   H     H_    0.742924 0.549333 0.184872 0.226625
H42   H     H_    0.794738 0.520139 0.284840 0.229777
H43   H     H_    0.757589 0.390603 0.219716 0.248958
H44   H     H_    0.960801 0.198947 0.449156 0.166923
C68   C     C_3   0.022124 0.146760 0.637101 -0.893783
H45   H     H_    0.046683 0.106710 0.714069 0.238731
H46   H     H_    0.989376 0.168646 0.696418 0.247139
H47   H     H_    0.012397 0.075232 0.556606 0.223387
C69   C     C_3   0.347262 0.585014 0.256151 -0.803649
H48   H     H_    0.319496 0.619930 0.185331 0.219677
H49   H     H_    0.373796 0.663394 0.278702 0.240989
H50   H     H_    0.365017 0.509946 0.199825 0.242194

loop_
_geom_bond_atom_site_label_1
_geom_bond_atom_site_label_2
_ccdc_geom_bond_type
C10   C27   A    
C48   H29   S    
C21   C26   A    
C41   C42   A    
C20   O2    S    
C61   H17   S    
C7    C55   A    
C43   C44   A    
C69   H50   S    
C55   O3    S    
C44   H24   S    
C61   H19   S    
C31   C59   S    
C54   N4    A    
C53   C54   A    
C40   C46   A    
C63   H26   S    
C43   H12   S    
C56   H3    S    
C60   H15   S    
C28   C29   A    
C18   C19   A    
C59   H6    S    
Cu1   O1    S    
C5    C6    A    
C53   N3    A    
C9    C22   A    
Cu2   O7    S    
C15   C16   A    
C55   N1    A    
C45   N1    A    
C25   H10   S    
C56   C57   A    
C50   H33   S    
C51   N4    A    
C66   H40   S    
C8    C58   A    
C62   H20   S    
C19   N2    A    
C16   C17   A    
C54   H34   S    
C67   H43   S    
C24   H8    S    
Cu1   O8    S    
C6    C65   S    
C8    C12   S    
C34   O10   A    
C49   C64   S    
C12   O7    A    
Cu1   Cu2   S    
C23   C46   S    
C21   C22   A    
C27   C30   A    
C36   C41   A    
C23   O8    A    
C4    C7    A    
C4    C28   A    
C44   C46   A    
C17   C18   A    
C38   C39   A    
C32   H7    S    
C63   H27   S    
C7    C31   A    
C51   C52   A    
C24   C25   A    
C59   H5    S    
C10   C14   A    
C65   H37   S    
C39   C40   A    
C59   H4    S    
C69   H49   S    
C25   C26   A    
C30   C68   S    
C5    C45   A    
Cu2   O11   S    
C1    O1    A    
C68   H46   S    
C26   N2    S    
C37   C38   A    
C8    C57   A    
C35   H11   S    
C60   H14   S    
C47   C48   A    
Cu2   O5    S    
C16   C20   A    
C61   H18   S    
C50   C51   A    
C15   H1    S    
C64   H31   S    
C66   H38   S    
C47   C52   A    
C40   C41   A    
C6    C30   A    
C12   O6    A    
C11   C32   A    
C52   N3    A    
C67   H41   S    
C31   C35   A    
C57   C69   S    
C19   O4    S    
C68   H47   S    
C42   C43   A    
C23   O9    A    
C21   C67   S    
C3    C56   A    
Cu1   O10   S    
C22   C66   S    
C3    N1    S    
C36   C60   S    
C48   C49   A    
C64   H30   S    
C62   H21   S    
C38   C62   S    
C10   C13   A    
C2    C61   S    
C2    C58   A    
C9    C24   A    
C39   H23   S    
C69   H48   S    
C63   H25   S    
C29   C35   A    
C1    O5    A    
C13   C17   A    
Cu2   N3    S    
C32   C33   A    
C20   N2    A    
C65   H36   S    
C2    C3    A    
C47   H28   S    
C65   H35   S    
Cu1   N4    S    
C11   C13   A    
C60   H13   S    
C9    C34   S    
Cu2   O9    S    
C37   H16   S    
C68   H45   S    
C64   H32   S    
C18   C33   A    
C66   H39   S    
C58   H2    S    
C53   C63   S    
C1    C42   S    
C4    C5    A    
C62   H22   S    
C11   C29   A    
C36   C37   A    
C49   C50   A    
C34   O11   A    
C27   C28   A    
C67   H42   S    
C14   C15   A    
C45   O12   S    
C33   H9    S    
Cu1   O6    S    
C14   H44   S    
