data_mof_unit_21708.cif
_audit_creation_date              2012-12-11T15:19:41-0500
_audit_creation_method            fapswitch 2.2
_symmetry_space_group_name_H-M    P1
_symmetry_Int_Tables_number       1
_space_group_crystal_system       triclinic
_cell_length_a                    20.2079
_cell_length_b                    6.900057
_cell_length_c                    18.124393
_cell_angle_alpha                 90.192629
_cell_angle_beta                  103.734387
_cell_angle_gamma                 89.988702
_cell_volume                      2454.91204078

loop_
_atom_site_label
_atom_site_type_symbol
_atom_type_description
_atom_site_fract_x
_atom_site_fract_y
_atom_site_fract_z
_atom_type_partial_charge
O1    O     O_R   0.312200 0.620210 0.189560 -0.530506
O2    O     O_R   0.687800 0.379790 0.810440 -0.547958
O3    O     O_R   0.187800 0.120210 0.310440 -0.529344
O4    O     O_R   0.812200 0.879790 0.689560 -0.544494
O5    O     O_R   0.171590 0.286140 0.165000 -0.542826
O6    O     O_R   0.828410 0.713860 0.835000 -0.532851
O7    O     O_R   0.328410 0.786140 0.335000 -0.541189
O8    O     O_R   0.671590 0.213860 0.665000 -0.532085
C1    C     C_R   0.144698 0.459176 0.144977 0.689434
C2    C     C_R   0.854619 0.540730 0.855951 0.695387
C3    C     C_R   0.355059 0.959506 0.355320 0.687535
C4    C     C_R   0.645037 0.040472 0.644568 0.695843
O9    O     O_R   0.310670 0.290220 0.180540 -0.542622
O10   O     O_R   0.689330 0.709780 0.819460 -0.535128
O11   O     O_R   0.189330 0.790220 0.319460 -0.544073
O12   O     O_R   0.810670 0.209780 0.680540 -0.534609
O13   O     O_R   0.327870 0.124170 0.326080 -0.532360
O14   O     O_R   0.672130 0.875830 0.673920 -0.541966
O15   O     O_R   0.172130 0.624170 0.173920 -0.531472
O16   O     O_R   0.827870 0.375830 0.826080 -0.534555
C5    C     C_R   0.328547 0.459250 0.161217 0.719123
C6    C     C_R   0.672654 0.540075 0.840264 0.710432
C7    C     C_R   0.172280 0.959812 0.339473 0.718489
C8    C     C_R   0.825259 0.039582 0.657544 0.699134
O17   O     O_3   0.255480 0.455050 0.297740 -0.364619
O18   O     O_3   0.744520 0.544950 0.702260 -0.376399
O19   O     O_3   0.244520 0.955050 0.202260 -0.366348
O20   O     O_3   0.755480 0.044950 0.797740 -0.367815
V1    V     V_3+5 0.248980 0.178550 0.241140 1.428666
V2    V     V_3+5 0.751020 0.821450 0.758860 1.372345
V3    V     V_3+5 0.251020 0.678550 0.258860 1.428527
V4    V     V_3+5 0.748980 0.321450 0.741140 1.381022
C9    C     C_R   0.932320 0.125810 0.624829 -0.200547
C10   C     C_R   0.064881 0.868988 0.369184 -0.236020
C11   C     C_R   0.559909 0.596647 0.864948 -0.242499
C12   C     C_R   0.441186 0.401155 0.137101 -0.257122
C13   C     C_R   0.869199 0.032948 0.600798 -0.204280
C14   C     C_R   0.126459 0.966257 0.392690 -0.183652
C15   C     C_R   0.626144 0.530479 0.893443 -0.186453
C16   C     C_R   0.374960 0.465732 0.108441 -0.186799
C17   C     C_R   0.852394 0.950542 0.524734 0.385683
C18   C     C_R   0.141207 0.063666 0.464460 0.437890
C19   C     C_R   0.645826 0.469230 0.971215 0.407112
C20   C     C_R   0.356011 0.533942 0.031939 0.438807
C21   C     C_R   0.905640 0.930225 0.484405 -0.086228
C22   C     C_R   0.088290 0.084235 0.504492 -0.099326
C23   C     C_R   0.596144 0.468819 0.016691 -0.098454
C24   C     C_R   0.407546 0.558540 0.990228 -0.106536
C25   C     C_R   0.970310 0.015701 0.513973 -0.110384
C26   C     C_R   0.023332 0.999885 0.474388 -0.123194
C27   C     C_R   0.527971 0.524810 0.983419 -0.105082
C28   C     C_R   0.476333 0.509820 0.024802 -0.108785
C29   C     C_R   0.981344 0.124366 0.581460 -0.012986
C30   C     C_R   0.011846 0.896086 0.405518 -0.039915
C31   C     C_R   0.511248 0.597416 0.908820 -0.031785
C32   C     C_R   0.493217 0.441285 0.100113 -0.020558
C33   C     C_R   0.895007 0.835468 0.411807 0.348659
C34   C     C_R   0.098026 0.187966 0.574060 0.358723
C35   C     C_R   0.612387 0.416684 0.095347 0.351332
C36   C     C_R   0.392795 0.633461 0.914938 0.387747
C37   C     C_R   0.946405 0.827074 0.371949 0.365360
C38   C     C_R   0.042684 0.225821 0.606618 0.277922
C39   C     C_R   0.562218 0.416143 0.137778 0.340997
C40   C     C_R   0.445373 0.669605 0.878249 0.307045
H1    H     H_    0.943950 0.197590 0.679697 0.168761
H2    H     H_    0.058140 0.774462 0.320291 0.156634
H3    H     H_    0.545968 0.644985 0.806516 0.160870
H4    H     H_    0.452742 0.328409 0.191583 0.148126
C41   C     C_1   0.582766 0.027025 0.581952 -0.203740
C42   C     C_1   0.417450 0.972870 0.417815 -0.200391
C43   C     C_1   0.916914 0.527728 0.918550 -0.205009
C44   C     C_1   0.082283 0.472080 0.082495 -0.203237
C45   C     C_1   0.530828 0.010637 0.530296 -0.009021
C46   C     C_1   0.469418 0.989233 0.469446 -0.003392
C47   C     C_1   0.968862 0.510889 0.970156 0.007225
C48   C     C_1   0.030300 0.488791 0.030926 0.000189
O21   O     O_3   0.786967 0.922050 0.478476 -0.573348
C49   C     C_3   0.730530 0.903265 0.510111 0.060685
H5    H     H_    0.685102 0.937762 0.464319 0.166731
H6    H     H_    0.728321 0.016048 0.552278 0.055509
C50   C     C_3   0.723867 0.694483 0.536324 -0.302082
H7    H     H_    0.770291 0.607376 0.538371 0.171512
H8    H     H_    0.719232 0.704178 0.593720 0.240019
C51   C     C_3   0.660511 0.586767 0.492486 -0.832404
H9    H     H_    0.613749 0.665521 0.497099 0.232482
H10   H     H_    0.659159 0.439870 0.516973 0.232466
H11   H     H_    0.660898 0.569876 0.431963 0.230559
O22   O     O_3   0.205115 0.141710 0.497084 -0.557201
C52   C     C_3   0.260005 0.009490 0.501493 0.085856
H12   H     H_    0.305980 0.077085 0.538603 0.128024
H13   H     H_    0.272812 0.997161 0.446076 0.106609
C53   C     C_3   0.251308 0.807676 0.535419 -0.383893
H14   H     H_    0.265637 0.816290 0.598280 0.174857
H15   H     H_    0.198236 0.753205 0.518015 0.202028
C54   C     C_3   0.297135 0.657356 0.510707 -0.751318
H16   H     H_    0.284208 0.643419 0.447970 0.250261
H17   H     H_    0.288898 0.513762 0.534270 0.245873
H18   H     H_    0.351540 0.698987 0.531081 0.217954
O23   O     O_3   0.713721 0.442949 0.008590 -0.569598
C55   C     C_3   0.749637 0.302947 0.975871 0.053971
H19   H     H_    0.797464 0.275263 0.019298 0.145662
H20   H     H_    0.768863 0.365608 0.929667 0.121297
C56   C     C_3   0.712300 0.107140 0.952855 -0.358563
H21   H     H_    0.669107 0.085898 0.979500 0.162160
H22   H     H_    0.688638 0.103223 0.891427 0.215595
C57   C     C_3   0.761501 0.936336 0.973166 -0.721879
H23   H     H_    0.802702 0.947303 0.942434 0.238748
H24   H     H_    0.733803 0.798564 0.958116 0.242728
H25   H     H_    0.785043 0.932843 0.034941 0.193356
O24   O     O_3   0.289257 0.583732 0.996672 -0.564084
C58   C     C_3   0.239950 0.439435 0.000606 0.057863
H26   H     H_    0.193035 0.476683 0.957042 0.141545
H27   H     H_    0.225091 0.450814 0.054849 0.113229
C59   C     C_3   0.258925 0.228385 0.985176 -0.370130
H28   H     H_    0.265110 0.214968 0.926439 0.189238
H29   H     H_    0.307228 0.182527 0.024305 0.203289
C60   C     C_3   0.203495 0.087818 0.995446 -0.770945
H30   H     H_    0.197464 0.093824 0.054552 0.253188
H31   H     H_    0.217990 0.937438 0.984076 0.257928
H32   H     H_    0.154106 0.123854 0.955828 0.215084
O25   O     O_3   0.832463 0.765644 0.373086 -0.553531
C61   C     C_3   0.816481 0.593832 0.406597 0.156768
H33   H     H_    0.762901 0.609989 0.409099 0.191393
H34   H     H_    0.847651 0.566179 0.465348 0.077438
C62   C     C_3   0.820175 0.417604 0.357507 -0.375583
H35   H     H_    0.802805 0.454489 0.296305 0.238660
H36   H     H_    0.873725 0.365933 0.369131 0.197276
C63   C     C_3   0.774427 0.260062 0.377380 -0.821113
H37   H     H_    0.778978 0.257987 0.439567 0.256546
H38   H     H_    0.789030 0.116696 0.359233 0.286975
H39   H     H_    0.720308 0.289457 0.349077 0.236069
O26   O     O_3   0.162188 0.242467 0.614461 -0.543050
C64   C     C_3   0.190388 0.087979 0.663376 0.144410
H40   H     H_    0.246337 0.093179 0.671079 0.142980
H41   H     H_    0.174014 0.941777 0.639157 0.070974
C65   C     C_3   0.173433 0.106728 0.741134 -0.358809
H42   H     H_    0.185806 0.254048 0.764623 0.208201
H43   H     H_    0.118542 0.080103 0.735964 0.218694
C66   C     C_3   0.212121 0.957687 0.796058 -0.829077
H44   H     H_    0.200236 0.810642 0.771904 0.226107
H45   H     H_    0.195351 0.964266 0.849717 0.254976
H46   H     H_    0.267723 0.986293 0.807673 0.261992
O27   O     O_3   0.677698 0.366312 0.133314 -0.536462
C67   C     C_3   0.686878 0.164717 0.125024 0.157572
H47   H     H_    0.729312 0.147638 0.097593 0.175263
H48   H     H_    0.641167 0.084321 0.092132 0.070791
C68   C     C_3   0.711062 0.068327 0.201104 -0.363781
H49   H     H_    0.753201 0.156212 0.234082 0.226419
H50   H     H_    0.669103 0.064902 0.230553 0.234955
C69   C     C_3   0.736852 0.863667 0.191250 -0.783564
H51   H     H_    0.697828 0.777931 0.150852 0.245965
H52   H     H_    0.750077 0.789105 0.246619 0.279896
H53   H     H_    0.782884 0.870033 0.168388 0.231135
O28   O     O_3   0.327071 0.677641 0.876281 -0.539529
C70   C     C_3   0.297598 0.515066 0.832495 0.163468
H54   H     H_    0.244582 0.503481 0.839157 0.109515
H55   H     H_    0.322172 0.374126 0.853199 0.078007
C71   C     C_3   0.294181 0.542918 0.747289 -0.314749
H56   H     H_    0.241582 0.512144 0.713944 0.177340
H57   H     H_    0.305494 0.695321 0.735058 0.230510
C72   C     C_3   0.342647 0.407478 0.718960 -0.739618
H58   H     H_    0.395851 0.455918 0.739626 0.260257
H59   H     H_    0.330419 0.406880 0.656127 0.226508
H60   H     H_    0.338203 0.257269 0.738645 0.195755
O29   O     O_3   0.930113 0.747489 0.299101 -0.564248
C73   C     C_3   0.932041 0.884745 0.240686 0.102903
H61   H     H_    0.897897 0.827973 0.187864 0.144305
H62   H     H_    0.982839 0.889262 0.227691 0.105813
C74   C     C_3   0.909505 0.092853 0.254462 -0.370493
H63   H     H_    0.862258 0.086163 0.274729 0.216759
H64   H     H_    0.949324 0.165835 0.298657 0.193603
C75   C     C_3   0.897328 0.214530 0.182437 -0.794792
H65   H     H_    0.945106 0.227654 0.162614 0.231062
H66   H     H_    0.880049 0.361831 0.194181 0.256709
H67   H     H_    0.857438 0.146596 0.137105 0.215549
O30   O     O_3   0.050720 0.350177 0.668160 -0.564398
C76   C     C_3   0.046648 0.542948 0.641434 0.123318
H68   H     H_    0.002318 0.564966 0.591946 0.097119
H69   H     H_    0.094201 0.581961 0.624021 0.110081
C77   C     C_3   0.039078 0.680610 0.705084 -0.327890
H70   H     H_    0.082395 0.660312 0.755253 0.193593
H71   H     H_    0.040536 0.831654 0.684980 0.151291
C78   C     C_3   0.972040 0.648726 0.728362 -0.647867
H72   H     H_    0.928261 0.658974 0.678146 0.210090
H73   H     H_    0.966101 0.761265 0.770256 0.197046
H74   H     H_    0.971678 0.504205 0.755008 0.225131
O31   O     O_3   0.582365 0.370056 0.214769 -0.567411
C79   C     C_3   0.565976 0.518622 0.262307 0.053311
H75   H     H_    0.570183 0.454825 0.319415 0.138704
H76   H     H_    0.513423 0.574750 0.244180 0.125340
C80   C     C_3   0.614056 0.691576 0.270459 -0.313882
H77   H     H_    0.666295 0.644906 0.299232 0.210767
H78   H     H_    0.613526 0.747044 0.213137 0.203384
C81   C     C_3   0.590592 0.855412 0.315449 -0.829629
H79   H     H_    0.544925 0.927614 0.279900 0.239683
H80   H     H_    0.631589 0.964693 0.332607 0.241822
H81   H     H_    0.577347 0.799671 0.367416 0.229618
O32   O     O_3   0.429673 0.760962 0.808324 -0.571197
C82   C     C_3   0.457903 0.949644 0.814839 0.072110
H82   H     H_    0.507181 0.961173 0.858364 0.121094
H83   H     H_    0.421454 0.052534 0.831213 0.121212
C83   C     C_3   0.469941 0.008366 0.737670 -0.305315
H84   H     H_    0.494034 0.886848 0.713261 0.202372
H85   H     H_    0.420302 0.040386 0.697766 0.188704
C84   C     C_3   0.516460 0.184751 0.744769 -0.823089
H86   H     H_    0.497584 0.301819 0.776154 0.232273
H87   H     H_    0.517707 0.238505 0.687482 0.233136
H88   H     H_    0.569002 0.145597 0.775794 0.231092

loop_
_geom_bond_atom_site_label_1
_geom_bond_atom_site_label_2
_ccdc_geom_bond_type
C34   C38   A    
C71   H57   S    
C4    C41   S    
C47   C48   S    
O1    C5    A    
O29   C73   S    
C40   O32   S    
O19   V1    S    
C9    C29   A    
O13   V1    S    
C74   H63   S    
O3    C7    A    
C54   H16   S    
C49   C50   S    
C1    C44   S    
C44   C48   T    
O15   V3    S    
C63   H37   S    
C10   H2    S    
C50   H7    S    
C54   H18   S    
C9    H1    S    
O21   C49   S    
C77   H70   S    
O7    C3    A    
C21   C33   A    
C26   C30   A    
C62   H35   S    
C83   H85   S    
C79   C80   S    
C79   H76   S    
C68   H50   S    
C19   O23   S    
C14   C18   A    
C60   H31   S    
C17   O21   S    
O4    C8    A    
C66   H46   S    
C49   H6    S    
C81   H81   S    
C70   H55   S    
C57   H23   S    
O27   C67   S    
O1    V3    S    
O2    V4    S    
C45   C46   S    
O3    V1    S    
O24   C58   S    
C53   H14   S    
C12   C16   A    
C71   C72   S    
C72   H59   S    
C1    O15   A    
C23   C27   A    
C68   H49   S    
C2    O16   A    
O26   C64   S    
C76   H69   S    
C83   C84   S    
O2    C6    A    
C82   C83   S    
C51   H11   S    
C41   C45   T    
O32   C82   S    
O14   V2    S    
C21   C25   A    
C52   H13   S    
C16   C20   A    
C27   C31   A    
C77   C78   S    
C2    C43   S    
O11   C7    A    
C81   H79   S    
C35   O27   S    
C82   H82   S    
O12   C8    A    
C22   C34   A    
C70   C71   S    
C73   H62   S    
C74   H64   S    
C67   C68   S    
O10   V2    S    
C65   C66   S    
C55   H20   S    
C72   H60   S    
C50   H8    S    
C75   H66   S    
C24   C36   A    
O5    V1    S    
C84   H87   S    
O17   V1    S    
C3    C42   S    
C23   C35   A    
O7    V3    S    
C83   H84   S    
C11   C31   A    
C80   H77   S    
O8    V4    S    
O20   V4    S    
C68   C69   S    
C51   H9    S    
C65   H43   S    
C60   H32   S    
C34   O26   S    
C49   H5    S    
C67   H47   S    
C15   C19   A    
C84   H86   S    
O19   V3    S    
C69   H53   S    
C55   C56   S    
C9    C13   A    
C27   C28   A    
C79   H75   S    
C71   H56   S    
C11   C15   A    
C78   H72   S    
C80   H78   S    
O5    C1    A    
C12   C32   A    
C64   C65   S    
C29   C38   A    
O23   C55   S    
C11   H3    S    
O8    C4    A    
C76   C77   S    
C38   O30   S    
C31   C40   A    
C53   H15   S    
C8    C13   S    
O25   C61   S    
C32   C39   A    
O9    C5    A    
C58   H27   S    
C52   C53   S    
C33   C37   A    
O28   C70   S    
C76   H68   S    
C67   H48   S    
O30   C76   S    
O6    V2    S    
O18   V2    S    
C39   O31   S    
C18   C22   A    
C73   H61   S    
C56   H22   S    
C69   H52   S    
C78   H74   S    
C18   O22   S    
C61   H34   S    
C56   C57   S    
C63   H39   S    
C81   H80   S    
C56   H21   S    
C50   C51   S    
C75   H65   S    
C75   H67   S    
C62   H36   S    
O16   V4    S    
C84   H88   S    
O9    V1    S    
C54   H17   S    
C3    O13   A    
C77   H71   S    
C58   H26   S    
C10   C14   A    
O17   V3    S    
C51   H10   S    
C65   H42   S    
C63   H38   S    
O6    C2    A    
C59   H29   S    
C66   H44   S    
C12   H4    S    
O11   V3    S    
O18   V4    S    
C30   C37   A    
O12   V4    S    
C7    C14   S    
C22   C26   A    
C35   C39   A    
C36   C40   A    
O10   C6    A    
C61   C62   S    
C78   H73   S    
C52   H12   S    
C80   C81   S    
O31   C79   S    
C72   H58   S    
C60   H30   S    
C43   C47   T    
C66   H45   S    
C10   C30   A    
C64   H40   S    
C5    C16   S    
C57   H24   S    
C62   C63   S    
C25   C29   A    
C6    C15   S    
O20   V2    S    
C55   H19   S    
C74   C75   S    
C58   C59   S    
C37   O29   S    
C59   H28   S    
C53   C54   S    
C13   C17   A    
C42   C46   T    
C36   O28   S    
C59   C60   S    
C33   O25   S    
C28   C32   A    
C24   C28   A    
O22   C52   S    
C73   C74   S    
C25   C26   A    
C4    O14   A    
C70   H54   S    
C82   H83   S    
C64   H41   S    
C17   C21   A    
C69   H51   S    
C61   H33   S    
C19   C23   A    
O4    V2    S    
C20   C24   A    
C57   H25   S    
C20   O24   S    
