data_mof_unit_10675.cif
_audit_creation_date              2012-12-10T18:13:54-0500
_audit_creation_method            fapswitch 2.2
_symmetry_space_group_name_H-M    P1
_symmetry_Int_Tables_number       1
_space_group_crystal_system       triclinic
_cell_length_a                    11.176635
_cell_length_b                    9.707483
_cell_length_c                    23.462368
_cell_angle_alpha                 89.990691
_cell_angle_beta                  90.977061
_cell_angle_gamma                 89.713663
_cell_volume                      2545.19442047

loop_
_atom_site_label
_atom_site_type_symbol
_atom_type_description
_atom_site_fract_x
_atom_site_fract_y
_atom_site_fract_z
_atom_type_partial_charge
C1    C     C_R   0.258897 0.499636 0.503405 0.845523
C2    C     C_R   0.379602 0.401536 0.974969 -0.172573
C3    C     C_R   0.395018 0.379293 0.033515 -0.031106
C4    C     C_R   0.491528 0.444148 0.063226 -0.081292
C5    C     C_R   0.567087 0.534719 0.033218 -0.011485
C6    C     C_R   0.655449 0.610972 0.062783 -0.035926
C7    C     C_R   0.727744 0.702736 0.032717 -0.193411
C8    C     C_R   0.712837 0.720844 0.973699 0.164561
C9    C     C_R   0.514159 0.425788 0.122079 0.567908
C10   C     C_R   0.664648 0.599278 0.122373 0.643088
C11   C     C_R   0.658738 0.448742 0.247877 0.210314
C12   C     C_R   0.506550 0.499905 0.391425 0.838312
C13   C     C_R   0.635130 0.438546 0.306664 0.077214
C14   C     C_R   0.529902 0.500604 0.328960 -0.153015
C15   C     C_R   0.450610 0.571312 0.291245 -0.121896
C16   C     C_R   0.477988 0.585885 0.233164 -0.112579
C17   C     C_R   0.580447 0.521174 0.211495 0.232807
C18   C     C_R   0.474438 0.425588 0.768943 -0.120724
C19   C     C_R   0.442345 0.431149 0.710600 -0.247846
C20   C     C_R   0.514816 0.505558 0.672846 -0.086719
C21   C     C_R   0.606109 0.585980 0.696700 -0.183464
C22   C     C_R   0.621667 0.601160 0.756053 0.186807
C23   C     C_R   0.737659 0.499867 0.502664 0.783693
C24   C     C_R   0.540996 0.535785 0.793605 0.247255
C25   C     C_3   0.065277 0.630308 0.543509 -0.019231
C26   C     C_3   0.061572 0.354747 0.534678 -0.049757
C27   C     C_3   0.922941 0.621720 0.543578 -0.213773
C28   C     C_3   0.920537 0.355993 0.528317 -0.245647
C29   C     C_3   0.060739 0.513962 0.443915 0.364633
C30   C     C_3   0.116612 0.498856 0.507644 -0.016014
C31   C     C_3   0.873043 0.498607 0.507356 -0.105459
C32   C     C_3   0.920633 0.519000 0.446172 -0.459186
C33   C     C_3   0.623561 0.080228 0.503337 -0.275495
C34   C     C_3   0.621663 0.917788 0.513028 -0.241279
C35   C     C_3   0.438325 0.084991 0.552312 -0.146576
C36   C     C_3   0.421677 0.922369 0.546537 -0.188254
C37   C     C_3   0.442575 0.080565 0.446684 0.376960
C38   C     C_3   0.461852 0.912696 0.443581 0.386058
C39   C     C_R   0.501896 0.500777 0.609121 0.915887
C40   C     C_R   0.602391 0.660763 0.884240 0.631769
C41   C     C_R   0.441768 0.508439 0.886469 0.573811
C42   C     C_R   0.457339 0.486662 0.945061 -0.000892
C43   C     C_R   0.551828 0.552564 0.973777 -0.053808
C44   C     C_R   0.624060 0.645348 0.943592 -0.029701
Cu1   Cu    Cu3+1 0.499860 0.642410 0.500030 0.995801
Cu2   Cu    Cu3+1 0.499860 0.357590 0.500030 1.015194
H1    H     H_    0.305351 0.352467 0.952739 0.203268
H2    H     H_    0.665522 0.638554 0.668769 0.210394
H3    H     H_    0.889368 0.712028 0.518427 0.166534
H4    H     H_    0.895831 0.285495 0.492497 0.136450
H5    H     H_    0.885560 0.618385 0.428737 0.191657
H6    H     H_    0.881604 0.440327 0.417384 0.160525
H7    H     H_    0.681587 0.129097 0.535141 0.234171
H8    H     H_    0.652214 0.896205 0.557050 0.245793
H9    H     H_    0.675511 0.104359 0.465174 0.117740
H10   H     H_    0.691895 0.868044 0.487316 0.177555
H11   H     H_    0.348697 0.132237 0.553938 0.162321
H12   H     H_    0.328373 0.909409 0.534242 0.085333
H13   H     H_    0.795964 0.761978 0.054928 0.190134
N1    N     N_R   0.531225 0.567565 0.855211 -0.444542
N2    N     N_R   0.592204 0.510372 0.150646 -0.444819
N3    N     N_3   0.500250 0.143650 0.501250 -0.175941
N4    N     N_3   0.500250 0.856350 0.501250 -0.182208
O1    O     O_R   0.317570 0.620260 0.500030 -0.594092
O2    O     O_R   0.317570 0.379740 0.500030 -0.544622
O3    O     O_R   0.499840 0.620290 0.417900 -0.535388
O4    O     O_R   0.499840 0.379710 0.417900 -0.535003
O5    O     O_R   0.682190 0.620260 0.500010 -0.597636
O6    O     O_R   0.682190 0.379740 0.500010 -0.609111
O7    O     O_R   0.499920 0.620230 0.582140 -0.573809
O8    O     O_R   0.499920 0.379770 0.582140 -0.536791
O9    O     O_2   0.639099 0.776426 0.858478 -0.454636
O10   O     O_2   0.336215 0.474917 0.861618 -0.558358
O11   O     O_2   0.458068 0.326199 0.151297 -0.486581
O12   O     O_2   0.742620 0.678506 0.151982 -0.515257
C45   C     C_2   0.326148 0.375286 0.691459 1.022497
O13   O     O_2   0.314709 0.335312 0.642815 -0.554259
O14   O     O_R   0.226353 0.374065 0.726674 -0.653461
H14   H     H_    0.238300 0.427149 0.763391 0.346710
N5    N     N_3   0.731422 0.659117 0.776785 -0.505798
H15   H     H_    0.752375 0.745847 0.752526 0.260715
H16   H     H_    0.798928 0.585286 0.772598 0.226763
N6    N     N_3   0.092620 0.761788 0.515169 -0.575271
H17   H     H_    0.180121 0.787942 0.523848 0.231950
H18   H     H_    0.044387 0.842856 0.533476 0.247374
N7    N     N_3   0.103062 0.236683 0.501111 -0.586246
H19   H     H_    0.051057 0.149089 0.508318 0.244782
H20   H     H_    0.186569 0.208995 0.516167 0.277640
C46   C     C_2   0.122660 0.644504 0.603102 0.948716
O15   O     O_2   0.214658 0.582405 0.615329 -0.611069
O16   O     O_R   0.079307 0.743150 0.641222 -0.705157
H21   H     H_    0.121727 0.740036 0.679729 0.357148
C47   C     C_2   0.092691 0.318729 0.597451 0.961841
O17   O     O_2   0.061256 0.392448 0.636378 -0.503075
O18   O     O_R   0.134632 0.185791 0.611154 -0.716285
H22   H     H_    0.135787 0.166109 0.653611 0.398956
C48   C     C_2   0.865702 0.647006 0.600729 0.891797
O19   O     O_2   0.807589 0.752466 0.607893 -0.604165
O20   O     O_R   0.889537 0.560492 0.646840 -0.677471
H23   H     H_    0.867192 0.603175 0.684360 0.329213
C49   C     C_2   0.854614 0.287067 0.577598 0.901917
O21   O     O_2   0.781005 0.349365 0.605700 -0.525276
O22   O     O_R   0.879001 0.148483 0.589833 -0.762103
H24   H     H_    0.833587 0.113351 0.623868 0.382384
N8    N     N_3   0.099733 0.643474 0.417515 -0.558047
H25   H     H_    0.191891 0.641813 0.412503 0.271743
H26   H     H_    0.060663 0.654890 0.376927 0.218068
N9    N     N_3   0.098716 0.399154 0.406699 -0.515406
H27   H     H_    0.081719 0.425996 0.364186 0.253430
H28   H     H_    0.043850 0.313404 0.411277 0.232049
C50   C     C_2   0.301021 0.298650 0.061939 0.935698
O23   O     O_2   0.274373 0.184446 0.043899 -0.565044
O24   O     O_R   0.238562 0.356197 0.107339 -0.696567
H29   H     H_    0.175421 0.291967 0.122625 0.351262
C51   C     C_2   0.492257 0.122541 0.611590 0.958248
O25   O     O_2   0.596503 0.155391 0.618929 -0.575692
O26   O     O_R   0.421713 0.104061 0.659632 -0.716070
H30   H     H_    0.468988 0.116471 0.696463 0.351755
C52   C     C_2   0.428035 0.856722 0.605358 0.971625
O27   O     O_2   0.523393 0.846715 0.631599 -0.592500
O28   O     O_R   0.322546 0.825060 0.633028 -0.725696
H31   H     H_    0.337724 0.789532 0.673182 0.343363
N10   N     N_3   0.314860 0.118369 0.445016 -0.528760
H32   H     H_    0.263996 0.051459 0.468880 0.158154
H33   H     H_    0.278558 0.115615 0.403648 0.232460
N11   N     N_3   0.352727 0.842689 0.423121 -0.535123
H34   H     H_    0.283159 0.843394 0.451398 0.208694
H35   H     H_    0.321416 0.889702 0.385723 0.208736
N12   N     N_3   0.491771 0.140805 0.394283 -0.518596
H36   H     H_    0.452069 0.098959 0.357538 0.204844
H37   H     H_    0.583970 0.137834 0.390153 0.188034
N13   N     N_3   0.554076 0.874247 0.401266 -0.528248
H38   H     H_    0.520836 0.881008 0.359401 0.225948
H39   H     H_    0.633172 0.930150 0.403410 0.170513
N14   N     N_3   0.790546 0.813395 0.944647 -0.491528
H40   H     H_    0.781046 0.911159 0.962779 0.244762
H41   H     H_    0.878797 0.780681 0.951878 0.230107
N15   N     N_3   0.761825 0.383277 0.224132 -0.539833
H42   H     H_    0.756214 0.277288 0.231380 0.232278
H43   H     H_    0.838166 0.420461 0.245282 0.251435
N16   N     N_3   0.720338 0.364943 0.341971 -0.628805
H44   H     H_    0.701263 0.372063 0.385049 0.224108
H45   H     H_    0.715403 0.260694 0.331198 0.216965
C53   C     C_2   0.331398 0.613479 0.310281 0.903849
O29   O     O_2   0.267241 0.527114 0.331453 -0.615758
O30   O     O_R   0.288452 0.746476 0.299324 -0.765144
H46   H     H_    0.202391 0.759535 0.311166 0.326318
C54   C     C_2   0.394890 0.658724 0.192962 0.925035
O31   O     O_2   0.432630 0.750152 0.162354 -0.567766
O32   O     O_R   0.274630 0.620226 0.189104 -0.694420
H47   H     H_    0.227825 0.676217 0.159764 0.353194
C55   C     C_2   0.466006 0.290936 0.799686 0.899674
O33   O     O_2   0.543030 0.259402 0.835074 -0.566764
O34   O     O_R   0.372681 0.199358 0.787971 -0.728073
H48   H     H_    0.378599 0.112035 0.811582 0.357152

loop_
_geom_bond_atom_site_label_1
_geom_bond_atom_site_label_2
_ccdc_geom_bond_type
C33   H9    S    
C34   H10   S    
C47   O17   D    
C40   N1    A    
O18   H22   S    
C41   C42   A    
C23   O6    A    
C19   C20   A    
C41   O10   S    
C38   N4    S    
C48   O19   D    
N14   H40   S    
Cu1   Cu2   S    
N8    H26   S    
N11   H34   S    
Cu2   N3    S    
C9    N2    A    
C1    C30   S    
C19   C45   S    
C11   N15   S    
C45   O14   S    
O30   H46   S    
C29   C32   S    
C36   H12   S    
N16   H45   S    
C5    C6    A    
N7    H20   S    
N10   H33   S    
C15   C16   A    
N9    H27   S    
C18   C19   A    
C36   C52   S    
C32   H6    S    
Cu2   O6    S    
C48   O20   S    
C37   N10   S    
C28   H4    S    
C28   C49   S    
C27   C48   S    
C31   C32   S    
C3    C50   S    
C16   C17   A    
C51   O26   S    
C1    O2    A    
C29   N9    S    
C35   C51   S    
C13   N16   S    
C46   O16   S    
C36   N4    S    
C24   N1    S    
C21   H2    S    
C17   N2    S    
C26   C47   S    
C5    C43   A    
C47   O18   S    
C21   C22   A    
C8    N14   S    
C29   N8    S    
C18   C55   S    
C7    H13   S    
C38   N11   S    
C37   N3    S    
C52   O28   S    
C33   H7    S    
C12   O4    A    
Cu2   O8    S    
C27   C31   S    
C49   O21   D    
N10   H32   S    
C45   O13   D    
Cu2   O2    S    
C53   O30   S    
O16   H21   S    
C20   C39   S    
O14   H14   S    
C33   N3    S    
C12   O3    A    
Cu1   N4    S    
C35   C36   S    
C23   C31   S    
C23   O5    A    
C43   C44   A    
C32   H5    S    
C37   C38   S    
C10   O12   S    
N6    H17   S    
C14   C15   A    
C40   C44   A    
C26   N7    S    
Cu1   O5    S    
C33   C34   S    
O34   H48   S    
C50   O24   S    
C54   O31   D    
O28   H31   S    
N15   H43   S    
N13   H39   S    
C54   O32   S    
N5    H16   S    
N6    H18   S    
C12   C14   S    
C34   H8    S    
N16   H44   S    
C18   C24   A    
C10   N2    A    
C9    O11   S    
C3    C4    A    
C46   O15   D    
C1    O1    A    
O22   H24   S    
O24   H29   S    
C25   C30   S    
N14   H41   S    
C11   C17   A    
N11   H35   S    
C40   O9    S    
C50   O23   D    
Cu1   O7    S    
N7    H19   S    
C25   C46   S    
C28   C31   S    
C8    C44   A    
C41   N1    A    
C55   O34   S    
N5    H15   S    
C6    C10   A    
C52   O27   D    
C26   C30   S    
C6    C7    A    
C2    H1    S    
C25   C27   S    
N8    H25   S    
Cu1   O1    S    
C26   C28   S    
O20   H23   S    
C16   C54   S    
C53   O29   D    
C2    C3    A    
N12   H36   S    
C22   N5    S    
Cu2   O4    S    
O26   H30   S    
C11   C13   A    
C51   O25   D    
C2    C42   A    
C34   N4    S    
C39   O7    A    
N9    H28   S    
N13   H38   S    
C35   N3    S    
C22   C24   A    
C7    C8    A    
N15   H42   S    
C29   C30   S    
C15   C53   S    
C4    C5    A    
C20   C21   A    
C49   O22   S    
C35   H11   S    
C42   C43   A    
Cu1   O3    S    
C25   N6    S    
C39   O8    A    
O32   H47   S    
C55   O33   D    
C4    C9    A    
C13   C14   A    
C37   N12   S    
C27   H3    S    
C38   N13   S    
N12   H37   S    
