data_mof_unit_22834.cif
_audit_creation_date              2012-12-10T16:50:08-0500
_audit_creation_method            fapswitch 2.2
_symmetry_space_group_name_H-M    P1
_symmetry_Int_Tables_number       1
_space_group_crystal_system       triclinic
_cell_length_a                    23.493307
_cell_length_b                    8.738222
_cell_length_c                    7.415272
_cell_angle_alpha                 102.909786
_cell_angle_beta                  94.118784
_cell_angle_gamma                 92.654409
_cell_volume                      1476.92090189

loop_
_atom_site_label
_atom_site_type_symbol
_atom_type_description
_atom_site_fract_x
_atom_site_fract_y
_atom_site_fract_z
_atom_type_partial_charge
C1    C     C_R   0.497276 0.200169 0.453883 0.798690
C2    C     C_R   0.502724 0.799831 0.546116 0.798690
C3    C     C_R   0.234275 0.486599 0.345553 -0.104103
C4    C     C_R   0.765725 0.513399 0.654447 -0.104102
C5    C     C_R   0.293449 0.488505 0.342441 -0.222546
C6    C     C_R   0.706551 0.511494 0.657559 -0.222545
C7    C     C_R   0.328487 0.499524 0.507322 -0.033558
C8    C     C_R   0.671513 0.500475 0.492678 -0.033557
C9    C     C_R   0.303227 0.509192 0.675423 -0.229293
C10   C     C_R   0.696773 0.490805 0.324576 -0.229293
C11   C     C_R   0.243906 0.507734 0.678169 -0.100585
C12   C     C_R   0.756094 0.492262 0.321829 -0.100585
C13   C     C_R   0.209379 0.496031 0.513109 0.370549
C14   C     C_R   0.790621 0.503965 0.486891 0.370549
C15   C     C_2   0.492184 0.032888 0.428646 0.123439
C16   C     C_2   0.507817 0.967112 0.571354 0.123438
C17   C     C_R   0.390946 0.499916 0.502529 0.776684
C18   C     C_R   0.609054 0.500083 0.497471 0.776684
C19   C     C_R   0.883603 0.643199 0.553830 0.535463
C20   C     C_R   0.116397 0.356797 0.446169 0.535462
C21   C     C_R   0.875917 0.367045 0.420832 0.539266
C22   C     C_R   0.124083 0.632951 0.579167 0.539266
C23   C     C_R   0.935436 0.362895 0.425550 -0.044213
C24   C     C_R   0.064564 0.637101 0.574450 -0.044213
C25   C     C_R   0.969894 0.502548 0.496988 -0.053699
C26   C     C_R   0.030105 0.497448 0.503011 -0.053699
C27   C     C_R   0.944160 0.646692 0.562166 -0.022074
C28   C     C_R   0.055840 0.353304 0.437833 -0.022074
C29   C     C_R   0.960638 0.221046 0.361545 -0.170014
C30   C     C_R   0.039362 0.778951 0.638454 -0.170014
C31   C     C_R   0.020036 0.213257 0.366813 0.138157
C32   C     C_R   0.979963 0.786739 0.633187 0.138157
Cu1   Cu    Cu3+1 0.506340 0.517380 0.684380 0.958689
Cu2   Cu    Cu3+1 0.493660 0.482620 0.315620 0.958690
H1    H     H_    0.933680 0.114322 0.306811 0.188518
H2    H     H_    0.066320 0.885675 0.693189 0.188518
H3    H     H_    0.207653 0.478238 0.217844 0.134154
H4    H     H_    0.792347 0.521761 0.782156 0.134154
H5    H     H_    0.311662 0.481328 0.210913 0.154549
H6    H     H_    0.688338 0.518673 0.789088 0.154549
H7    H     H_    0.329173 0.517272 0.804336 0.149754
H8    H     H_    0.670827 0.482725 0.195663 0.149755
H9    H     H_    0.224721 0.515114 0.808100 0.132330
H10   H     H_    0.775279 0.484881 0.191898 0.132330
H11   H     H_    0.455071 0.379082 0.948355 0.237522
H12   H     H_    0.544929 0.620918 0.051645 0.237522
N1    N     N_R   0.851535 0.505114 0.485081 -0.470205
N2    N     N_R   0.148464 0.494882 0.514918 -0.470205
N3    N     N_2   0.484110 0.456420 0.038520 -0.213471
N4    N     N_2   0.515890 0.543580 0.961480 -0.213471
O1    O     O_R   0.504120 0.286130 0.619770 -0.553006
O2    O     O_R   0.495880 0.713870 0.380230 -0.553005
O3    O     O_R   0.493410 0.256770 0.308360 -0.557318
O4    O     O_R   0.506590 0.743230 0.691640 -0.557318
O5    O     O_R   0.423230 0.514630 0.655730 -0.598446
O6    O     O_R   0.576770 0.485370 0.344270 -0.598445
O7    O     O_R   0.412530 0.485280 0.344320 -0.593208
O8    O     O_R   0.587470 0.514720 0.655680 -0.593207
O9    O     O_2   0.856385 0.775215 0.613340 -0.533563
O10   O     O_2   0.143615 0.224781 0.386660 -0.533562
O11   O     O_2   0.842426 0.233621 0.354485 -0.533770
O12   O     O_2   0.157574 0.766375 0.645514 -0.533771
C33   C     C_3   0.042593 0.053565 0.295370 -0.738509
H13   H     H_    0.007693 0.959712 0.248716 0.202426
H14   H     H_    0.067359 0.055593 0.173835 0.259008
H15   H     H_    0.069543 0.019490 0.407363 0.263895
C34   C     C_3   0.957407 0.946431 0.704630 -0.738509
H16   H     H_    0.992307 0.040284 0.751284 0.202427
H17   H     H_    0.930457 0.980506 0.592637 0.263895
H18   H     H_    0.932641 0.944402 0.826164 0.259008
O13   O     O_3   0.474847 0.943505 0.251812 -0.557898
C35   C     C_3   0.414600 0.939173 0.224507 0.099362
H19   H     H_    0.399801 0.058440 0.224684 0.141239
H20   H     H_    0.394189 0.892364 0.334086 0.121254
C36   C     C_3   0.395008 0.831063 0.037261 -0.690852
H21   H     H_    0.407849 0.709966 0.034633 0.251403
H22   H     H_    0.347726 0.827990 0.013130 0.184319
H23   H     H_    0.414531 0.874306 0.924396 0.259659
O14   O     O_3   0.525154 0.056495 0.748188 -0.557897
C37   C     C_3   0.585400 0.060827 0.775493 0.099357
H24   H     H_    0.605811 0.107635 0.665914 0.121256
H25   H     H_    0.600199 0.941561 0.775316 0.141242
C38   C     C_3   0.604992 0.168938 0.962737 -0.690862
H26   H     H_    0.652275 0.172012 0.986867 0.184320
H27   H     H_    0.592151 0.290033 0.965364 0.251406
H28   H     H_    0.585470 0.125694 0.075602 0.259660

loop_
_geom_bond_atom_site_label_1
_geom_bond_atom_site_label_2
_ccdc_geom_bond_type
Cu1   O5    S    
C22   N2    A    
C33   H14   S    
Cu2   O6    S    
Cu1   O8    S    
C10   H8    S    
C35   H20   S    
C23   C29   A    
C24   C26   A    
C35   C36   S    
C8    C10   A    
C19   N1    A    
C15   C16   D    
C1    O3    A    
C18   O8    A    
C7    C17   S    
Cu2   O7    S    
C11   H9    S    
C1    C15   S    
C20   O10   S    
C2    C16   S    
C17   O5    A    
C21   O11   S    
C3    C13   A    
C18   O6    A    
C33   H15   S    
C37   C38   S    
C10   C12   A    
C26   C28   A    
C34   H16   S    
C31   C33   S    
C4    C6    A    
C2    O4    A    
C5    C7    A    
C35   H19   S    
C6    C8    A    
C20   C28   A    
C19   O9    S    
C25   C26   A    
C8    C18   S    
O14   C37   S    
C34   H17   S    
C36   H21   S    
C22   O12   S    
C36   H22   S    
C38   H26   S    
H11   N3    S    
Cu1   Cu2   S    
C9    C11   A    
C20   N2    A    
C2    O2    A    
C32   C34   S    
C37   H25   S    
C38   H27   S    
C12   C14   A    
C21   C23   A    
C22   C24   A    
Cu1   O1    S    
C19   C27   A    
Cu1   O4    S    
C7    C9    A    
H12   N4    S    
Cu2   N3    S    
C27   C32   A    
Cu2   O2    S    
C28   C31   A    
C4    H4    S    
C37   H24   S    
C3    C5    A    
C13   N2    S    
C14   N1    S    
C25   C27   A    
C15   O13   S    
C29   H1    S    
C9    H7    S    
C1    O1    A    
C30   H2    S    
C16   O14   S    
C34   H18   S    
C5    H5    S    
Cu1   N4    S    
O13   C35   S    
C29   C31   A    
C30   C32   A    
C11   C13   A    
C6    H6    S    
C23   C25   A    
C4    C14   A    
C36   H23   S    
C24   C30   A    
C33   H13   S    
C38   H28   S    
C3    H3    S    
Cu2   O3    S    
C12   H10   S    
N3    N4    D    
C17   O7    A    
C21   N1    A    
