data_mof_unit_18732.cif
_audit_creation_date              2012-12-10T17:26:24-0500
_audit_creation_method            fapswitch 2.2
_symmetry_space_group_name_H-M    P1
_symmetry_Int_Tables_number       1
_space_group_crystal_system       triclinic
_cell_length_a                    10.105768
_cell_length_b                    10.751165
_cell_length_c                    27.615822
_cell_angle_alpha                 90.902002
_cell_angle_beta                  80.353473
_cell_angle_gamma                 95.87238
_cell_volume                      2942.47435313

loop_
_atom_site_label
_atom_site_type_symbol
_atom_type_description
_atom_site_fract_x
_atom_site_fract_y
_atom_site_fract_z
_atom_type_partial_charge
C1    C     C_R   0.556560 0.733220 0.498505 0.950534
C2    C     C_R   0.624838 0.519274 0.119608 -0.008764
C3    C     C_R   0.496661 0.500792 0.646804 -0.044870
C4    C     C_R   0.502079 0.485146 0.352945 -0.049349
C5    C     C_R   0.615085 0.533782 0.018809 0.040016
C6    C     C_R   0.418505 0.376697 0.978418 0.041404
C7    C     C_R   0.435945 0.356724 0.027589 -0.016923
C8    C     C_R   0.596492 0.555378 0.969974 -0.016079
C9    C     C_R   0.527124 0.442658 0.048261 0.060785
C10   C     C_R   0.503760 0.470706 0.949295 0.060896
C11   C     C_R   0.723744 0.595375 0.038834 -0.214799
C12   C     C_R   0.443366 0.266895 0.505003 0.947407
C13   C     C_R   0.311377 0.312562 0.958235 -0.213980
C14   C     C_R   0.725167 0.592965 0.088879 -0.156689
C15   C     C_R   0.306141 0.319412 0.908565 -0.161239
C16   C     C_R   0.499423 0.500810 0.594014 0.870028
C17   C     C_R   0.500364 0.497588 0.405848 0.883697
C18   C     C_R   0.661602 0.661291 0.941264 -0.021724
C19   C     C_R   0.369292 0.252796 0.057133 -0.019741
C20   C     C_2   0.588737 0.866047 0.503384 -0.375695
C21   C     C_2   0.410923 0.134589 0.513644 -0.370156
C22   C     C_2   0.488148 0.934142 0.520817 -0.149639
C23   C     C_R   0.493589 0.481540 0.899104 -0.055101
C24   C     C_2   0.511023 0.067414 0.519458 -0.147482
C25   C     C_2   0.927015 0.510628 0.504039 -0.126860
C26   C     C_2   0.073055 0.489577 0.495873 -0.128434
C27   C     C_R   0.570580 0.577585 0.819382 0.524538
C28   C     C_R   0.439273 0.356764 0.180213 0.530374
C29   C     C_R   0.399807 0.405187 0.827822 0.488436
C30   C     C_R   0.616673 0.523467 0.170522 0.475502
C31   C     C_R   0.570727 0.420899 0.717732 -0.125066
C32   C     C_R   0.617273 0.424802 0.273580 -0.120474
C33   C     C_R   0.577275 0.424544 0.667183 -0.217481
C34   C     C_R   0.531757 0.437305 0.099012 -0.059116
C35   C     C_R   0.613785 0.439420 0.323584 -0.219802
C36   C     C_R   0.411440 0.575549 0.677132 -0.256588
C37   C     C_R   0.392964 0.515194 0.331560 -0.268856
C38   C     C_R   0.405865 0.573723 0.727950 0.046680
C39   C     C_R   0.396612 0.503001 0.280768 0.046875
C40   C     C_R   0.485329 0.494693 0.748094 0.290706
C41   C     C_R   0.510562 0.457301 0.251806 0.283382
C42   C     C_R   0.321216 0.657676 0.759352 0.092847
C43   C     C_R   0.358553 0.787150 0.758250 -0.121036
C44   C     C_R   0.280974 0.866731 0.788937 -0.123203
C45   C     C_R   0.576219 0.573817 0.869602 -0.041475
C46   C     C_R   0.165438 0.817642 0.820653 -0.107978
C47   C     C_R   0.126950 0.688931 0.821562 -0.135914
C48   C     C_R   0.204369 0.609072 0.790965 -0.141247
C49   C     C_R   0.281607 0.538717 0.258825 0.124795
C50   C     C_R   0.149759 0.485893 0.276790 -0.114836
C51   C     C_R   0.041177 0.517836 0.255779 -0.122084
C52   C     C_R   0.063161 0.602940 0.216837 -0.090749
C53   C     C_R   0.193656 0.656954 0.199070 -0.142706
C54   C     C_R   0.302463 0.625593 0.220074 -0.153772
C55   C     C_R   0.716553 0.779856 0.962502 0.106371
C56   C     C_R   0.443304 0.350649 0.129286 -0.041114
C57   C     C_R   0.638536 0.838426 0.001605 -0.132059
C58   C     C_R   0.689791 0.950377 0.021192 -0.142497
C59   C     C_R   0.818311 0.005775 0.001527 -0.123663
C60   C     C_R   0.896091 0.949076 0.962351 -0.133897
C61   C     C_R   0.845773 0.836600 0.942912 -0.186218
C62   C     C_R   0.320379 0.131011 0.036489 0.101070
C63   C     C_R   0.192459 0.070444 0.055515 -0.184007
C64   C     C_R   0.147433 0.955985 0.036090 -0.137915
C65   C     C_R   0.228959 0.901226 0.997400 -0.130562
C66   C     C_R   0.356156 0.960337 0.978297 -0.142665
C67   C     C_R   0.656984 0.664093 0.891030 -0.202382
C68   C     C_R   0.402443 0.073990 0.998009 -0.132213
C69   C     C_R   0.366461 0.256552 0.107995 -0.191085
C70   C     C_R   0.400074 0.400214 0.878321 -0.006854
H1    H     H_    0.350492 0.636007 0.661243 0.158676
H2    H     H_    0.310694 0.181008 0.130719 0.188565
H3    H     H_    0.698611 0.413864 0.339229 0.160189
H4    H     H_    0.643309 0.366337 0.644094 0.159421
H5    H     H_    0.703967 0.389035 0.251364 0.139397
H6    H     H_    0.632694 0.361378 0.733481 0.140581
H7    H     H_    0.805286 0.648679 0.103294 0.179977
H8    H     H_    0.226334 0.263083 0.894205 0.182347
H9    H     H_    0.809163 0.646029 0.016368 0.162482
H10   H     H_    0.228491 0.257859 0.980367 0.163697
H11   H     H_    0.613956 0.109602 0.518694 0.188456
H12   H     H_    0.306434 0.550446 0.354145 0.162121
H13   H     H_    0.384994 0.892368 0.532022 0.187539
H14   H     H_    0.448432 0.826089 0.734083 0.149279
H15   H     H_    0.310598 0.966426 0.788218 0.157466
H16   H     H_    0.105651 0.879378 0.844410 0.127992
H17   H     H_    0.037083 0.651020 0.845934 0.136110
H18   H     H_    0.172898 0.509755 0.791769 0.174852
H19   H     H_    0.131286 0.418924 0.306659 0.130190
H20   H     H_    0.940043 0.476371 0.269633 0.132877
H21   H     H_    0.979085 0.627354 0.200539 0.175086
H22   H     H_    0.210484 0.723465 0.169104 0.141612
H23   H     H_    0.308313 0.091962 0.514284 0.152080
H24   H     H_    0.402563 0.669698 0.206330 0.151203
H25   H     H_    0.538341 0.797082 0.016993 0.143326
H26   H     H_    0.629496 0.994552 0.051466 0.144668
H27   H     H_    0.857701 0.092594 0.016654 0.131901
H28   H     H_    0.995668 0.992067 0.947146 0.140457
H29   H     H_    0.907821 0.793165 0.912903 0.122082
H30   H     H_    0.126989 0.112485 0.084959 0.136389
H31   H     H_    0.048847 0.910083 0.050838 0.144105
H32   H     H_    0.193490 0.813052 0.982198 0.133129
H33   H     H_    0.419287 0.917721 0.948354 0.147632
H34   H     H_    0.691570 0.908251 0.492091 0.152841
H35   H     H_    0.501819 0.118034 0.983067 0.144141
H36   H     H_    0.109760 0.420926 0.469045 0.162277
H37   H     H_    0.890355 0.579420 0.530810 0.167196
H38   H     H_    0.119236 0.615613 0.545179 0.163312
H39   H     H_    0.880736 0.384289 0.454859 0.159661
H40   H     H_    0.710123 0.742302 0.869129 0.191465
N1    N     N_R   0.484871 0.492619 0.799657 -0.350455
N2    N     N_R   0.521361 0.445972 0.199717 -0.353946
N3    N     N_2   0.842700 0.448890 0.480020 -0.196252
N4    N     N_2   0.157300 0.551110 0.519980 -0.192460
O1    O     O_R   0.431060 0.692470 0.504020 -0.610725
O2    O     O_2   0.353940 0.275163 0.210027 -0.567761
O3    O     O_2   0.700823 0.606360 0.190875 -0.593622
O4    O     O_2   0.316012 0.323267 0.806890 -0.589509
O5    O     O_R   0.568940 0.307530 0.495980 -0.612530
O6    O     O_R   0.651120 0.659650 0.491200 -0.608004
O7    O     O_R   0.348880 0.340350 0.508800 -0.608568
O8    O     O_R   0.389980 0.516390 0.577660 -0.611622
O9    O     O_R   0.610020 0.483610 0.422340 -0.614404
O10   O     O_R   0.610040 0.483570 0.564830 -0.617954
O11   O     O_R   0.389960 0.516430 0.435170 -0.615209
O12   O     O_2   0.650430 0.664641 0.790335 -0.572033
Zn1   Zn    Zn3+2 0.353060 0.521910 0.508560 0.946614
Zn2   Zn    Zn3+2 0.646940 0.478090 0.491440 0.942353

loop_
_geom_bond_atom_site_label_1
_geom_bond_atom_site_label_2
_ccdc_geom_bond_type
C66   C68   A    
C34   C56   A    
C23   C45   A    
C43   C44   A    
C17   O11   A    
C26   H36   S    
C32   H5    S    
C31   H6    S    
C39   C41   A    
N3    Zn2   S    
C53   C54   A    
C28   N2    A    
C62   C63   A    
O7    Zn1   S    
C60   H28   S    
C51   H20   S    
C27   O12   S    
C15   H8    S    
C3    C33   A    
C19   C62   S    
C49   C54   A    
O1    Zn1   S    
C31   C40   A    
C14   H7    S    
H38   N4    S    
O8    Zn1   S    
C16   O8    A    
C58   H26   S    
C67   H40   S    
C17   O9    A    
C12   O7    A    
C41   N2    S    
C45   C67   A    
C32   C41   A    
C48   H18   S    
C28   O2    S    
C36   H1    S    
H39   N3    S    
O10   Zn2   S    
O5    Zn2   S    
C27   C45   A    
C4    C35   A    
C27   N1    A    
C59   C60   A    
C43   H14   S    
C23   C70   A    
C61   H29   S    
C65   H32   S    
C44   C46   A    
C40   N1    S    
C28   C56   A    
C64   H31   S    
C54   H24   S    
C51   C52   A    
C32   C35   A    
C56   C69   A    
C25   C26   S    
C12   C21   S    
C8    C18   A    
C30   N2    A    
C60   C61   A    
C1    O6    A    
C47   H17   S    
C69   H2    S    
C24   H11   S    
C26   N4    D    
C5    C9    A    
C63   H30   S    
C25   N3    D    
C12   O5    A    
C50   H19   S    
C47   C48   A    
C53   H22   S    
C31   C33   A    
C50   C51   A    
C42   C48   A    
C11   H9    S    
C18   C55   S    
C4    C17   S    
C39   C49   S    
C20   C22   D    
C65   C66   A    
C7    C19   A    
C55   C57   A    
C57   H25   S    
C9    C34   A    
C59   H27   S    
C22   C24   S    
C37   H12   S    
C58   C59   A    
C42   C43   A    
C44   H15   S    
C52   C53   A    
C25   H37   S    
C29   C70   A    
C7    C9    A    
C15   C70   A    
C46   C47   A    
C35   H3    S    
C1    C20   S    
C66   H33   S    
C29   N1    A    
C6    C10   A    
C5    C8    A    
O6    Zn2   S    
C5    C11   A    
C6    C7    A    
C20   H34   S    
C30   O3    S    
C10   C23   A    
C29   O4    S    
C62   C68   A    
C2    C30   A    
C64   C65   A    
C13   C15   A    
C18   C67   A    
C37   C39   A    
C22   H13   S    
C6    C13   A    
C38   C40   A    
N4    Zn1   S    
C2    C34   A    
C57   C58   A    
C21   H23   S    
C3    C36   A    
C55   C61   A    
C36   C38   A    
C11   C14   A    
C16   O10   A    
C2    C14   A    
C13   H10   S    
C19   C69   A    
C63   C64   A    
C38   C42   S    
C33   H4    S    
C4    C37   A    
C8    C10   A    
C49   C50   A    
C68   H35   S    
C21   C24   D    
O9    Zn2   S    
O11   Zn1   S    
C52   H21   S    
C1    O1    A    
C3    C16   S    
C46   H16   S    
