data_mof_unit_65357.cif
_audit_creation_date              2012-10-26T21:26:28-0400
_audit_creation_method            fapswitch 2.2
_symmetry_space_group_name_H-M    P1
_symmetry_Int_Tables_number       1
_space_group_crystal_system       triclinic
_cell_length_a                    15.899889
_cell_length_b                    17.983187
_cell_length_c                    29.40214
_cell_angle_alpha                 89.8306
_cell_angle_beta                  90.156023
_cell_angle_gamma                 90.101226
_cell_volume                      8406.89288452

loop_
_atom_site_label
_atom_site_type_symbol
_atom_type_description
_atom_site_fract_x
_atom_site_fract_y
_atom_site_fract_z
_atom_type_partial_charge
C1    C     C_R   0.500025 0.389833 0.058739 0.608322
C2    C     C_1   0.405909 0.000372 0.756955 -0.002440
C3    C     C_1   0.489378 0.877259 0.834464 -0.003874
C4    C     C_1   0.486290 0.122993 0.835559 -0.002215
C5    C     C_1   0.339447 0.999781 0.737051 -0.013703
C6    C     C_1   0.623283 0.006879 0.734092 -0.012843
C7    C     C_R   0.645678 0.108954 0.292366 0.260114
C8    C     C_R   0.363465 0.994645 0.277939 0.255987
C9    C     C_R   0.422179 0.092306 0.326271 0.192451
C10   C     C_R   0.594369 0.981112 0.297687 0.194444
C11   C     C_R   0.707394 0.090904 0.324574 -0.046013
C12   C     C_R   0.500117 0.609910 0.058855 0.603278
C13   C     C_R   0.302631 0.981377 0.311487 -0.054534
C14   C     C_R   0.361275 0.076394 0.358818 -0.073831
C15   C     C_R   0.656197 0.966089 0.330259 -0.069110
C16   C     C_R   0.549793 0.178133 0.197702 -0.072194
C17   C     C_R   0.433032 0.038224 0.173108 -0.073121
C18   C     C_R   0.424610 0.199690 0.241906 -0.066476
C19   C     C_R   0.568216 0.983101 0.189464 -0.064668
C20   C     C_R   0.544724 0.250518 0.179491 0.242838
C21   C     C_R   0.431875 0.004235 0.130080 0.243610
C22   C     C_R   0.419143 0.272448 0.224415 0.237884
C23   C     C_R   0.703537 0.012294 0.711835 0.035076
C24   C     C_R   0.567732 0.948272 0.146613 0.233504
C25   C     C_R   0.499991 0.610853 0.941983 0.602909
C26   C     C_R   0.499854 0.389240 0.942033 0.603271
C27   C     C_3   0.500799 0.071086 0.249878 0.025965
C28   C     C_R   0.583493 0.054474 0.278555 0.036802
C29   C     C_R   0.426219 0.052417 0.283840 0.037172
C30   C     C_R   0.710843 0.021147 0.344553 -0.045052
C31   C     C_R   0.301934 0.021479 0.351657 -0.046870
C32   C     C_R   0.493558 0.152821 0.231792 0.014729
C33   C     C_R   0.499138 0.025820 0.204658 0.017139
C34   C     C_R   0.257996 0.998993 0.715561 0.033764
C35   C     C_R   0.480533 0.298116 0.194063 0.122945
C36   C     C_R   0.499048 0.958569 0.117249 0.119566
C37   C     C_1   0.239042 0.008432 0.385740 -0.034755
C38   C     C_1   0.768168 0.008189 0.381613 -0.032147
C39   C     C_1   0.186553 0.002032 0.414897 0.004628
C40   C     C_1   0.816671 0.001837 0.412893 0.006155
C41   C     C_1   0.477548 0.374062 0.178016 0.116897
C42   C     C_1   0.498243 0.923059 0.073227 0.128997
C43   C     C_1   0.474969 0.437750 0.165153 0.062676
C44   C     C_1   0.497566 0.893421 0.036489 0.124510
C45   C     C_R   0.865108 0.027459 0.675374 -0.000933
C46   C     C_R   0.123244 0.000234 0.449349 0.562891
C47   C     C_R   0.876726 0.000157 0.449240 0.563488
C48   C     C_R   0.546341 0.805379 0.898569 -0.083020
C49   C     C_R   0.441659 0.251764 0.849471 -0.082422
C50   C     C_R   0.443724 0.748520 0.848695 -0.082027
C51   C     C_R   0.543875 0.194436 0.899464 -0.077325
C52   C     C_R   0.892849 0.999875 0.569127 0.539214
C53   C     C_R   0.107254 0.999970 0.569180 0.541004
C54   C     C_R   0.550020 0.740330 0.924681 0.189196
C55   C     C_R   0.445566 0.317420 0.874858 0.197564
C56   C     C_R   0.094794 0.997578 0.679532 -0.001625
C57   C     C_R   0.446558 0.682966 0.874469 0.197651
C58   C     C_R   0.548583 0.259578 0.925211 0.194021
C59   C     C_R   0.761212 0.953631 0.715292 -0.093968
C60   C     C_R   0.217130 0.066074 0.705407 -0.097013
C61   C     C_R   0.217083 0.931197 0.707334 -0.095479
C62   C     C_R   0.726798 0.078356 0.689741 -0.096515
C63   C     C_R   0.841898 0.961304 0.696999 -0.103499
C64   C     C_R   0.135609 0.065227 0.687370 -0.104162
C65   C     C_R   0.135566 0.930626 0.689292 -0.107199
C66   C     C_R   0.807553 0.085776 0.671498 -0.106452
C67   C     C_1   0.486553 0.933565 0.812107 0.005980
C68   C     C_3   0.483482 0.000981 0.784009 0.002381
C69   C     C_R   0.493141 0.809751 0.860805 -0.045894
C70   C     C_R   0.490293 0.190244 0.861860 -0.045775
C71   C     C_R   0.499778 0.678175 0.912951 0.037962
C72   C     C_R   0.499101 0.322009 0.913213 0.037702
C73   C     C_1   0.484150 0.067197 0.812926 0.006889
C74   C     C_1   0.558297 0.003460 0.755064 -0.002541
Cl1   Cl    Cl    0.614923 0.741046 0.973373 -0.548643
Cl2   Cl    Cl    0.384225 0.393415 0.856620 -0.483382
Cl3   Cl    Cl    0.384276 0.607349 0.856559 -0.483607
Cl4   Cl    Cl    0.613710 0.258654 0.973819 -0.541031
Cl5   Cl    Cl    0.650294 0.204193 0.277924 -0.525511
Cl6   Cl    Cl    0.356041 0.929382 0.233335 -0.518081
Cl7   Cl    Cl    0.488530 0.166574 0.341894 -0.542600
Cl8   Cl    Cl    0.532600 0.903110 0.283731 -0.527770
Cu1   Cu    Cu3+1 0.415470 0.500000 0.000080 1.107127
Cu2   Cu    Cu3+1 0.584530 0.500000 0.000080 1.137214
Cu3   Cu    Cu3+1 0.000000 0.072960 0.508900 0.981495
Cu4   Cu    Cu3+1 1.000000 0.927040 0.508900 0.985744
H1    H     H_    0.886760 0.916359 0.699869 0.120645
H2    H     H_    0.247787 0.118828 0.711973 0.125491
H3    H     H_    0.247704 0.879007 0.715403 0.125926
H4    H     H_    0.683112 0.124372 0.687291 0.124513
H5    H     H_    0.751310 0.133271 0.335929 0.174994
H6    H     H_    0.255970 0.938044 0.306564 0.174154
H7    H     H_    0.359789 0.108003 0.390182 0.171630
H8    H     H_    0.660454 0.911084 0.345302 0.173647
H9    H     H_    0.600330 0.142090 0.186783 0.121449
H10   H     H_    0.381071 0.073729 0.182687 0.116564
H11   H     H_    0.373633 0.180664 0.263059 0.118862
H12   H     H_    0.103742 0.116882 0.679702 0.125476
H13   H     H_    0.624115 0.977462 0.210042 0.124964
H14   H     H_    0.643234 0.235982 0.141436 0.348592
H15   H     H_    0.323972 0.048369 0.114259 0.340007
H16   H     H_    0.316639 0.293378 0.258177 0.339953
H17   H     H_    0.677239 0.902765 0.156933 0.342444
H18   H     H_    0.103666 0.878425 0.683121 0.122383
H19   H     H_    0.825903 0.136830 0.654661 0.125321
H20   H     H_    0.584398 0.852948 0.908096 0.165290
H21   H     H_    0.400690 0.248787 0.820006 0.161868
H22   H     H_    0.402853 0.751690 0.819191 0.161699
H23   H     H_    0.581517 0.146699 0.909110 0.167291
H24   H     H_    0.744285 0.902620 0.732729 0.125322
O1    O     O_R   0.429360 0.416280 0.044700 -0.533361
O2    O     O_R   0.906590 0.940530 0.464300 -0.499343
O3    O     O_R   0.906590 0.059470 0.464300 -0.498610
O4    O     O_R   0.093410 0.940530 0.464300 -0.497817
O5    O     O_R   0.920740 0.061400 0.553530 -0.492859
O6    O     O_R   0.079260 0.938600 0.553530 -0.490460
O7    O     O_R   0.079260 0.061400 0.553530 -0.491465
O8    O     O_R   0.920740 0.938600 0.553530 -0.489694
O9    O     O_3   0.602405 0.276124 0.148037 -0.671938
O10   O     O_3   0.365928 0.014988 0.100085 -0.673202
O11   O     O_3   0.354030 0.319299 0.236315 -0.670726
O12   O     O_R   0.570640 0.583720 0.044700 -0.485589
O13   O     O_3   0.634346 0.904940 0.132422 -0.661458
O14   O     O_R   0.570640 0.416280 0.044700 -0.475770
O15   O     O_R   0.429360 0.583720 0.044700 -0.524120
O16   O     O_R   0.427420 0.583550 0.955440 -0.466415
O17   O     O_R   0.572580 0.416450 0.955440 -0.475804
O18   O     O_R   0.572580 0.583550 0.955440 -0.474793
O19   O     O_R   0.427420 0.416450 0.955440 -0.466434
O20   O     O_R   0.093410 0.059470 0.464300 -0.501457

loop_
_geom_bond_atom_site_label_1
_geom_bond_atom_site_label_2
_ccdc_geom_bond_type
Cu2   O18   S    
C40   C47   S    
C50   H22   S    
C8    C13   A    
C27   C29   S    
C26   C72   S    
C36   C42   S    
C14   C31   A    
C25   O16   A    
H17   O13   S    
C15   H8    S    
C4    C70   S    
C60   H2    S    
C49   H21   S    
C21   C36   A    
Cu3   Cu4   S    
C27   C33   S    
C23   C59   A    
C22   C35   A    
C24   C36   A    
C18   C32   A    
C17   C33   A    
C15   C30   A    
C8    C29   A    
C3    C69   S    
C50   C69   A    
Cu1   O19   S    
C21   O10   S    
C2    C68   S    
C10   C15   A    
C53   O7    A    
Cu2   O12   S    
C56   C65   A    
C59   H24   S    
C30   C38   S    
Cu4   O6    S    
C51   C58   A    
C20   C35   A    
C23   C62   A    
C48   H20   S    
C54   C71   A    
C11   C30   A    
C56   C64   A    
C25   C71   S    
C18   H11   S    
H16   O11   S    
C48   C69   A    
C14   H7    S    
C55   C72   A    
C53   O6    A    
C9    C29   A    
Cu2   O17   S    
C64   H12   S    
C51   H23   S    
C34   C60   A    
C41   C43   T    
C42   C44   T    
Cu1   O15   S    
C61   H3    S    
C6    C74   T    
C62   C66   A    
C67   C68   S    
C57   Cl3   S    
Cu3   O5    S    
C19   C33   A    
C17   H10   S    
C19   H13   S    
C12   O15   A    
C68   C73   S    
C49   C55   A    
C45   C63   A    
C24   O13   S    
C17   C21   A    
C7    C28   A    
C31   C37   S    
C48   C54   A    
C9    C14   A    
C61   C65   A    
Cu3   O20   S    
C7    C11   A    
Cu1   Cu2   S    
C16   C20   A    
C5    C34   S    
Cu4   O8    S    
H14   O9    S    
C57   C71   A    
Cu3   O7    S    
C4    C73   T    
C26   O19   A    
C39   C46   S    
C55   Cl2   S    
C51   C70   A    
C49   C70   A    
C13   H6    S    
Cu1   O1    S    
C2    C5    T    
C16   C32   A    
C66   H19   S    
C27   C28   S    
C25   O18   A    
C22   O11   S    
C7    Cl5   S    
C52   O5    A    
C10   C28   A    
C47   O3    A    
C16   H9    S    
C63   H1    S    
C27   C32   S    
C18   C22   A    
H15   O10   S    
C13   C31   A    
C3    C67   T    
C46   O4    A    
C46   O20   A    
Cu2   O14   S    
C59   C63   A    
Cu4   O4    S    
C60   C64   A    
Cu3   O3    S    
C19   C24   A    
C1    O14   A    
C37   C39   T    
C1    O1    A    
C38   C40   T    
C50   C57   A    
C58   C72   A    
C6    C23   S    
C62   H4    S    
C10   Cl8   S    
C26   O17   A    
C34   C61   A    
C35   C41   S    
C58   Cl4   S    
C54   Cl1   S    
C11   H5    S    
Cu4   O2    S    
C12   O12   A    
C45   C66   A    
C8    Cl6   S    
Cu1   O16   S    
C65   H18   S    
C68   C74   S    
C20   O9    S    
C47   O2    A    
C9    Cl7   S    
C52   O8    A    
