data_mof_unit_32778.cif
_audit_creation_date              2012-12-10T19:07:39-0500
_audit_creation_method            fapswitch 2.2
_symmetry_space_group_name_H-M    P1
_symmetry_Int_Tables_number       1
_space_group_crystal_system       triclinic
_cell_length_a                    10.84114
_cell_length_b                    10.827532
_cell_length_c                    9.548982
_cell_angle_alpha                 89.896148
_cell_angle_beta                  90.677312
_cell_angle_gamma                 90.630303
_cell_volume                      1120.7384283

loop_
_atom_site_label
_atom_site_type_symbol
_atom_type_description
_atom_site_fract_x
_atom_site_fract_y
_atom_site_fract_z
_atom_type_partial_charge
C1    C     C_R   0.500981 0.262374 0.500113 0.799868
C2    C     C_R   0.938767 0.468788 0.623593 0.136290
C3    C     C_3   0.938487 0.540812 0.756790 -0.504617
C4    C     C_3   0.078066 0.537549 0.755737 -0.454126
C5    C     C_R   0.495737 0.063133 0.624975 0.101997
C6    C     C_R   0.510065 0.129295 0.500619 -0.096186
C7    C     C_R   0.538392 0.065170 0.377456 -0.220953
C8    C     C_R   0.537826 0.936424 0.377181 -0.227745
C9    C     C_R   0.509453 0.870942 0.500079 -0.113101
C10   C     C_R   0.495062 0.935981 0.624530 0.207457
C11   C     C_3   0.393490 0.928285 0.728646 -0.439320
C12   C     C_R   0.262442 0.496354 0.499203 0.793650
C13   C     C_3   0.395058 0.068388 0.730193 -0.504350
C14   C     C_R   0.537223 0.602374 0.074150 0.204075
C15   C     C_R   0.450292 0.404276 0.073847 -0.086520
C16   C     C_R   0.450397 0.404252 0.925074 -0.095764
C17   C     C_R   0.535140 0.603546 0.926747 0.238637
C18   C     C_3   0.657393 0.667611 0.922138 0.222637
C19   C     C_3   0.661011 0.662754 0.081340 -0.554009
C20   C     C_R   0.500896 0.737641 0.499851 0.804825
C21   C     C_R   0.737898 0.497629 0.500427 0.796404
C22   C     C_R   0.065820 0.467203 0.622248 0.124676
C23   C     C_R   0.129587 0.481689 0.497323 -0.099876
C24   C     C_R   0.062897 0.478227 0.370314 -0.222016
C25   C     C_R   0.934236 0.479379 0.371399 -0.218978
C26   C     C_R   0.871195 0.484382 0.499445 -0.099290
Cu1   Cu    Cu3+1 0.499990 0.499980 0.640670 0.948572
Cu2   Cu    Cu3+1 0.500010 0.500020 0.359330 0.939030
H1    H     H_    0.109427 0.481640 0.270610 0.165782
H2    H     H_    0.424008 0.887084 0.829714 0.236818
H3    H     H_    0.309071 0.109877 0.687439 0.195465
H4    H     H_    0.428092 0.106946 0.831826 0.195847
H5    H     H_    0.411637 0.325814 0.128809 0.140756
H6    H     H_    0.411408 0.326218 0.869263 0.143835
H7    H     H_    0.726653 0.610841 0.868946 0.096676
H8    H     H_    0.733423 0.600386 0.123001 0.171854
H9    H     H_    0.658656 0.754934 0.131725 0.207377
H10   H     H_    0.885120 0.482837 0.272143 0.159717
H11   H     H_    0.902460 0.635489 0.741447 0.181106
H12   H     H_    0.898555 0.486902 0.844788 0.192544
H13   H     H_    0.121696 0.630143 0.741669 0.197031
H14   H     H_    0.118079 0.480683 0.841655 0.196971
H15   H     H_    0.556152 0.113856 0.280435 0.163204
H16   H     H_    0.554599 0.888874 0.279946 0.164384
H17   H     H_    0.306971 0.887923 0.683688 0.177009
N1    N     N_R   0.500790 0.500930 0.147930 -0.180580
N2    N     N_R   0.500790 0.500890 0.852020 -0.216034
O1    O     O_R   0.500000 0.319640 0.618810 -0.584254
O2    O     O_R   0.500010 0.319680 0.381230 -0.593444
O3    O     O_R   0.319650 0.499970 0.618810 -0.581588
O4    O     O_R   0.319660 0.500010 0.381230 -0.583138
O5    O     O_R   0.499990 0.680320 0.618770 -0.557009
O6    O     O_R   0.500000 0.680360 0.381190 -0.582641
O7    O     O_R   0.680340 0.499990 0.618770 -0.583904
O8    O     O_R   0.680350 0.500030 0.381190 -0.582676
O9    O     O_3   0.645531 0.789504 0.871415 -0.566061
C27   C     C_3   0.763409 0.844987 0.856876 0.074474
H18   H     H_    0.794198 0.833433 0.747143 0.145675
H19   H     H_    0.834917 0.805677 0.928826 0.132506
C28   C     C_3   0.755105 0.982218 0.888779 -0.800808
H20   H     H_    0.722403 0.995691 0.997454 0.240569
H21   H     H_    0.847436 0.026470 0.878239 0.199276
H22   H     H_    0.690136 0.027309 0.814813 0.251991

loop_
_geom_bond_atom_site_label_1
_geom_bond_atom_site_label_2
_ccdc_geom_bond_type
Cu1   O1    S    
C2    C22   A    
C12   O3    A    
C23   C24   A    
C1    O1    A    
C6    C7    A    
C7    H15   S    
C25   H10   S    
C4    C22   S    
C18   H7    S    
C9    C20   S    
C5    C13   S    
C14   C17   A    
Cu1   O3    S    
C18   O9    S    
C21   C26   S    
C10   C11   S    
C28   H20   S    
C17   C18   S    
Cu1   O7    S    
C3    H11   S    
C5    C10   A    
C2    C26   A    
O9    C27   S    
Cu2   O6    S    
C11   C13   S    
C12   C23   S    
Cu2   N1    S    
C27   H18   S    
C5    C6    A    
C4    H14   S    
C11   H2    S    
C28   H22   S    
C16   N2    A    
Cu2   O8    S    
C13   H3    S    
C3    H12   S    
C2    C3    S    
C19   H8    S    
C22   C23   A    
C21   O7    A    
Cu2   O4    S    
C27   H19   S    
C11   H17   S    
C4    H13   S    
C1    C6    S    
C8    H16   S    
C7    C8    A    
C12   O4    A    
C24   C25   A    
Cu1   O5    S    
C28   H21   S    
C18   C19   S    
C9    C10   A    
Cu1   N2    S    
Cu1   Cu2   S    
C21   O8    A    
C20   O5    A    
C20   O6    A    
C27   C28   S    
C19   H9    S    
C15   N1    A    
C16   H6    S    
C25   C26   A    
C24   H1    S    
C13   H4    S    
C1    O2    A    
C14   C19   S    
C15   H5    S    
C3    C4    S    
C15   C16   A    
C17   N2    A    
C8    C9    A    
C14   N1    A    
Cu2   O2    S    
