data_mof_unit_22713.cif
_audit_creation_date              2012-12-10T18:09:46-0500
_audit_creation_method            fapswitch 2.2
_symmetry_space_group_name_H-M    P1
_symmetry_Int_Tables_number       1
_space_group_crystal_system       triclinic
_cell_length_a                    10.63329
_cell_length_b                    12.605648
_cell_length_c                    13.110654
_cell_angle_alpha                 82.43978
_cell_angle_beta                  90.325335
_cell_angle_gamma                 102.431453
_cell_volume                      1700.75964799

loop_
_atom_site_label
_atom_site_type_symbol
_atom_type_description
_atom_site_fract_x
_atom_site_fract_y
_atom_site_fract_z
_atom_type_partial_charge
C1    C     C_R   0.480144 0.438886 0.691204 0.847587
C2    C     C_3   0.121532 0.500321 0.500499 0.093540
C3    C     C_3   0.068329 0.484755 0.392125 -0.436946
C4    C     C_3   0.099846 0.611467 0.528552 -0.398456
C5    C     C_R   0.410867 0.707266 0.064402 -0.003375
C6    C     C_R   0.500082 0.596804 0.200109 -0.105560
C7    C     C_R   0.495904 0.300026 0.838946 -0.182813
C8    C     C_R   0.504683 0.271291 0.944154 -0.116973
C9    C     C_R   0.490890 0.345141 0.011175 -0.191839
C10   C     C_R   0.461972 0.447895 0.973569 0.091916
C11   C     C_R   0.432053 0.467873 0.869357 0.089120
C12   C     C_R   0.741985 0.500587 0.500076 0.857901
C13   C     C_R   0.462176 0.531485 0.035807 0.082627
C14   C     C_R   0.411888 0.625404 0.999259 0.071248
C15   C     C_R   0.361301 0.632371 0.900174 -0.254315
C16   C     C_R   0.372299 0.555508 0.836079 -0.179568
C17   C     C_R   0.514580 0.524424 0.132989 -0.247700
C18   C     C_R   0.451822 0.689567 0.166010 -0.187815
C19   C     C_R   0.463605 0.399772 0.800908 -0.131516
C20   C     C_R   0.317343 0.086086 0.351165 -0.281167
C21   C     C_R   0.649609 0.797187 0.631891 -0.088920
C22   C     C_R   0.675033 0.898672 0.666382 -0.306046
C23   C     C_R   0.512592 0.561014 0.308709 0.875336
C24   C     C_R   0.615966 0.980670 0.620489 0.611288
C25   C     C_R   0.532779 0.961723 0.536114 -0.122671
C26   C     C_R   0.507403 0.854908 0.506367 0.171792
C27   C     C_R   0.471651 0.041497 0.481230 0.001399
C28   C     C_R   0.381319 0.010351 0.404063 0.183549
C29   C     C_R   0.356690 0.904367 0.379034 -0.261711
C30   C     C_R   0.420516 0.828608 0.428331 -0.187917
C31   C     C_R   0.497635 0.152012 0.497079 0.019767
C32   C     C_R   0.344284 0.192661 0.373639 0.005334
C33   C     C_R   0.258080 0.499660 0.500392 0.835036
C34   C     C_3   0.904570 0.407348 0.581304 -0.352348
C35   C     C_3   0.048705 0.406394 0.580845 -0.393744
C36   C     C_3   0.923855 0.485131 0.391574 0.501587
C37   C     C_3   0.957120 0.611927 0.528206 -0.502381
C38   C     C_3   0.878883 0.501145 0.500168 0.045971
H1    H     H_    0.848559 0.326458 0.564475 0.233874
H2    H     H_    0.151338 0.680759 0.471995 0.188969
H3    H     H_    0.906738 0.553269 0.333770 0.056796
H4    H     H_    0.120710 0.552003 0.334034 0.120596
H5    H     H_    0.443208 0.746436 0.219343 0.186191
H6    H     H_    0.313445 0.696763 0.870164 0.135341
H7    H     H_    0.563770 0.460056 0.160339 0.167704
H8    H     H_    0.517860 0.245735 0.787294 0.192947
H9    H     H_    0.500058 0.318553 0.091994 0.147545
H10   H     H_    0.527680 0.193534 0.973627 0.169826
H11   H     H_    0.873458 0.418925 0.659283 0.159156
H12   H     H_    0.331501 0.564482 0.760413 0.160175
H13   H     H_    0.295617 0.252605 0.334015 0.140322
H14   H     H_    0.288958 0.880147 0.319807 0.181067
H15   H     H_    0.247700 0.063120 0.292907 0.163104
H16   H     H_    0.569711 0.186651 0.547820 0.210828
H17   H     H_    0.693821 0.732807 0.668583 0.169132
H18   H     H_    0.738509 0.913097 0.730329 0.183163
H19   H     H_    0.399307 0.749280 0.404175 0.205407
H20   H     H_    0.087649 0.416438 0.658848 0.161144
H21   H     H_    0.061684 0.325665 0.562322 0.200596
H22   H     H_    0.083687 0.406176 0.369810 0.216561
H23   H     H_    0.940503 0.681169 0.471409 0.191169
H24   H     H_    0.926496 0.625815 0.605606 0.205445
H25   H     H_    0.138136 0.625150 0.606144 0.193119
N1    N     N_R   0.433240 0.222190 0.444680 -0.121224
N2    N     N_R   0.566070 0.776970 0.554790 -0.122199
O1    O     O_R   0.468120 0.366740 0.627160 -0.612939
O2    O     O_R   0.510770 0.544830 0.662520 -0.614593
O3    O     O_R   0.663880 0.410950 0.482330 -0.564335
O4    O     O_R   0.706530 0.589040 0.517700 -0.632966
O5    O     O_R   0.489230 0.455170 0.337480 -0.602708
O6    O     O_R   0.531880 0.633260 0.372840 -0.634574
O7    O     O_R   0.293470 0.410960 0.482300 -0.624321
O8    O     O_R   0.336120 0.589050 0.517670 -0.650061
Zn1   Zn    Zn3+2 0.471520 0.381090 0.476390 0.972972
Zn2   Zn    Zn3+2 0.528480 0.618910 0.523610 0.922747
C39   C     C_2   0.367544 0.810690 0.029698 0.382546
H26   H     H_    0.358443 0.838538 0.948895 0.068570
O9    O     O_2   0.343558 0.868193 0.091871 -0.587647
F1    F     F_    0.637103 0.074014 0.664491 -0.714220
F2    F     F_    0.855570 0.387481 0.362304 -0.656442

loop_
_geom_bond_atom_site_label_1
_geom_bond_atom_site_label_2
_ccdc_geom_bond_type
C2    C35   S    
C12   O4    A    
C3    H4    S    
C37   H24   S    
C7    C8    A    
C12   O3    A    
C4    H25   S    
C11   C19   A    
C29   C30   A    
C35   H20   S    
C39   O9    D    
C28   C29   A    
C16   H12   S    
C15   H6    S    
O3    Zn1   S    
C15   C16   A    
O1    Zn1   S    
C30   H19   S    
C35   H21   S    
C34   C35   S    
C33   O7    A    
C4    H2    S    
C8    C9    A    
O5    Zn1   S    
C9    C10   A    
C3    H22   S    
C13   C14   A    
O8    Zn2   S    
C23   O5    A    
C36   H3    S    
C6    C18   A    
C1    C19   S    
C27   C31   A    
C34   H1    S    
C7    H8    S    
C23   O6    A    
C39   H26   S    
C32   N1    A    
O7    Zn1   S    
C36   F2    S    
C21   H17   S    
C22   H18   S    
C5    C18   A    
C20   C28   A    
C25   C26   A    
C2    C4    S    
C8    H10   S    
C32   H13   S    
C37   C38   S    
C11   C16   A    
C24   F1    S    
C1    O1    A    
C24   C25   A    
C5    C14   A    
C2    C33   S    
C33   O8    A    
C26   C30   A    
C7    C19   A    
C22   C24   A    
O2    Zn2   S    
C20   C32   A    
C6    C17   A    
C34   H11   S    
C21   N2    A    
C34   C38   S    
C26   N2    A    
C31   N1    A    
C17   H7    S    
C20   H15   S    
C10   C13   A    
C37   H23   S    
C9    H9    S    
C25   C27   A    
N2    Zn2   S    
C13   C17   A    
C5    C39   S    
C36   C38   S    
C2    C3    S    
C18   H5    S    
O6    Zn2   S    
C3    C36   S    
C6    C23   S    
C1    O2    A    
O4    Zn2   S    
C31   H16   S    
C12   C38   S    
C10   C11   A    
C4    C37   S    
C27   C28   A    
N1    Zn1   S    
C14   C15   A    
C21   C22   A    
C29   H14   S    
