data_mof_unit_59116.cif
_audit_creation_date              2012-12-10T18:12:32-0500
_audit_creation_method            fapswitch 2.2
_symmetry_space_group_name_H-M    P1
_symmetry_Int_Tables_number       1
_space_group_crystal_system       triclinic
_cell_length_a                    9.5552
_cell_length_b                    10.765888
_cell_length_c                    17.30639
_cell_angle_alpha                 90.582297
_cell_angle_beta                  86.610044
_cell_angle_gamma                 87.695782
_cell_volume                      1775.61953029

loop_
_atom_site_label
_atom_site_type_symbol
_atom_type_description
_atom_site_fract_x
_atom_site_fract_y
_atom_site_fract_z
_atom_type_partial_charge
C1    C     C_R   0.498202 0.739628 0.498844 0.764413
C2    C     C_R   0.346726 0.529655 0.775486 -0.209424
C3    C     C_R   0.430976 0.573835 0.147296 -0.153497
C4    C     C_R   0.419903 0.565682 0.227375 -0.134139
C5    C     C_R   0.651988 0.464908 0.224990 -0.211788
C6    C     C_R   0.663358 0.473609 0.144808 -0.162774
C7    C     C_R   0.551659 0.525276 0.105583 0.178506
C8    C     C_2   0.450596 0.503576 0.980130 -0.224018
C9    C     C_2   0.562174 0.524891 0.020989 -0.228320
C10   C     C_R   0.529160 0.509181 0.266488 -0.045396
C11   C     C_3   0.351563 0.934219 0.479448 -0.372617
C12   C     C_R   0.482131 0.499487 0.649497 0.769960
C13   C     C_3   0.354178 0.076248 0.479613 -0.374281
C14   C     C_3   0.531415 0.925290 0.578360 -0.444219
C15   C     C_3   0.610872 0.924006 0.434895 -0.047360
C16   C     C_3   0.497397 0.877702 0.496798 0.092729
C17   C     C_3   0.501691 0.121991 0.499010 0.121902
C18   C     C_3   0.548274 0.067536 0.577463 -0.054720
C19   C     C_3   0.606262 0.068826 0.433837 -0.452298
C20   C     C_3   0.922856 0.371333 0.513481 0.061805
C21   C     C_3   0.090122 0.370317 0.508791 -0.300821
C22   C     C_3   0.920002 0.542730 0.424090 -0.258073
C23   C     C_R   0.501550 0.260219 0.499390 0.775597
C24   C     C_3   0.904071 0.585240 0.557514 -0.226679
C25   C     C_3   0.085867 0.540235 0.422737 0.748200
C26   C     C_3   0.067252 0.569671 0.566719 0.033899
C27   C     C_R   0.518134 0.501593 0.350555 0.817410
C28   C     C_R   0.473414 0.497082 0.733782 -0.019239
C29   C     C_R   0.592019 0.460997 0.773185 -0.229879
C30   C     C_R   0.585068 0.460239 0.853434 -0.144383
C31   C     C_R   0.459813 0.497763 0.895346 0.190132
C32   C     C_R   0.340033 0.529731 0.855949 -0.176487
Cu1   Cu    Cu3+1 0.357600 0.500140 0.499960 0.962779
Cu2   Cu    Cu3+1 0.642400 0.499860 0.500040 0.886384
H1    H     H_    0.689901 0.432374 0.742073 0.139334
H2    H     H_    0.757643 0.437069 0.113224 0.135337
H3    H     H_    0.272091 0.906607 0.524558 0.178437
H4    H     H_    0.318872 0.900036 0.422768 0.216302
H5    H     H_    0.327471 0.110219 0.421502 0.181396
H6    H     H_    0.269649 0.114349 0.520668 0.154565
H7    H     H_    0.447101 0.899670 0.621631 0.171826
H8    H     H_    0.715685 0.892605 0.454176 0.157940
H9    H     H_    0.574388 0.105045 0.377174 0.175294
H10   H     H_    0.327054 0.605252 0.258619 0.224872
H11   H     H_    0.713588 0.101859 0.441310 0.148890
H12   H     H_    0.630243 0.878948 0.596692 0.145386
H13   H     H_    0.662312 0.079194 0.576882 0.156109
H14   H     H_    0.890610 0.306464 0.467909 0.153501
H15   H     H_    0.134355 0.331417 0.561472 0.156414
H16   H     H_    0.132027 0.305114 0.462276 0.192361
H17   H     H_    0.884533 0.483124 0.376975 0.188515
H18   H     H_    0.874132 0.682589 0.542210 0.164073
H19   H     H_    0.738391 0.422481 0.254404 0.163551
H20   H     H_    0.847412 0.569764 0.614135 0.154521
H21   H     H_    0.080884 0.514642 0.620203 0.130967
H22   H     H_    0.876289 0.637297 0.411462 0.175686
H23   H     H_    0.664993 0.536382 0.992496 0.143485
H24   H     H_    0.242096 0.557023 0.887480 0.125231
H25   H     H_    0.345716 0.618662 0.118193 0.136159
H26   H     H_    0.253586 0.556391 0.746037 0.147057
H27   H     H_    0.348402 0.491958 0.009553 0.152088
H28   H     H_    0.677478 0.429148 0.882126 0.122570
N1    N     N_3   0.856560 0.499750 0.498270 -0.187551
N2    N     N_3   0.143860 0.496700 0.498910 -0.174344
O1    O     O_R   0.379740 0.682430 0.499960 -0.561292
O2    O     O_R   0.620260 0.682190 0.500020 -0.603360
O3    O     O_R   0.365800 0.500150 0.613560 -0.608928
O4    O     O_R   0.606310 0.499910 0.613620 -0.612062
O5    O     O_R   0.379740 0.317810 0.499980 -0.594083
O6    O     O_R   0.620260 0.317570 0.500040 -0.609855
O7    O     O_R   0.393690 0.500090 0.386380 -0.485760
O8    O     O_R   0.634200 0.499850 0.386440 -0.612033
C33   C     C_3   0.493650 0.133906 0.654185 -0.409114
C34   C     C_3   0.334274 0.149125 0.667883 -0.339981
C35   C     C_3   0.292181 0.176507 0.752977 -0.847824
H29   H     H_    0.177427 0.196917 0.760176 0.236983
H30   H     H_    0.318921 0.094795 0.788737 0.254066
H31   H     H_    0.347056 0.258212 0.773760 0.272393
H32   H     H_    0.295070 0.227792 0.633486 0.222813
H33   H     H_    0.284437 0.063649 0.650292 0.223426
H34   H     H_    0.536522 0.080172 0.702684 0.210526
H35   H     H_    0.537801 0.227651 0.656757 0.176526
C36   C     C_3   0.597283 0.868918 0.352446 -0.396721
C37   C     C_3   0.729038 0.888535 0.299411 -0.360720
C38   C     C_3   0.715557 0.830995 0.219393 -0.804146
H36   H     H_    0.704654 0.729101 0.223963 0.266661
H37   H     H_    0.622775 0.872681 0.192014 0.252005
H38   H     H_    0.811037 0.848359 0.181987 0.244414
H39   H     H_    0.746129 0.989410 0.292773 0.224736
H40   H     H_    0.822404 0.844769 0.325308 0.237387
H41   H     H_    0.582118 0.767443 0.355461 0.201675
H42   H     H_    0.504002 0.911847 0.326064 0.212846
C39   C     C_3   0.874987 0.315746 0.593466 -0.368667
C40   C     C_3   0.920204 0.177322 0.600603 -0.415706
C41   C     C_3   0.870627 0.126428 0.679316 -0.879883
H43   H     H_    0.765322 0.165392 0.698684 0.245862
H44   H     H_    0.865533 0.023818 0.675688 0.253420
H45   H     H_    0.944396 0.151078 0.723639 0.255751
H46   H     H_    0.878553 0.122973 0.553026 0.207195
H47   H     H_    0.035611 0.162114 0.594621 0.208815
H48   H     H_    0.918840 0.367398 0.641633 0.172403
H49   H     H_    0.760757 0.323618 0.603812 0.250748
Cl1   Cl    Cl    0.141320 0.439622 0.340986 -0.676454
C42   C     C_3   0.122775 0.696830 0.590393 -0.356865
C43   C     C_3   0.045039 0.750711 0.664935 -0.471724
C44   C     C_3   0.113276 0.866935 0.692779 -0.867644
H50   H     H_    0.225000 0.846403 0.704124 0.252103
H51   H     H_    0.105763 0.939189 0.647924 0.256851
H52   H     H_    0.057446 0.902337 0.747163 0.258202
H53   H     H_    0.933978 0.776402 0.654863 0.222419
H54   H     H_    0.046235 0.680829 0.711729 0.219987
H55   H     H_    0.232339 0.686125 0.605409 0.257435
H56   H     H_    0.110991 0.764626 0.543532 0.235357
Cl2   Cl    Cl    0.143929 0.690792 0.396732 -0.713454

loop_
_geom_bond_atom_site_label_1
_geom_bond_atom_site_label_2
_ccdc_geom_bond_type
C10   C27   S    
C24   H18   S    
C20   C39   S    
C39   C40   S    
C33   C34   S    
C14   C18   S    
C41   H43   S    
C32   H24   S    
C43   H53   S    
C18   H13   S    
Cu2   O2    S    
C21   H15   S    
C41   H45   S    
Cu1   O1    S    
C14   H12   S    
C38   H36   S    
C15   C19   S    
C36   H42   S    
C12   O4    A    
C17   C23   S    
C12   C28   S    
C5    H19   S    
C28   C29   A    
C24   C26   S    
C3    C7    A    
C5    C6    A    
C2    H26   S    
C44   H50   S    
C24   H20   S    
C15   C16   S    
C2    C32   A    
C11   H3    S    
C26   N2    S    
C21   H16   S    
C13   H6    S    
C26   C42   S    
C22   N1    S    
C36   C37   S    
C8    C9    D    
C21   N2    S    
C22   C25   S    
C1    O1    A    
Cu2   O6    S    
Cu1   O5    S    
C8    H27   S    
C43   H54   S    
C34   H33   S    
C26   H21   S    
C23   O6    A    
C37   H40   S    
C33   H34   S    
C42   C43   S    
C19   H9    S    
C17   C18   S    
C38   H37   S    
C12   O3    A    
C34   C35   S    
Cu1   Cu2   S    
C37   C38   S    
C39   H48   S    
C42   H55   S    
C25   Cl1   S    
C15   C36   S    
C4    H10   S    
C23   O5    A    
C25   N2    S    
C11   H4    S    
C35   H29   S    
C29   C30   A    
C11   C16   S    
C31   C32   A    
C40   H47   S    
C19   H11   S    
C1    O2    A    
C1    C16   S    
C35   H30   S    
C20   H14   S    
C14   H7    S    
C24   N1    S    
C34   H32   S    
C30   H28   S    
C14   C16   S    
C37   H39   S    
Cu2   O4    S    
C3    C4    A    
Cu2   O8    S    
C33   H35   S    
C27   O7    A    
Cu1   O3    S    
C38   H38   S    
C7    C9    S    
C8    C31   S    
C15   H8    S    
C39   H49   S    
C22   H22   S    
C41   H44   S    
C6    C7    A    
C18   C33   S    
C36   H41   S    
C43   C44   S    
C29   H1    S    
C13   C17   S    
C20   N1    S    
C5    C10   A    
C25   Cl2   S    
C11   C13   S    
C30   C31   A    
C44   H51   S    
C40   H46   S    
Cu1   N2    S    
Cu2   N1    S    
C17   C19   S    
C6    H2    S    
C9    H23   S    
C40   C41   S    
C35   H31   S    
C13   H5    S    
Cu1   O7    S    
C42   H56   S    
C20   C21   S    
C2    C28   A    
C4    C10   A    
C27   O8    A    
C22   H17   S    
C44   H52   S    
C3    H25   S    
