data_mof_unit_45921.cif
_audit_creation_date              2012-12-11T15:55:43-0500
_audit_creation_method            fapswitch 2.2
_symmetry_space_group_name_H-M    P1
_symmetry_Int_Tables_number       1
_space_group_crystal_system       triclinic
_cell_length_a                    6.952162
_cell_length_b                    14.537399
_cell_length_c                    16.096498
_cell_angle_alpha                 90.009899
_cell_angle_beta                  89.909957
_cell_angle_gamma                 90.076838
_cell_volume                      1626.81085192

loop_
_atom_site_label
_atom_site_type_symbol
_atom_type_description
_atom_site_fract_x
_atom_site_fract_y
_atom_site_fract_z
_atom_type_partial_charge
O1    O     O_R   0.505680 0.583900 0.413320 -0.540133
O2    O     O_R   0.176010 0.594950 0.586080 -0.542801
O3    O     O_R   0.005680 0.416100 0.586680 -0.534887
C1    C     C_R   0.345017 0.617149 0.614983 0.688166
O4    O     O_R   0.175960 0.594930 0.413930 -0.543071
O5    O     O_R   0.005640 0.416080 0.413300 -0.540850
C2    C     C_R   0.345123 0.617146 0.385051 0.687427
O6    O     O_R   0.505720 0.583920 0.586700 -0.540352
O7    O     O_3   0.339190 0.441320 0.500000 -0.370207
V1    V     V_3+5 0.064350 0.510890 0.500000 1.400567
O8    O     O_R   0.675920 0.405050 0.413920 -0.543799
C3    C     C_R   0.844978 0.382801 0.385043 0.684797
O9    O     O_R   0.675960 0.405070 0.586070 -0.545156
C4    C     C_R   0.844624 0.382952 0.614789 0.696814
V2    V     V_3+5 0.564340 0.489110 0.500000 1.394797
O10   O     O_3   0.839370 0.558680 0.500000 -0.369997
C5    C     C_R   0.015705 0.312083 0.736399 0.042258
C6    C     C_R   0.853148 0.317339 0.685338 -0.076029
C7    C     C_R   0.699674 0.257298 0.702927 -0.190953
H1    H     H_    0.575374 0.256330 0.662936 0.130203
C8    C     C_R   0.711682 0.193193 0.768357 -0.191496
H2    H     H_    0.596457 0.144843 0.778072 0.145885
C9    C     C_R   0.877416 0.186274 0.817607 -0.054545
C10   C     C_R   0.028985 0.246524 0.799945 0.066068
C11   C     C_3   0.228570 0.221475 0.775072 0.186962
C12   C     C_3   0.216887 0.295838 0.708870 -0.455974
H3    H     H_    0.334991 0.234232 0.825177 0.095417
H4    H     H_    0.225386 0.270018 0.643883 0.180637
H5    H     H_    0.310363 0.356140 0.722244 0.145151
C13   C     C_R   0.046471 0.224488 0.217685 -0.157930
H6    H     H_    0.186910 0.205888 0.193906 0.115995
C14   C     C_R   0.035341 0.288040 0.282926 -0.151441
H7    H     H_    0.167775 0.316571 0.307195 0.118791
C15   C     C_R   0.856166 0.314428 0.316194 -0.045741
C16   C     C_R   0.688442 0.275461 0.282312 -0.157050
H8    H     H_    0.548005 0.294060 0.306092 0.116806
C17   C     C_R   0.699573 0.211907 0.217072 -0.151770
H9    H     H_    0.567139 0.183373 0.192804 0.118510
C18   C     C_R   0.878747 0.185528 0.183795 -0.044171
C19   C     C_R   0.188496 0.724612 0.717637 -0.156924
H10   H     H_    0.048103 0.706094 0.693831 0.117115
C20   C     C_R   0.199630 0.788203 0.782836 -0.139042
H11   H     H_    0.067234 0.816854 0.807047 0.120601
C21   C     C_R   0.378754 0.814461 0.816149 -0.046926
C22   C     C_R   0.546432 0.775392 0.782312 -0.156611
H12   H     H_    0.686827 0.793915 0.806113 0.117322
C23   C     C_R   0.535300 0.711806 0.717109 -0.150471
H13   H     H_    0.667700 0.683170 0.692888 0.119018
C24   C     C_R   0.356171 0.685516 0.683819 -0.048195
C25   C     C_R   0.188616 0.724354 0.282429 -0.155652
H14   H     H_    0.048201 0.705672 0.306290 0.117274
C26   C     C_R   0.199654 0.787911 0.217203 -0.151754
H15   H     H_    0.067220 0.816362 0.193029 0.118716
C27   C     C_R   0.378761 0.814398 0.183827 -0.044930
C28   C     C_R   0.546521 0.775540 0.217597 -0.156174
H16   H     H_    0.686931 0.794225 0.193734 0.116730
C29   C     C_R   0.535482 0.711980 0.282826 -0.151261
H17   H     H_    0.667910 0.683526 0.307003 0.119098
C30   C     C_R   0.356370 0.685494 0.316200 -0.046538
O11   O     O_R   0.229200 0.915950 0.913350 -0.535478
O12   O     O_R   0.559090 0.905000 0.086080 -0.544460
O13   O     O_R   0.729280 0.083880 0.086680 -0.542029
C31   C     C_R   0.389958 0.882750 0.114978 0.679801
O14   O     O_R   0.558920 0.904980 0.913920 -0.544988
O15   O     O_R   0.729110 0.083860 0.913300 -0.545147
C32   C     C_R   0.389909 0.882783 0.885018 0.704658
O16   O     O_R   0.229360 0.915970 0.086730 -0.542547
O17   O     O_3   0.395680 0.058580 0.000030 -0.369483
V3    V     V_3+5 0.670570 0.989070 0.999990 1.403340
O18   O     O_R   0.058820 0.094950 0.913870 -0.524986
C33   C     C_R   0.890037 0.116586 0.884795 0.715385
O19   O     O_R   0.058990 0.094970 0.086020 -0.546738
C34   C     C_R   0.889936 0.117173 0.114930 0.675377
V4    V     V_3+5 0.170560 0.010930 0.999930 1.427723
O20   O     O_3   0.895590 0.941310 0.999960 -0.373566
O21   O     O_3   0.233113 0.131784 0.742192 -0.631213
H18   H     H_    0.334612 0.130145 0.698923 0.286054

loop_
_geom_bond_atom_site_label_1
_geom_bond_atom_site_label_2
_ccdc_geom_bond_type
C28   H16   S    
C4    C6    S    
C21   C32   S    
C7    H1    S    
C1    O6    A    
C23   C24   A    
C22   H12   S    
C26   H15   S    
C5    C12   S    
C16   C17   A    
C6    C7    A    
O5    C3    A    
C13   H6    S    
C29   C30   A    
C27   C31   S    
O17   V4    S    
C19   C24   A    
C15   C16   A    
O12   C31   A    
O8    V2    S    
C16   H8    S    
O17   V3    S    
O18   V4    S    
C25   C26   A    
C9    C10   A    
O13   C34   A    
O18   C33   A    
O1    V2    S    
O7    V1    S    
C19   C20   A    
O11   C32   A    
O9    C4    A    
C20   C21   A    
C2    C30   S    
C26   C27   A    
C25   H14   S    
C22   C23   A    
C8    C9    A    
C31   O16   A    
C5    C10   A    
V4    O20   S    
C9    C33   S    
C10   C11   S    
O19   V4    S    
O4    C2    A    
C11   C12   S    
O15   C33   A    
O13   V3    S    
O14   C32   A    
O2    C1    A    
C17   H9    S    
C23   H13   S    
C5    C6    A    
O16   V4    S    
O14   V3    S    
O21   H18   S    
O3    C4    A    
C19   H10   S    
O6    V2    S    
C28   C29   A    
C20   H11   S    
C25   C30   A    
C3    C15   S    
O2    V1    S    
C21   C22   A    
O12   V3    S    
C27   C28   A    
C7    C8    A    
O1    C2    A    
O19   C34   A    
O5    V1    S    
O8    C3    A    
C11   H3    S    
C12   H4    S    
C1    C24   S    
C11   O21   S    
C14   H7    S    
O9    V2    S    
O7    V2    S    
O4    V1    S    
C17   C18   A    
O3    V1    S    
V1    O10   S    
C13   C14   A    
C29   H17   S    
O15   V3    S    
O11   V4    S    
C13   C18   A    
V3    O20   S    
C18   C34   S    
C12   H5    S    
C8    H2    S    
V2    O10   S    
C14   C15   A    
