data_mof_unit_66602.cif
_audit_creation_date              2013-03-05T16:02:15-0500
_audit_creation_method            fapswitch 2.2
_symmetry_space_group_name_H-M    P1
_symmetry_Int_Tables_number       1
_space_group_crystal_system       triclinic
_cell_length_a                    8.203107
_cell_length_b                    14.258059
_cell_length_c                    14.93479
_cell_angle_alpha                 95.184143
_cell_angle_beta                  97.745349
_cell_angle_gamma                 91.880083
_cell_volume                      1721.9705354

loop_
_atom_site_label
_atom_site_type_symbol
_atom_site_description
_atom_site_fract_x
_atom_site_fract_y
_atom_site_fract_z
_atom_type_partial_charge
P1    P     P_3+3 0.018600 0.416790 0.295970 0.461110
O1    O     O_2   0.841230 0.444160 0.280430 -0.373535
O2    O     O_3   0.112860 0.447350 0.393710 -0.390234
O3    O     O_3   0.597940 0.615700 0.327690 -0.368771
O4    O     O_2   0.694795 0.554278 0.171830 -0.388024
O5    O     O_3   0.008196 0.295229 0.266615 -0.613211
O6    O     O_3   0.597811 0.728048 0.181584 -0.532913
H1    H     H_    0.602312 0.835208 0.284450 0.143150
C1    C     C_3   0.413399 0.856840 0.170605 -0.533747
H2    H     H_    0.370197 0.817457 0.103412 0.222315
P2    P     P_3+3 0.635660 0.716530 0.560900 0.461384
P3    P     P_3+3 0.035972 0.784788 0.362596 0.500948
O7    O     O_2   0.802240 0.729740 0.532850 -0.413729
O8    O     O_3   0.017180 0.664790 0.371080 -0.394473
O9    O     O_2   0.911503 0.832143 0.419280 -0.322797
O10   O     O_3   0.648686 0.744451 0.679050 -0.607993
O11   O     O_3   0.968278 0.805668 0.250298 -0.507474
C2    C     C_3   0.021241 0.732928 0.192561 0.414189
H3    H     H_    0.955724 0.665102 0.199074 0.161182
H4    H     H_    0.155707 0.724786 0.208150 0.002627
C3    C     C_3   0.983778 0.755704 0.094633 -0.895551
H5    H     H_    0.848675 0.752746 0.073083 0.294271
H6    H     H_    0.035404 0.827106 0.087192 0.241313
C4    C     C_3   0.221964 0.744181 0.641740 0.456496
H7    H     H_    0.314713 0.704574 0.608801 0.113039
H8    H     H_    0.105053 0.741108 0.594550 0.100087
C5    C     C_3   0.283691 0.847098 0.663848 -1.012203
H9    H     H_    0.413991 0.851456 0.695831 0.287003
H10   H     H_    0.273077 0.883844 0.601173 0.231918
H11   H     H_    0.211468 0.885154 0.711880 0.264413
Ba1   Ba    Ba6+2 0.833400 0.543310 0.453520 1.566314
C6    C     C_3   0.971743 0.243610 0.336621 0.209261
H12   H     H_    0.855974 0.266266 0.360137 0.096876
H13   H     H_    0.074564 0.251844 0.393695 0.139819
C7    C     C_3   0.950975 0.140965 0.295410 -0.156528
H14   H     H_    0.843248 0.133431 0.240919 0.140421
H15   H     H_    0.062285 0.121825 0.263935 0.128098
C8    C     C_3   0.801033 0.728137 0.729178 0.898141
H16   H     H_    0.874299 0.679199 0.690876 -0.002374
C9    C     C_3   0.895455 0.823073 0.756211 -1.049456
H17   H     H_    0.940608 0.849119 0.696555 0.215030
H18   H     H_    0.004600 0.816540 0.807539 0.281129
H19   H     H_    0.814589 0.875676 0.784731 0.252694
P4    P     P_3+3 0.171090 0.583290 0.704030 0.486720
O12   O     O_2   0.348480 0.555870 0.719620 -0.305498
O13   O     O_3   0.076830 0.552730 0.606300 -0.418494
O14   O     O_3   0.591760 0.384380 0.672320 -0.379976
O15   O     O_3   0.195750 0.706475 0.722145 -0.567440
P5    P     P_3+3 0.155516 0.213118 0.633540 0.482852
O16   O     O_3   0.629090 0.386350 0.459240 -0.386925
O17   O     O_3   0.172520 0.335290 0.628920 -0.373180
O18   O     O_2   0.275754 0.168068 0.572847 -0.350550
O19   O     O_3   0.236000 0.186060 0.742130 -0.532156
Ba2   Ba    Ba6+2 0.356420 0.456770 0.546480 1.585187
P6    P     P_3+3 0.560642 0.613168 0.210074 0.453888
C10   C     C_3   0.512236 0.792679 0.233174 0.451064
H20   H     H_    0.424194 0.758311 0.271583 -0.012640
H21   H     H_    0.301688 0.877142 0.200967 0.156160
O20   O     O_3   0.560610 0.613730 0.540770 -0.361485
C11   C     C_3   0.458153 0.315942 0.274272 0.436526
H22   H     H_    0.340666 0.334743 0.298766 0.103821
H23   H     H_    0.546680 0.377831 0.287496 0.128506
C12   C     C_3   0.425119 0.289840 0.172260 -1.028545
H24   H     H_    0.335084 0.228857 0.156840 0.267941
H25   H     H_    0.374101 0.350196 0.137529 0.227475
H26   H     H_    0.541447 0.270946 0.146097 0.260661
P7    P     P_3+3 0.560279 0.268760 0.433782 0.417843
O21   O     O_2   0.387460 0.270290 0.467210 -0.363779
O22   O     O_3   0.522802 0.238520 0.316357 -0.587418
H27   H     H_    0.039961 0.703452 0.049937 0.253017
C13   C     C_3   0.156002 0.235484 0.808168 0.315946
H28   H     H_    0.235180 0.298093 0.838702 0.127497
H29   H     H_    0.034079 0.260615 0.781058 0.001627
C14   C     C_3   0.132874 0.169870 0.881474 -0.450659
H30   H     H_    0.255478 0.147562 0.911370 0.222238
H31   H     H_    0.058260 0.106028 0.849410 0.208169
P8    P     P_3+3 0.627739 0.388204 0.790164 0.474843
C15   C     C_3   0.638991 0.208443 0.754989 0.500955
H32   H     H_    0.765793 0.224468 0.741219 -0.017818
O23   O     O_2   0.491164 0.446097 0.827267 -0.354390
O24   O     O_3   0.593037 0.274520 0.821612 -0.547146
H33   H     H_    0.552363 0.207635 0.690991 0.151851
H34   H     H_    0.667565 0.057651 0.735568 0.219047
C16   C     C_3   0.633190 0.110658 0.788027 -0.998314
H35   H     H_    0.507133 0.091892 0.801802 0.291453
H36   H     H_    0.720770 0.108800 0.851256 0.253693
C17   C     C_R   0.834580 0.442767 0.833484 0.214563
C18   C     C_R   0.903085 0.450063 0.926067 -0.003062
C19   C     C_R   0.043730 0.464492 0.112613 -0.035264
C20   C     C_R   0.893444 0.414057 0.081757 -0.072791
C21   C     C_R   0.821973 0.409962 0.991380 -0.204480
C22   C     C_R   0.112144 0.475245 0.206261 0.266560
H37   H     H_    0.827164 0.377298 0.126574 0.171127
H38   H     H_    0.704005 0.372363 0.973238 0.179256
C23   C     C_R   0.264232 0.523778 0.231600 -0.541223
C24   C     C_R   0.075091 0.528220 0.795065 0.233836
C25   C     C_R   0.142721 0.539192 0.888753 0.002676
C26   C     C_R   0.058519 0.497663 0.953871 0.049612
C27   C     C_R   0.289843 0.592138 0.919881 -0.052553
C28   C     C_R   0.360494 0.597707 0.010508 -0.183997
C29   C     C_R   0.282339 0.554681 0.075323 -0.041936
C30   C     C_R   0.127955 0.505883 0.047435 -0.006753
C31   C     C_R   0.352159 0.560738 0.167598 0.181793
C32   C     C_R   0.923472 0.479098 0.769547 -0.453135
H39   H     H_    0.476116 0.637682 0.029010 0.194347
H40   H     H_    0.352239 0.630510 0.874816 0.211808
H41   H     H_    0.318226 0.529373 0.302159 0.184361
H42   H     H_    0.870550 0.472532 0.698786 0.175431
C33   C     C_R   0.701982 0.937214 0.548182 -0.120071
C34   C     C_R   0.509215 0.799187 0.495129 0.262825
C35   C     C_R   0.356541 0.765431 0.447842 -0.518000
C36   C     C_R   0.247783 0.826659 0.405770 0.219270
C37   C     C_R   0.298427 0.919589 0.400575 -0.271780
C38   C     C_R   0.449309 0.955975 0.448013 0.046277
C39   C     C_R   0.554977 0.896756 0.497753 -0.005696
H43   H     H_    0.318390 0.692106 0.447999 0.172942
C40   C     C_R   0.638962 0.091704 0.499175 0.036361
C41   C     C_R   0.745397 0.033251 0.549272 0.105829
C42   C     C_R   0.685454 0.187876 0.499349 0.202860
C43   C     C_R   0.835861 0.223888 0.546872 -0.494892
C44   C     C_R   0.944726 0.165485 0.592256 0.292647
C45   C     C_R   0.897992 0.070680 0.596075 -0.235066
C46   C     C_R   0.492283 0.051731 0.448254 -0.080119
H44   H     H_    0.218912 0.963417 0.360413 0.193628
H45   H     H_    0.983526 0.025503 0.631253 0.137689
H46   H     H_    0.872704 0.297028 0.543987 0.170541
H47   H     H_    0.785789 0.894616 0.585451 0.146753
H48   H     H_    0.409135 0.094296 0.408538 0.166044
N1    N     N_R   0.928934 0.076406 0.362977 0.234482
O25   O     O_R   0.812363 0.010707 0.345781 -0.404190
O26   O     O_R   0.045384 0.071003 0.430086 -0.426805
N2    N     N_R   0.770644 0.686471 0.811834 0.207147
O27   O     O_R   0.623469 0.655962 0.821187 -0.382293
O28   O     O_R   0.888762 0.683058 0.878686 -0.478561
C47   C     C_3   0.506814 0.948861 0.158277 -0.270475
C48   C     C_3   0.657411 0.932601 0.110059 -0.723220
H49   H     H_    0.709794 0.001353 0.095103 0.212311
H50   H     H_    0.753105 0.898916 0.154276 0.303957
H51   H     H_    0.623210 0.887434 0.045199 0.253260
H52   H     H_    0.544373 0.989556 0.225304 0.229476
H53   H     H_    0.421559 0.992505 0.117109 0.191712
C49   C     C_3   0.046239 0.217959 0.956524 -0.344506
C50   C     C_3   0.017604 0.150942 0.027575 -0.863731
H54   H     H_    0.934010 0.090455 0.996355 0.254863
H55   H     H_    0.136021 0.123815 0.057563 0.253995
H56   H     H_    0.959917 0.188959 0.082562 0.259823
H57   H     H_    0.122256 0.280573 0.990142 0.215014
H58   H     H_    0.925063 0.241202 0.926137 0.216743

loop_
_geom_bond_atom_site_label_1
_geom_bond_atom_site_label_2
_geom_bond_distance
_ccdc_geom_bond_type
C50   H56   1.110531 S    
O5    C6    1.390362 S    
C17   C18   1.413932 A    
C12   H25   1.109303 S    
C29   C30   1.417403 A    
C19   C30   1.425304 A    
C5    H10   1.108098 S    
C2    C3    1.519906 S    
C35   C36   1.397139 A    
C4    C5    1.528821 S    
O6    P6    1.756435 S    
O8    Ba1   2.739177 S    
H1    C10   1.110983 S    
C38   C39   1.415597 A    
C20   C21   1.392550 A    
C47   C48   1.525403 S    
P4    O12   1.512274 D    
N1    O26   1.297579 A    
C28   H39   1.079912 S    
O16   Ba2   2.899168 S    
C14   H31   1.112741 S    
C11   C12   1.520765 S    
C7    H15   1.112671 S    
C4    H8    1.108084 S    
P1    O1    1.511866 D    
C40   C42   1.410851 A    
C8    H16   1.106057 S    
O2    Ba2   2.813147 S    
C43   H46   1.082443 S    
Ba2   O21   2.844763 S    
C50   H54   1.110741 S    
P6    C31   1.850427 S    
P1    Ba1   3.387473 S    
C10   H20   1.109059 S    
C11   H23   1.110331 S    
C2    H3    1.109296 S    
C41   C45   1.411803 A    
Ba1   O20   2.900075 S    
O7    Ba1   2.844605 S    
C34   C35   1.399836 A    
C33   H47   1.066144 S    
C9    H19   1.111333 S    
C7    H14   1.113054 S    
C23   C31   1.401252 A    
N2    O27   1.299328 A    
P5    O17   1.751263 S    
Ba1   O13   2.812614 S    
P3    O11   1.749250 S    
P3    O9    1.545962 D    
C35   H43   1.081726 S    
C1    H2    1.112285 S    
C7    N1    1.450634 S    
C9    H18   1.109641 S    
C14   C49   1.529488 S    
C12   H26   1.110936 S    
P2    Ba1   3.398687 S    
C29   C31   1.413214 A    
C3    H5    1.109930 S    
C5    H11   1.106940 S    
O6    C10   1.412635 S    
C48   H51   1.110822 S    
P2    O20   1.558534 S    
C36   C37   1.387577 A    
C25   C27   1.402886 A    
P4    O13   1.573805 S    
C33   C41   1.401600 A    
C25   C26   1.425407 A    
Ba2   O20   2.765556 S    
C47   H52   1.110779 S    
P3    C36   1.830707 S    
C14   H30   1.112492 S    
C12   H24   1.109222 S    
P7    O21   1.565337 D    
C4    O15   1.398549 S    
C6    C7    1.530468 S    
C49   H58   1.109530 S    
C4    H7    1.103924 S    
C48   H50   1.106936 S    
C13   H29   1.110499 S    
C15   H32   1.107703 S    
C26   C30   1.429082 A    
C22   C23   1.395466 A    
P1    O5    1.745403 S    
C11   H22   1.108499 S    
P1    O2    1.573931 S    
C6    H13   1.110570 S    
P4    C24   1.877780 S    
P4    Ba2   3.388068 S    
P2    O10   1.761525 S    
C15   H33   1.110431 S    
H34   C16   1.109523 S    
C18   C21   1.404233 A    
P8    O24   1.752811 S    
P5    O18   1.544140 D    
P5    C44   1.841529 S    
C24   C25   1.426735 A    
O13   Ba2   2.909917 S    
O11   C2    1.406002 S    
C1    C10   1.538292 S    
C16   H35   1.110101 S    
C19   C22   1.427804 A    
O2    Ba1   2.908960 S    
C44   C45   1.401155 A    
C23   H41   1.081525 S    
O14   Ba2   2.797798 S    
C38   C46   1.398399 A    
C1    C47   1.535666 S    
C9    H17   1.099356 S    
P3    O8    1.730391 S    
O12   Ba2   2.842236 S    
P1    C22   1.874954 S    
C3    H6    1.110398 S    
O3    P6    1.738788 S    
O14   P8    1.740456 S    
Ba1   O16   2.766158 S    
O19   C13   1.406816 S    
C32   H42   1.081597 S    
C43   C44   1.392110 A    
C20   H37   1.077552 S    
C37   C38   1.399317 A    
O16   P7    1.743281 S    
P8    O23   1.545616 D    
C50   H55   1.110167 S    
C27   H40   1.074851 S    
C1    H21   1.111241 S    
C49   H57   1.111768 S    
O4    P6    1.544567 D    
C16   H36   1.109721 S    
C48   H49   1.110526 S    
C13   C14   1.529455 S    
C42   C43   1.395053 A    
C27   C28   1.392938 A    
C3    H27   1.108439 S    
O17   Ba2   2.739757 S    
C6    H12   1.104121 S    
C45   H45   1.083826 S    
C24   C32   1.396254 A    
N1    O25   1.299767 A    
C13   H28   1.111423 S    
C40   C41   1.414589 A    
C21   H38   1.079953 S    
C8    C9    1.530798 S    
P2    O7    1.493281 D    
C15   O24   1.405256 S    
C46   H48   1.080994 S    
C37   H44   1.079247 S    
C11   O22   1.403141 S    
P5    O19   1.748157 S    
C28   C29   1.404705 A    
C2    H4    1.108347 S    
Ba1   Ba2   4.496257 S    
C40   C46   1.407460 A    
O3    Ba1   2.798311 S    
C33   C39   1.408983 A    
C17   C32   1.401492 A    
C15   C16   1.521796 S    
C47   H53   1.111827 S    
P8    C17   1.851829 S    
N2    O28   1.299676 A    
O10   C8    1.405251 S    
C5    H9    1.107771 S    
C49   C50   1.526394 S    
O1    Ba1   2.841741 S    
P7    O22   1.750799 S    
C19   C20   1.406451 A    
P7    C42   1.831396 S    
C34   C39   1.424659 A    
C18   C26   1.417170 A    
P4    O15   1.753588 S    
C8    N2    1.464485 S    
P2    C34   1.855922 S    
