data_mof_unit_47411.cif
_audit_creation_date              2012-10-26T20:21:16-0400
_audit_creation_method            fapswitch 2.2
_symmetry_space_group_name_H-M    P1
_symmetry_Int_Tables_number       1
_space_group_crystal_system       triclinic
_cell_length_a                    9.606088
_cell_length_b                    10.808264
_cell_length_c                    15.568763
_cell_angle_alpha                 89.475106
_cell_angle_beta                  72.88155
_cell_angle_gamma                 90.295695
_cell_volume                      1544.7013025

loop_
_atom_site_label
_atom_site_type_symbol
_atom_type_description
_atom_site_fract_x
_atom_site_fract_y
_atom_site_fract_z
_atom_type_partial_charge
C1    C     C_R   0.999695 0.262469 0.500036 0.588179
C2    C     C_R   0.126450 0.065577 0.453363 0.351266
C3    C     C_R   0.000509 0.871468 0.499559 -0.077334
C4    C     C_R   0.999646 0.128539 0.499679 -0.089036
C5    C     C_R   0.548925 0.417261 0.551505 0.488813
C6    C     C_R   0.450885 0.582937 0.448850 0.490909
C7    C     C_R   0.400664 0.417559 0.551824 0.500270
C8    C     C_R   0.598830 0.583097 0.448874 0.497013
C9    C     C_R   0.916329 0.498949 0.672540 0.560959
C10   C     C_R   0.083511 0.506911 0.328165 0.570001
C11   C     C_R   0.868379 0.507117 0.771848 -0.068116
C12   C     C_R   0.000436 0.737536 0.499642 0.597433
C13   C     C_R   0.132289 0.543846 0.232746 -0.056216
C14   C     C_R   0.926769 0.540639 0.911725 0.419658
C15   C     C_R   0.117239 0.690979 0.117006 0.472152
C16   C     C_R   0.971685 0.519944 0.819543 0.368268
C17   C     C_R   0.058351 0.638386 0.202201 0.398496
C18   C     C_R   0.718289 0.509665 0.819691 0.211725
C19   C     C_R   0.269725 0.507033 0.178039 0.222565
C20   C     C_R   0.674288 0.546777 0.910268 -0.110092
C21   C     C_R   0.332108 0.567371 0.094540 -0.102035
C22   C     C_R   0.778791 0.555615 0.957362 -0.121088
C23   C     C_R   0.585480 0.576472 0.097326 0.326506
C24   C     C_R   0.247476 0.646962 0.058803 -0.056618
C25   C     C_R   0.529033 0.579214 0.955856 -0.062411
C26   C     C_R   0.481478 0.561828 0.049833 -0.070750
C27   C     C_3   0.813454 0.785339 0.049858 0.006960
C28   C     C_3   0.251153 0.883148 0.926175 -0.041418
C29   C     C_3   0.321059 0.302624 0.173595 -0.059047
C30   C     C_3   0.567594 0.354731 0.804294 0.010037
C31   C     C_3   0.491995 0.728103 0.201475 0.036681
C32   C     C_3   0.588779 0.791414 0.821608 -0.056740
C33   C     C_R   0.439332 0.648885 0.915234 0.338988
C34   C     C_R   0.732670 0.588607 0.048462 0.331194
C35   C     C_R   0.301501 0.688761 0.968677 0.360359
C36   C     C_R   0.873259 0.062581 0.545785 0.354814
C37   C     C_R   0.126824 0.937403 0.453287 0.364232
C38   C     C_R   0.873553 0.934455 0.545515 0.346078
Cu1   Cu    Cu3+1 0.140660 0.500020 0.500000 1.241780
Cu2   Cu    Cu3+1 0.859340 0.499980 0.500000 1.240653
F1    F     F_    0.936131 0.688575 0.257848 -0.506921
F2    F     F_    0.407066 0.667233 0.397950 -0.528958
F3    F     F_    0.306251 0.334933 0.604711 -0.526066
F4    F     F_    0.691961 0.667771 0.397698 -0.484077
F5    F     F_    0.116829 0.511921 0.777574 -0.526570
F6    F     F_    0.028148 0.544641 0.956611 -0.552341
F7    F     F_    0.061318 0.798591 0.098213 -0.614428
F8    F     F_    0.751054 0.121780 0.593427 -0.518977
F9    F     F_    0.248953 0.878138 0.405644 -0.525494
F10   F     F_    0.751058 0.872099 0.592073 -0.564256
F11   F     F_    0.248581 0.127976 0.406184 -0.550141
F12   F     F_    0.592470 0.333404 0.603017 -0.522624
H1    H     H_    0.713909 0.806828 0.029585 -0.001279
H2    H     H_    0.522353 0.344456 0.878553 0.080812
H3    H     H_    0.657751 0.288099 0.778113 0.150337
H4    H     H_    0.478528 0.330772 0.775336 0.234328
H5    H     H_    0.490408 0.779760 0.139455 0.015243
H6    H     H_    0.560237 0.781201 0.234838 0.233468
H7    H     H_    0.378653 0.726198 0.246670 0.209850
H8    H     H_    0.702139 0.757368 0.805044 0.135099
H9    H     H_    0.564716 0.848150 0.883688 0.031132
H10   H     H_    0.583019 0.853898 0.765902 0.222244
H11   H     H_    0.909500 0.802814 0.990605 0.196384
H12   H     H_    0.814891 0.852076 0.103280 0.210584
H13   H     H_    0.325322 0.907005 0.858783 0.147192
H14   H     H_    0.300426 0.912303 0.979472 0.095339
H15   H     H_    0.150915 0.938302 0.935109 0.157401
H16   H     H_    0.362171 0.302790 0.098846 0.106456
H17   H     H_    0.203279 0.277227 0.196683 0.125053
H18   H     H_    0.380955 0.230211 0.198850 0.190636
N1    N     N_R   0.352080 0.500030 0.499980 -0.305631
N2    N     N_R   0.647920 0.499970 0.500020 -0.313473
O1    O     O_R   0.118740 0.319660 0.500000 -0.422405
O2    O     O_3   0.212902 0.756374 0.930048 -0.447338
O3    O     O_3   0.346742 0.417439 0.208535 -0.484987
O4    O     O_3   0.614716 0.476920 0.778020 -0.456147
O5    O     O_3   0.544440 0.605192 0.188006 -0.463011
O6    O     O_3   0.489703 0.691953 0.827274 -0.462603
O7    O     O_R   0.881260 0.680340 0.500000 -0.407356
O8    O     O_R   0.881170 0.319630 0.500010 -0.440107
O9    O     O_R   0.118830 0.680370 0.499990 -0.442725
O10   O     O_R   0.055570 0.500030 0.629830 -0.432597
O11   O     O_R   0.944430 0.499970 0.370170 -0.455148
O12   O     O_R   0.818000 0.500000 0.629840 -0.433621
O13   O     O_R   0.182000 0.500000 0.370160 -0.438024
O14   O     O_3   0.819511 0.662978 0.083036 -0.439341

loop_
_geom_bond_atom_site_label_1
_geom_bond_atom_site_label_2
_ccdc_geom_bond_type
C21   C26   A    
C4    C36   A    
C11   C18   A    
Cu2   O12   S    
C2    C4    A    
C15   F7    S    
C28   O2    S    
C10   O13   A    
C30   H2    S    
C31   H6    S    
C19   C21   A    
C32   H9    S    
C5    N2    A    
C7    N1    A    
C33   O6    S    
C20   C25   A    
C12   O7    A    
C10   O11   A    
C37   F9    S    
C34   O14   S    
C23   C26   A    
C31   H7    S    
C3    C12   S    
C3    C38   A    
Cu2   O8    S    
C5    F12   S    
C7    F3    S    
C9    O10   A    
Cu1   N1    S    
Cu2   O11   S    
C31   O5    S    
C29   H17   S    
C6    N1    A    
C22   C34   A    
C8    N2    A    
C24   C35   A    
C13   C19   A    
C28   H15   S    
Cu1   O9    S    
C14   F6    S    
C2    F11   S    
Cu1   Cu2   S    
C5    C7    A    
C6    C8    A    
C25   C26   A    
C30   H4    S    
C27   O14   S    
C28   H14   S    
C29   H16   S    
C30   O4    S    
C11   C16   A    
C23   C34   A    
Cu2   O7    S    
C23   O5    S    
C9    C11   S    
C27   H11   S    
C38   F10   S    
C15   C24   A    
C20   C22   A    
C14   C16   A    
C32   H8    S    
C29   H18   S    
C15   C17   A    
C18   O4    S    
Cu2   N2    S    
C8    F4    S    
Cu1   O10   S    
C10   C13   S    
C16   F5    S    
C27   H1    S    
C29   O3    S    
C30   H3    S    
C13   C17   A    
C1    C4    S    
C1    O1    A    
C14   C22   A    
C19   O3    S    
C28   H13   S    
C32   H10   S    
C2    C37   A    
C31   H5    S    
C36   C38   A    
C33   C35   A    
C12   O9    A    
C36   F8    S    
C18   C20   A    
Cu1   O1    S    
C17   F1    S    
C27   H12   S    
C9    O12   A    
C32   O6    S    
C35   O2    S    
C3    C37   A    
C6    F2    S    
C21   C24   A    
C1    O8    A    
Cu1   O13   S    
C25   C33   A    
