data_mof_unit_67318.cif
_audit_creation_date              2013-03-05T16:05:15-0500
_audit_creation_method            fapswitch 2.2
_symmetry_space_group_name_H-M    P1
_symmetry_Int_Tables_number       1
_space_group_crystal_system       triclinic
_cell_length_a                    8.451596
_cell_length_b                    15.281311
_cell_length_c                    15.066299
_cell_angle_alpha                 101.093476
_cell_angle_beta                  97.050283
_cell_angle_gamma                 99.160537
_cell_volume                      1861.34975309

loop_
_atom_site_label
_atom_site_type_symbol
_atom_site_description
_atom_site_fract_x
_atom_site_fract_y
_atom_site_fract_z
_atom_type_partial_charge
P1    P     P_3+3 0.996570 0.418570 0.288410 0.532951
O1    O     O_2   0.826460 0.445380 0.275370 -0.305815
O2    O     O_3   0.098920 0.448470 0.388920 -0.356671
O3    O     O_3   0.628660 0.613390 0.338240 -0.367297
O4    O     O_2   0.701669 0.542703 0.174019 -0.320899
O5    O     O_3   0.931599 0.302020 0.266949 -0.619779
O6    O     O_3   0.609444 0.696851 0.184044 -0.578949
H1    H     H_    0.788128 0.757470 0.293050 0.196342
C1    C     C_3   0.689899 0.857100 0.229977 0.365757
P2    P     P_3+3 0.693070 0.712070 0.580610 0.577855
P3    P     P_3+3 0.118787 0.777025 0.395344 0.530170
O7    O     O_2   0.863170 0.725020 0.553760 -0.303841
O8    O     O_3   0.060910 0.661460 0.386100 -0.305382
O9    O     O_2   0.995250 0.823667 0.445929 -0.352443
O10   O     O_3   0.747666 0.756503 0.698661 -0.577250
O11   O     O_3   0.083848 0.792846 0.283368 -0.492543
C2    C     C_3   0.208221 0.762471 0.238903 0.312702
H2    H     H_    0.217348 0.691785 0.244528 0.074348
H3    H     H_    0.325979 0.808789 0.267856 0.049846
C3    C     C_3   0.173175 0.763233 0.138269 -0.677140
H4    H     H_    0.057540 0.715941 0.106358 0.261196
H5    H     H_    0.164354 0.833001 0.129804 0.315108
C4    C     C_3   0.210377 0.767485 0.748395 0.766313
C5    C     C_3   0.056992 0.763221 0.788481 -0.087669
H6    H     H_    0.007146 0.825006 0.782727 0.228512
H7    H     H_    0.976727 0.701063 0.749558 0.142666
Ba1   Ba    Ba6+2 0.844900 0.542440 0.457470 1.697801
C6    C     C_3   0.061560 0.256516 0.269174 0.675486
H8    H     H_    0.177147 0.300066 0.306008 0.113010
C7    C     C_3   0.081539 0.213410 0.172026 -0.687587
H9    H     H_    0.171569 0.168525 0.173734 0.301660
H10   H     H_    0.125496 0.266822 0.135784 0.230901
C8    C     C_3   0.644720 0.711733 0.747025 0.492229
C9    C     C_3   0.665316 0.761221 0.848594 -0.015562
H11   H     H_    0.746523 0.731553 0.892994 0.166878
H12   H     H_    0.547200 0.752405 0.873539 0.149500
P4    P     P_3+3 0.193140 0.581510 0.711600 0.517114
O12   O     O_2   0.363260 0.554650 0.724690 -0.333056
O13   O     O_3   0.090800 0.551610 0.611090 -0.347418
O14   O     O_3   0.561050 0.386690 0.661770 -0.368064
O15   O     O_3   0.286969 0.695894 0.761557 -0.630623
P5    P     P_3+3 0.073898 0.219857 0.597186 0.512347
O16   O     O_3   0.598950 0.388690 0.448890 -0.367835
O17   O     O_3   0.128800 0.338610 0.613910 -0.359046
O18   O     O_2   0.188349 0.177418 0.536413 -0.343323
O19   O     O_3   0.127533 0.184999 0.699596 -0.538503
Ba2   Ba    Ba6+2 0.344940 0.457640 0.542540 1.679396
P6    P     P_3+3 0.575804 0.593089 0.217841 0.495974
C10   C     C_3   0.669461 0.767148 0.260542 0.242273
O20   O     O_3   0.590770 0.611390 0.551120 -0.312785
C11   C     C_3   0.559673 0.265061 0.243538 0.564715
H13   H     H_    0.666197 0.308414 0.288982 0.096005
C12   C     C_3   0.606351 0.176351 0.196476 0.003129
H14   H     H_    0.715069 0.192863 0.164838 0.164549
H15   H     H_    0.635431 0.135599 0.247723 0.142801
P7    P     P_3+3 0.495983 0.272600 0.411131 0.477992
O21   O     O_2   0.326540 0.275010 0.446300 -0.305906
O22   O     O_3   0.431412 0.247795 0.291956 -0.584292
C13   C     C_3   0.050382 0.225574 0.770139 0.604253
H16   H     H_    0.945773 0.254914 0.745017 -0.104925
C14   C     C_3   0.989758 0.156089 0.825752 0.326306
H17   H     H_    0.919086 0.187633 0.876439 0.101951
P8    P     P_3+3 0.616448 0.389671 0.777908 0.549458
C15   C     C_3   0.546308 0.216221 0.719711 0.374388
H18   H     H_    0.668809 0.219379 0.699651 0.001129
O23   O     O_2   0.510447 0.450539 0.827834 -0.313040
O24   O     O_3   0.550083 0.282297 0.799465 -0.447990
H19   H     H_    0.459265 0.225265 0.662176 0.148753
C16   C     C_3   0.490205 0.122438 0.737484 -0.654064
H20   H     H_    0.361180 0.113016 0.746291 0.294564
H21   H     H_    0.562880 0.113978 0.800745 0.291814
C17   C     C_R   0.363407 0.535459 0.166948 0.248692
C18   C     C_R   0.107667 0.459870 0.198797 0.162100
C19   C     C_R   0.938698 0.464899 0.761274 -0.384266
C20   C     C_R   0.834336 0.438938 0.821098 0.230832
C21   C     C_R   0.889566 0.460238 0.915073 -0.213791
C22   C     C_R   0.054891 0.493402 0.950847 0.092499
C23   C     C_R   0.153783 0.531215 0.890985 0.045804
C24   C     C_R   0.123451 0.492533 0.044051 -0.016990
C25   C     C_R   0.289694 0.535208 0.076332 -0.028725
C26   C     C_R   0.380139 0.574543 0.016677 -0.112352
C27   C     C_R   0.312997 0.574793 0.927748 -0.044280
C28   C     C_R   0.038323 0.447235 0.105343 0.207600
C29   C     C_R   0.271118 0.497635 0.225135 -0.451223
C30   C     C_R   0.091364 0.520697 0.795165 0.251228
H22   H     H_    0.892475 0.450989 0.688741 0.168028
H23   H     H_    0.799599 0.453809 0.959146 0.208934
C31   C     C_R   0.334563 0.821963 0.450112 0.144892
H24   H     H_    0.187255 0.949169 0.395830 0.236455
C32   C     C_R   0.588728 0.792161 0.523283 0.203841
C33   C     C_R   0.765503 0.225243 0.505000 -0.415104
C34   C     C_R   0.862344 0.171250 0.542397 0.262792
C35   C     C_R   0.800509 0.079985 0.538017 -0.150266
C36   C     C_R   0.637462 0.041092 0.501018 0.054559
C37   C     C_R   0.542146 0.095466 0.456396 -0.113509
C38   C     C_R   0.569115 0.947716 0.500809 0.066038
C39   C     C_R   0.403235 0.914745 0.462616 -0.108578
C40   C     C_R   0.312074 0.972490 0.427526 -0.167221
C41   C     C_R   0.386079 0.053187 0.410927 0.383175
C42   C     C_R   0.657255 0.885604 0.536319 -0.222711
C43   C     C_R   0.432528 0.760904 0.473086 -0.003685
C44   C     C_R   0.606985 0.189156 0.459258 0.159758
H25   H     H_    0.779415 0.907306 0.572835 0.200934
H26   H     H_    0.816382 0.295874 0.509387 0.159424
Br1   Br    Br    0.092732 0.756259 0.916298 -0.491670
Br2   Br    Br    0.999329 0.163690 0.333935 -0.423052
H27   H     H_    0.965422 0.172048 0.132781 0.263770
Br3   Br    Br    0.701088 0.596126 0.745133 -0.519946
H28   H     H_    0.521030 0.705326 0.712593 0.134849
Br4   Br    Br    0.816587 0.949871 0.328466 -0.472492
Br5   Br    Br    0.755671 0.889876 0.874257 -0.238315
H29   H     H_    0.583912 0.769182 0.311028 -0.002386
H30   H     H_    0.569425 0.875034 0.212330 0.087962
Br6   Br    Br    0.491085 0.331293 0.152769 -0.410720
Br7   Br    Br    0.445065 0.101857 0.095988 -0.244768
Br8   Br    Br    0.800458 0.853034 0.124180 -0.323806
H31   H     H_    0.273308 0.741130 0.103712 0.211787
Br9   Br    Br    0.206962 0.322188 0.851133 -0.410638
Br10  Br    Br    0.163170 0.112973 0.891907 -0.245639
Br11  Br    Br    0.850191 0.050387 0.748054 -0.511487
H32   H     H_    0.502928 0.069484 0.678431 0.206238
H33   H     H_    0.330106 0.493522 0.291333 0.205406
H34   H     H_    0.507292 0.603593 0.036405 0.194342
Br12  Br    Br    0.859313 0.345781 0.062143 -0.478570
H35   H     H_    0.391176 0.606904 0.887346 0.168434
Br13  Br    Br    0.355403 0.633657 0.430725 -0.418544
H36   H     H_    0.883346 0.040501 0.563453 0.181309
Br14  Br    Br    0.306378 0.061522 0.290348 -0.422870
Br15  Br    Br    0.350528 0.881510 0.810938 -0.345579
Br16  Br    Br    0.191472 0.775960 0.624404 -0.458944

loop_
_geom_bond_atom_site_label_1
_geom_bond_atom_site_label_2
_geom_bond_distance
_ccdc_geom_bond_type
P2    Ba1   3.405996 S    
O14   Ba2   2.883226 S    
C24   C28   1.449154 A    
C35   C36   1.409277 A    
O19   C13   1.408702 S    
C14   Br10  1.943482 S    
C33   H26   1.082603 S    
C31   C43   1.405656 A    
C27   H35   1.076260 S    
C12   H14   1.102323 S    
O14   P8    1.744822 S    
C26   H34   1.076663 S    
C15   H19   1.110683 S    
P4    C30   1.910548 S    
C6    H8    1.105882 S    
C5    H7    1.090476 S    
C9    H11   1.107761 S    
P2    O10   1.752539 S    
C7    H9    1.103749 S    
C7    H27   1.108349 S    
P3    O9    1.549906 D    
C37   C41   1.401078 A    
C29   H33   1.076679 S    
C2    C3    1.511409 S    
P7    O21   1.590116 D    
C4    Br15  1.940125 S    
C2    H2    1.113579 S    
P1    O1    1.556474 D    
P5    O19   1.758230 S    
O2    Ba2   2.881123 S    
C16   H21   1.109684 S    
O5    C6    1.390766 S    
C6    Br2   1.913589 S    
O11   C2    1.406318 S    
C43   Br13  1.905257 S    
C4    C5    1.493293 S    
O1    Ba1   2.829643 S    
C28   Br12  1.933718 S    
P4    Ba2   3.381839 S    
C18   C29   1.386469 A    
P5    C34   1.846299 S    
C31   C39   1.410999 A    
C37   C44   1.439640 A    
C22   C24   1.455230 A    
P8    O23   1.547607 D    
C13   H16   1.111442 S    
C14   Br11  1.922900 S    
C9    Br5   1.937743 S    
C16   H20   1.104685 S    
C8    Br3   1.897552 S    
P5    O17   1.760447 S    
P6    C17   1.866757 S    
C32   C42   1.419097 A    
C3    H31   1.110333 S    
C39   C40   1.395620 A    
Ba2   O20   2.848939 S    
C12   H15   1.109756 S    
O4    P6    1.548529 D    
P8    O24   1.751884 S    
C13   C14   1.538367 S    
C11   Br6   1.937900 S    
C19   C20   1.403244 A    
O7    Ba1   2.857121 S    
C11   H13   1.096547 S    
C15   O24   1.406354 S    
C1    C10   1.522785 S    
C5    H6    1.107077 S    
O6    C10   1.395045 S    
Ba1   O13   2.880499 S    
C33   C34   1.395992 A    
C22   C23   1.441409 A    
C42   H25   1.077006 S    
C26   C27   1.390391 A    
P1    O5    1.732498 S    
C4    Br16  1.886397 S    
C11   C12   1.537888 S    
P5    O18   1.543783 D    
C20   C21   1.393021 A    
C35   H36   1.076421 S    
C32   C43   1.399290 A    
P4    O12   1.556934 D    
Ba2   O21   2.857369 S    
P3    O11   1.746200 S    
C23   C27   1.396681 A    
C16   H32   1.109988 S    
P3    C31   1.868679 S    
C38   C39   1.419831 A    
C8    C9    1.546385 S    
C36   C37   1.444461 A    
C11   O22   1.397838 S    
C15   C16   1.520820 S    
C21   C22   1.408627 A    
C36   C38   1.450917 A    
C21   H23   1.074239 S    
O12   Ba2   2.830190 S    
C17   C29   1.389366 A    
P2    O7    1.533796 D    
C10   H29   1.111479 S    
C23   C30   1.443959 A    
C3    H5    1.110752 S    
C13   Br9   1.925693 S    
C8    H28   1.089151 S    
C33   C44   1.402068 A    
P2    O20   1.590940 S    
O3    Ba1   2.883907 S    
Ba1   O20   2.933670 S    
O13   Ba2   2.949246 S    
O3    P6    1.768235 S    
Ba1   Ba2   4.626190 S    
C1    Br4   1.917091 S    
C1    Br8   1.940019 S    
O10   C8    1.383450 S    
C25   C26   1.408430 A    
O17   Ba2   2.824637 S    
C41   Br14  1.893743 S    
C19   H22   1.082310 S    
C4    O15   1.390213 S    
H24   C40   1.076590 S    
P1    C18   1.885004 S    
C15   H18   1.109990 S    
O2    Ba1   2.948384 S    
C1    H30   1.110377 S    
P4    O13   1.592609 S    
O6    P6    1.748443 S    
C7    H10   1.107745 S    
P3    O8    1.729437 S    
P8    C20   1.859372 S    
C38   C42   1.436917 A    
C6    C7    1.526364 S    
C34   C35   1.395202 A    
C2    H3    1.109995 S    
P7    O22   1.759857 S    
C9    H12   1.106666 S    
C19   C30   1.404634 A    
P4    O15   1.776654 S    
C14   H17   1.110980 S    
P7    C44   1.897774 S    
C24   C25   1.433305 A    
Ba1   O16   2.849538 S    
O16   P7    1.796273 S    
C3    H4    1.111129 S    
P2    C32   1.893421 S    
C17   C25   1.428443 A    
C40   C41   1.373290 A    
P1    Ba1   3.381222 S    
O8    Ba1   2.823895 S    
C5    Br1   1.938369 S    
P1    O2    1.592642 S    
O16   Ba2   2.932808 S    
H1    C10   1.105496 S    
C18   C28   1.421278 A    
C12   Br7   1.944794 S    
