data_mof_unit_61850.cif
_audit_creation_date              2012-12-10T17:57:50-0500
_audit_creation_method            fapswitch 2.2
_symmetry_space_group_name_H-M    P1
_symmetry_Int_Tables_number       1
_space_group_crystal_system       triclinic
_cell_length_a                    18.736059
_cell_length_b                    18.76181
_cell_length_c                    18.871011
_cell_angle_alpha                 109.468747
_cell_angle_beta                  109.710817
_cell_angle_gamma                 109.21893
_cell_volume                      5107.41942026

loop_
_atom_site_label
_atom_site_type_symbol
_atom_type_description
_atom_site_fract_x
_atom_site_fract_y
_atom_site_fract_z
_atom_type_partial_charge
C1    C     C_R   0.380507 0.381182 0.499404 0.818287
C2    C     C_3   0.808818 0.500910 0.810400 0.142180
C3    C     C_3   0.847447 0.581089 0.799310 -0.332628
C4    C     C_3   0.737235 0.503125 0.833480 -0.365564
C5    C     C_R   0.319184 0.240266 0.494524 0.072800
C6    C     C_R   0.315643 0.315294 0.502108 -0.134781
C7    C     C_R   0.251980 0.328647 0.518304 -0.203156
C8    C     C_R   0.186969 0.262497 0.515830 -0.196514
C9    C     C_R   0.187367 0.184129 0.500845 -0.113958
C10   C     C_R   0.258627 0.176600 0.497766 0.074972
C11   C     C_3   0.259754 0.105639 0.430823 -0.048660
C12   C     C_R   0.617761 0.498237 0.619354 0.766973
C13   C     C_3   0.324546 0.177175 0.426638 0.195105
C14   C     C_R   0.326433 0.519285 0.254132 0.124274
C15   C     C_R   0.313523 0.499544 0.314806 -0.070784
C16   C     C_R   0.232093 0.479545 0.310117 -0.225251
C17   C     C_R   0.166612 0.478579 0.244320 -0.188944
C18   C     C_R   0.183144 0.500707 0.184645 -0.094445
C19   C     C_R   0.264949 0.521516 0.193148 0.127850
C20   C     C_3   0.320537 0.546641 0.155328 -0.452445
C21   C     C_3   0.390994 0.544909 0.225592 -0.501192
C22   C     C_R   0.673506 0.685963 0.423674 0.097868
C23   C     C_R   0.619202 0.618950 0.500557 0.789171
C24   C     C_R   0.684927 0.686924 0.501001 -0.078244
C25   C     C_R   0.756675 0.759469 0.580171 -0.207258
C26   C     C_R   0.821520 0.823681 0.580249 -0.210438
C27   C     C_R   0.813258 0.817044 0.501181 -0.086410
C28   C     C_R   0.736165 0.750696 0.423867 0.138840
C29   C     C_3   0.724429 0.687720 0.341604 -0.481432
C30   C     C_3   0.655705 0.616541 0.341610 -0.460719
C31   C     C_R   0.997927 0.381393 0.879400 0.792669
C32   C     C_R   0.877784 0.501249 0.879073 0.784954
C33   C     C_R   0.996877 0.618927 0.115374 0.880422
C34   C     C_R   0.381016 0.500247 0.380872 0.792548
C35   C     C_R   0.116741 0.500193 0.116842 0.803378
C36   C     C_R   0.999533 0.118813 0.618106 0.800695
C37   C     C_R   0.119079 0.116382 0.498046 0.802551
C38   C     C_R   0.000895 0.881495 0.381701 0.807984
C39   C     C_R   0.881019 0.881206 0.499812 0.793143
C40   C     C_R   0.923722 0.246562 0.739574 0.115366
C41   C     C_R   0.999813 0.315497 0.814809 -0.080196
C42   C     C_R   0.079545 0.319733 0.825223 -0.209380
C43   C     C_R   0.079867 0.254478 0.760988 -0.205518
C44   C     C_R   0.000699 0.186235 0.684585 -0.093045
C45   C     C_3   0.695391 0.416200 0.650401 -0.326119
C46   C     C_R   0.924281 0.185944 0.676646 0.120714
C47   C     C_3   0.827566 0.137717 0.619478 -0.452391
C48   C     C_3   0.827095 0.207618 0.691017 -0.475445
C49   C     C_R   0.035088 0.701273 0.266819 -0.008207
C50   C     C_R   0.998736 0.686925 0.182217 -0.183142
C51   C     C_R   0.975785 0.746738 0.166395 0.364896
C52   C     C_R   0.978303 0.811934 0.232628 -0.234481
C53   C     C_R   0.005049 0.818794 0.314957 -0.160202
C54   C     C_R   0.038159 0.766189 0.332112 0.071514
C55   C     C_3   0.016808 0.711910 0.372395 -0.480857
C56   C     C_3   0.765957 0.416902 0.722904 -0.417057
C57   C     C_3   0.013127 0.639974 0.300278 0.086131
C58   C     C_3   0.774909 0.580484 0.728954 -0.406829
C59   C     C_3   0.663991 0.499250 0.760400 -0.374167
C60   C     C_3   0.686281 0.498178 0.688050 0.136201
Cu1   Cu    Cu3+1 0.500370 0.438220 0.438550 0.983601
Cu2   Cu    Cu3+1 0.499630 0.561780 0.561450 0.950092
Cu3   Cu    Cu3+1 0.935500 0.438280 0.997350 0.951204
Cu4   Cu    Cu3+1 0.059110 0.561800 0.997270 0.977424
Cu5   Cu    Cu3+1 0.062130 0.000020 0.562160 0.936798
Cu6   Cu    Cu3+1 0.937870 0.000080 0.437940 0.952836
H1    H     H_    0.713650 0.414591 0.599765 0.179861
H2    H     H_    0.766548 0.563731 0.895766 0.199748
H3    H     H_    0.770859 0.640202 0.758425 0.181783
H4    H     H_    0.880278 0.642503 0.861962 0.213671
H5    H     H_    0.249716 0.387965 0.528146 0.157167
H6    H     H_    0.135740 0.271902 0.524299 0.151149
H7    H     H_    0.195844 0.060394 0.369213 0.104824
H8    H     H_    0.296871 0.175774 0.363659 0.100966
H9    H     H_    0.218750 0.463447 0.355988 0.141881
H10   H     H_    0.631798 0.355971 0.619030 0.211222
H11   H     H_    0.103842 0.461366 0.240596 0.178829
H12   H     H_    0.293762 0.494568 0.088156 0.191408
H13   H     H_    0.338371 0.612916 0.164229 0.208366
H14   H     H_    0.405242 0.492183 0.198967 0.204616
H15   H     H_    0.449181 0.610263 0.275402 0.197011
H16   H     H_    0.764618 0.764208 0.641447 0.152421
H17   H     H_    0.878492 0.877286 0.641526 0.158021
H18   H     H_    0.696848 0.699509 0.287291 0.206801
H19   H     H_    0.783514 0.681432 0.351124 0.188422
H20   H     H_    0.588603 0.587238 0.287199 0.194096
H21   H     H_    0.735754 0.358410 0.728300 0.181374
H22   H     H_    0.674982 0.568989 0.351339 0.211669
H23   H     H_    0.140856 0.372310 0.883007 0.147926
H24   H     H_    0.141520 0.258052 0.770377 0.159246
H25   H     H_    0.807518 0.140090 0.558130 0.208972
H26   H     H_    0.796733 0.071807 0.611691 0.197438
H27   H     H_    0.807447 0.250743 0.671155 0.191957
H28   H     H_    0.795460 0.181969 0.724114 0.210716
H29   H     H_    0.956826 0.855197 0.218845 0.193181
H30   H     H_    0.071783 0.739758 0.438566 0.203666
H31   H     H_    0.816381 0.412985 0.705720 0.152462
H32   H     H_    0.952194 0.695549 0.367973 0.167192
H33   H     H_    0.947337 0.580871 0.254107 0.157561
H34   H     H_    0.791559 0.582009 0.677947 0.154582
H35   H     H_    0.897478 0.580129 0.780384 0.173371
H36   H     H_    0.656258 0.556684 0.788659 0.189280
H37   H     H_    0.600860 0.439805 0.732402 0.169115
H38   H     H_    0.708352 0.446985 0.842529 0.181317
O1    O     O_R   0.410140 0.357660 0.448100 -0.558184
O2    O     O_R   0.049970 0.462000 0.907620 -0.590929
O3    O     O_R   0.854460 0.447890 0.906680 -0.596935
O4    O     O_R   0.958840 0.552200 0.906620 -0.580570
O5    O     O_R   0.944630 0.538080 0.087010 -0.596364
O6    O     O_R   0.049020 0.642390 0.086940 -0.550322
O7    O     O_R   0.035760 0.447880 0.088010 -0.587502
O8    O     O_R   0.140150 0.552190 0.087940 -0.590807
O9    O     O_R   0.051980 0.090160 0.642200 -0.585110
O10   O     O_R   0.947040 0.090210 0.537310 -0.584656
O11   O     O_R   0.142640 0.090190 0.552500 -0.593238
O12   O     O_R   0.409510 0.462000 0.551890 -0.591753
O13   O     O_R   0.037710 0.090250 0.447610 -0.584673
O14   O     O_R   0.052960 0.909890 0.462790 -0.591181
O15   O     O_R   0.948020 0.909940 0.357900 -0.585608
O16   O     O_R   0.962290 0.909850 0.552490 -0.584892
O17   O     O_R   0.857360 0.909910 0.447600 -0.581600
O18   O     O_R   0.590970 0.447830 0.538770 -0.573095
O19   O     O_R   0.590340 0.552170 0.642560 -0.595488
O20   O     O_R   0.590490 0.538000 0.448110 -0.589291
O21   O     O_R   0.589860 0.642340 0.551900 -0.584049
O22   O     O_R   0.409660 0.447830 0.357440 -0.585458
O23   O     O_R   0.409030 0.552170 0.461230 -0.586592
O24   O     O_R   0.945590 0.357690 0.907690 -0.583983
N1    N     N_2   0.299098 0.060831 0.465079 -0.353782
H39   H     H_    0.317294 0.027941 0.425224 0.293182
C61   C     C_3   0.251222 0.006565 0.490357 -0.607305
H40   H     H_    0.282643 0.968939 0.506496 0.208452
H41   H     H_    0.183168 0.960015 0.436148 0.216052
H42   H     H_    0.252819 0.047568 0.549370 0.259366
Cl1   Cl    Cl    0.433829 0.194905 0.466665 -0.613577
Cl2   Cl    Cl    0.936990 0.737510 0.062962 -0.679172
N2    N     N_2   0.082724 0.620877 0.331889 -0.407655
H43   H     H_    0.145027 0.674228 0.369981 0.268510
C62   C     C_3   0.066620 0.563462 0.367071 -0.705433
H44   H     H_    0.121566 0.550170 0.386651 0.225128
H45   H     H_    0.005436 0.500521 0.317253 0.231476
H46   H     H_    0.061342 0.594210 0.425188 0.230169

loop_
_geom_bond_atom_site_label_1
_geom_bond_atom_site_label_2
_ccdc_geom_bond_type
C45   C60   S    
C26   H17   S    
C16   H9    S    
C13   Cl1   S    
C41   C42   A    
C34   O23   A    
C19   C20   S    
C61   H42   S    
C36   O10   A    
C7    C8    A    
C53   C54   A    
C40   C46   A    
N2    C62   S    
C26   C27   A    
C48   H28   S    
Cu1   O20   S    
C56   H31   S    
C14   C21   S    
C28   C29   S    
C7    H5    S    
Cu2   O23   S    
C62   H46   S    
Cu4   O8    S    
C58   C60   S    
C15   C16   A    
C57   H33   S    
C11   C13   S    
C49   C57   S    
C21   H14   S    
C52   H29   S    
C2    C32   S    
C18   C19   A    
C47   H26   S    
C54   C55   S    
C47   C48   S    
C45   C56   S    
C27   C39   S    
C8    C9    A    
C32   O3    A    
C17   C18   A    
C45   H1    S    
C23   C24   S    
Cu1   O22   S    
C1    O12   A    
C30   H20   S    
Cu1   O1    S    
C18   C35   S    
C15   C34   S    
C5    C13   S    
Cu3   O24   S    
C23   O21   A    
C3    H35   S    
C59   C60   S    
C22   C28   A    
Cu5   O11   S    
C47   H25   S    
C31   O24   A    
C36   O9    A    
C11   N1    S    
C17   H11   S    
Cu2   O19   S    
C44   C46   A    
Cu4   O4    S    
C8    H6    S    
C43   H24   S    
C48   H27   S    
C51   C52   A    
C3    H4    S    
C58   H34   S    
C24   C25   A    
C29   H18   S    
C11   H7    S    
C4    H2    S    
C16   C17   A    
C56   H21   S    
C33   C50   S    
Cu6   O13   S    
C1    C6    S    
Cu1   O18   S    
C12   C60   S    
Cu3   O5    S    
C2    C4    S    
C43   C44   A    
Cu2   O12   S    
C29   C30   S    
C4    C59   S    
C51   Cl2   S    
Cu4   O6    S    
C29   H19   S    
C34   O22   A    
C9    C37   S    
C50   C51   A    
Cu6   O17   S    
C57   N2    S    
C31   C41   S    
C13   H8    S    
C38   C53   S    
C6    C7    A    
C38   O15   A    
C40   C41   A    
C21   H15   S    
C49   C50   A    
Cu5   O14   S    
Cu6   O15   S    
C45   H10   S    
C25   H16   S    
C31   O2    A    
C22   C24   A    
C36   C44   S    
C33   O5    A    
C42   C43   A    
C30   H22   S    
C61   H40   S    
C35   O7    A    
C52   C53   A    
N1    H39   S    
C9    C10   A    
C40   C48   S    
C46   C47   S    
Cu6   O10   S    
C20   H13   S    
C59   H36   S    
Cu5   O9    S    
C14   C19   A    
C12   O18   A    
C55   H30   S    
C61   H41   S    
Cu2   O21   S    
C62   H44   S    
C58   H3    S    
Cu4   O2    S    
C23   O20   A    
C37   O11   A    
N2    H43   S    
C39   O17   A    
C20   H12   S    
C42   H23   S    
C59   H37   S    
C55   C57   S    
C2    C3    S    
C25   C26   A    
C5    C10   A    
C22   C30   S    
C62   H45   S    
C5    C6    A    
C12   O19   A    
C4    H38   S    
C55   H32   S    
Cu5   O16   S    
C39   O16   A    
Cu3   O7    S    
Cu1   Cu2   S    
C10   C11   S    
Cu3   Cu4   S    
C38   O14   A    
C3    C58   S    
C37   O13   A    
C20   C21   S    
Cu5   Cu6   S    
C32   O4    A    
C27   C28   A    
C14   C15   A    
C2    C56   S    
C33   O6    A    
Cu3   O3    S    
C35   O8    A    
C49   C54   A    
C1    O1    A    
N1    C61   S    
