data_mof_unit_58429.cif
_audit_creation_date              2013-03-05T16:05:19-0500
_audit_creation_method            fapswitch 2.2
_symmetry_space_group_name_H-M    P1
_symmetry_Int_Tables_number       1
_space_group_crystal_system       triclinic
_cell_length_a                    10.841376
_cell_length_b                    9.509409
_cell_length_c                    15.883784
_cell_angle_alpha                 89.939999
_cell_angle_beta                  90.061218
_cell_angle_gamma                 89.884486
_cell_volume                      1637.53479413

loop_
_atom_site_label
_atom_site_type_symbol
_atom_site_description
_atom_site_fract_x
_atom_site_fract_y
_atom_site_fract_z
_atom_type_partial_charge
O1    O     O_R   0.319660 0.618740 0.500000 -0.554698
O2    O     O_R   0.319660 0.381260 0.500000 -0.561981
C1    C     C_R   0.262343 0.500525 0.498712 0.850460
O3    O     O_R   0.500020 0.618840 0.379440 -0.590414
O4    O     O_R   0.500020 0.381160 0.379440 -0.557159
C2    C     C_R   0.501721 0.500091 0.340158 0.811857
Cu1   Cu    Cu3+1 0.500020 0.640660 0.500000 1.003624
Cu2   Cu    Cu3+1 0.500020 0.359340 0.500000 1.009775
O5    O     O_R   0.680370 0.618830 0.500010 -0.538056
O6    O     O_R   0.680370 0.381170 0.500010 -0.544641
O7    O     O_R   0.500010 0.618730 0.620560 -0.580893
O8    O     O_R   0.500010 0.381270 0.620560 -0.600549
C3    C     C_R   0.737807 0.499767 0.500070 0.954431
C4    C     C_R   0.500767 0.499759 0.659883 0.819188
C5    C     C_3   0.552339 0.646105 0.048344 -0.419814
C6    C     C_3   0.386688 0.466962 0.050471 -0.493614
C7    C     C_3   0.382425 0.463082 0.953045 0.375492
C8    C     C_3   0.560557 0.642310 0.950625 0.361127
H1    H     H_    0.481707 0.724240 0.068623 0.227668
H2    H     H_    0.322712 0.549883 0.073961 0.200426
H3    H     H_    0.350846 0.367028 0.076389 0.196948
H4    H     H_    0.641424 0.683113 0.075082 0.193455
H5    H     H_    0.359290 0.353726 0.932884 0.085065
H6    H     H_    0.660808 0.649584 0.934657 0.097374
C9    C     C_1   0.504812 0.498486 0.749463 -0.177815
C10   C     C_3   0.518855 0.498090 0.082950 0.000526
C11   C     C_3   0.512630 0.497551 0.917234 0.100905
C12   C     C_3   0.602079 0.381247 0.949248 -0.662723
C13   C     C_3   0.616451 0.388069 0.048167 0.612026
C14   C     C_1   0.508856 0.497014 0.824937 -0.014385
C15   C     C_1   0.514702 0.500048 0.175246 0.063014
C16   C     C_1   0.508558 0.500337 0.250657 -0.093390
H7    H     H_    0.691393 0.389038 0.915541 0.223912
H8    H     H_    0.565590 0.277129 0.929633 0.204889
C17   C     C_R   0.064820 0.396361 0.452656 0.352097
C18   C     C_R   0.064381 0.611787 0.537063 0.308607
C19   C     C_R   0.936314 0.392183 0.456066 0.207749
C20   C     C_R   0.936040 0.609632 0.539395 0.248806
C21   C     C_R   0.871814 0.499581 0.499149 -0.397709
C22   C     C_R   0.128641 0.502752 0.496167 -0.343184
C23   C     C_R   0.429699 0.074649 0.443746 0.047127
C24   C     C_R   0.429695 0.925794 0.443734 0.024192
H9    H     H_    0.373284 0.130884 0.398753 0.138548
H10   H     H_    0.373177 0.869857 0.398752 0.135848
N1    N     N_R   0.500030 0.852070 0.500020 -0.180322
N2    N     N_R   0.500030 0.147930 0.500020 -0.171560
C25   C     C_R   0.569653 0.925357 0.556720 0.012404
C26   C     C_R   0.569929 0.074203 0.556583 0.015619
H11   H     H_    0.625129 0.869178 0.602286 0.180403
H12   H     H_    0.626109 0.130097 0.601792 0.133624
O9    O     O_3   0.490321 0.755483 0.916530 -0.556717
C27   C     C_3   0.558829 0.834782 0.857178 0.032658
H13   H     H_    0.492281 0.887856 0.814508 0.171426
H14   H     H_    0.617986 0.767712 0.816154 0.153065
C28   C     C_3   0.635708 0.947838 0.901386 -0.331149
H15   H     H_    0.574025 0.014131 0.940557 0.271282
H16   H     H_    0.705034 0.897702 0.943383 0.227796
C29   C     C_3   0.702468 0.040933 0.837769 -0.899135
H17   H     H_    0.764982 0.976551 0.797938 0.278613
H18   H     H_    0.758368 0.120653 0.871640 0.269979
H19   H     H_    0.634808 0.096407 0.796881 0.245688
O10   O     O_3   0.293955 0.560435 0.921959 -0.572816
C30   C     C_3   0.172844 0.504673 0.925597 0.068690
H20   H     H_    0.108344 0.594451 0.934058 0.194641
H21   H     H_    0.158138 0.433275 0.980391 0.144132
C31   C     C_3   0.140665 0.428922 0.843350 -0.406575
H22   H     H_    0.162224 0.498335 0.789327 0.216247
H23   H     H_    0.196971 0.331808 0.837140 0.209889
C32   C     C_3   0.004322 0.389485 0.840050 -0.828121
H24   H     H_    0.980779 0.318534 0.893244 0.277057
H25   H     H_    0.984355 0.334213 0.780024 0.249425
H26   H     H_    0.945807 0.485388 0.843252 0.270433
N3    N     N_R   0.742343 0.435053 0.072515 0.115983
O11   O     O_R   0.772349 0.443471 0.151759 -0.321658
O12   O     O_R   0.823919 0.473409 0.016995 -0.437094
N4    N     N_R   0.594955 0.246140 0.083695 0.111151
O13   O     O_R   0.493574 0.178079 0.067803 -0.432530
O14   O     O_R   0.681902 0.180669 0.124700 -0.277524
O15   O     O_3   0.127224 0.294191 0.407038 -0.550224
C33   C     C_3   0.166263 0.349514 0.328477 0.032620
H27   H     H_    0.245770 0.285089 0.307026 0.171207
H28   H     H_    0.200419 0.459814 0.332691 0.099025
C34   C     C_3   0.063418 0.339673 0.262352 -0.248650
H29   H     H_    0.022298 0.232727 0.263605 0.278704
H30   H     H_    0.990523 0.418114 0.276910 0.248520
C35   C     C_3   0.111911 0.368970 0.174064 -0.886083
H31   H     H_    0.155441 0.474480 0.171468 0.242851
H32   H     H_    0.034500 0.366114 0.128280 0.311759
H33   H     H_    0.180251 0.287351 0.156043 0.250438
O16   O     O_3   0.126266 0.726519 0.569989 -0.534302
C36   C     C_3   0.151584 0.702633 0.655912 0.119009
H34   H     H_    0.221952 0.617979 0.662783 0.104487
H35   H     H_    0.066622 0.672671 0.691071 0.157172
C37   C     C_3   0.202440 0.838190 0.693837 -0.335844
H36   H     H_    0.289033 0.867771 0.660827 0.224081
H37   H     H_    0.134126 0.924333 0.685048 0.252154
C38   C     C_3   0.229014 0.821028 0.787464 -0.856719
H38   H     H_    0.143698 0.791409 0.821764 0.265346
H39   H     H_    0.263588 0.921816 0.813530 0.256814
H40   H     H_    0.300233 0.738586 0.796877 0.302995
N5    N     N_R   0.872472 0.281490 0.412515 0.150985
O17   O     O_R   0.792584 0.311488 0.353913 -0.333177
O18   O     O_R   0.904010 0.150943 0.424707 -0.275393
N6    N     N_R   0.872234 0.715753 0.586906 0.138160
O19   O     O_R   0.804323 0.679709 0.650881 -0.437695
O20   O     O_R   0.893785 0.848330 0.573028 -0.307353

loop_
_geom_bond_atom_site_label_1
_geom_bond_atom_site_label_2
_geom_bond_distance
_ccdc_geom_bond_type
C5    C8    1.555237 S    
C31   H23   1.110513 S    
C28   H15   1.109832 S    
C30   H21   1.115067 S    
C6    H3    1.106603 S    
C23   H9    1.080616 S    
N3    O11   1.302306 A    
C2    C16   1.423612 S    
N6    O20   1.301274 A    
C38   H38   1.110623 S    
Cu1   Cu2   2.675187 S    
C25   H11   1.080699 S    
C13   N4    1.481323 S    
Cu1   O7    1.926052 S    
C7    H5    1.117338 S    
C8    H6    1.118590 S    
Cu1   N1    2.010385 S    
C12   C13   1.580152 S    
C17   C19   1.394936 A    
N4    O14   1.302249 A    
O3    Cu1   1.926374 S    
C20   C21   1.411412 A    
O7    C4    1.291740 A    
C35   H32   1.110292 S    
C31   C32   1.526578 S    
C13   N3    1.487847 S    
C29   H18   1.110600 S    
C23   C24   1.415522 A    
C32   H25   1.110505 S    
O5    C3    1.291052 A    
C20   N6    1.437452 S    
C5    H4    1.112563 S    
C15   C16   1.199739 T    
C6    C7    1.548613 S    
C25   C26   1.415439 A    
C23   N2    1.366727 A    
C27   C28   1.532161 S    
C6    H2    1.114011 S    
C29   H19   1.111239 S    
C26   H12   1.081805 S    
C31   H22   1.107486 S    
C30   C31   1.532728 S    
C12   H8    1.111677 S    
C10   C15   1.466890 S    
N5    O18   1.301219 A    
C11   C14   1.466571 S    
N3    O12   1.301983 A    
C32   H24   1.110964 S    
C24   H10   1.081686 S    
C33   C34   1.534027 S    
N6    O19   1.301552 A    
C38   H39   1.110162 S    
C27   H14   1.114823 S    
C8    O9    1.423348 S    
N1    C25   1.366942 A    
C6    C10   1.551558 S    
N2    C26   1.366774 A    
O9    C27   1.418196 S    
C7    C11   1.557828 S    
N5    O17   1.301784 A    
C18   C22   1.407774 A    
N4    O13   1.301256 A    
C33   H28   1.115090 S    
C36   H34   1.113147 S    
C35   H31   1.110384 S    
C5    C10   1.554338 S    
C37   C38   1.523037 S    
C29   H17   1.111075 S    
O6    C3    1.289374 A    
C30   H20   1.110825 S    
O1    C1    1.285728 A    
C24   N1    1.366504 A    
C32   H26   1.111115 S    
C5    H1    1.113980 S    
O10   C30   1.418253 S    
C7    O10   1.419593 S    
C36   H35   1.115040 S    
C34   H29   1.111405 S    
Cu2   O8    1.926486 S    
C37   H37   1.111817 S    
O3    C2    1.290826 A    
C34   H30   1.110321 S    
O8    C4    1.288909 A    
C1    C22   1.450154 S    
C28   H16   1.110851 S    
C38   H40   1.109141 S    
C27   H13   1.109670 S    
C18   O16   1.384702 S    
C9    C14   1.199625 T    
Cu1   O5    1.965816 S    
O1    Cu1   1.966848 S    
O2    Cu2   1.966012 S    
C8    C11   1.565270 S    
C33   H27   1.110570 S    
C35   H33   1.109898 S    
C12   H7    1.109516 S    
O4    Cu2   1.925942 S    
C18   C20   1.392121 A    
C17   C22   1.408264 A    
C19   C21   1.414184 A    
C36   C37   1.527199 S    
C19   N5    1.438414 S    
O16   C36   1.409924 S    
O4    C2    1.291267 A    
C17   O15   1.388014 S    
O2    C1    1.292249 A    
C4    C9    1.423539 S    
C37   H36   1.112278 S    
Cu2   N2    2.010385 S    
C3    C21   1.452912 S    
O15   C33   1.419033 S    
C34   C35   1.523790 S    
C10   C13   1.586626 S    
Cu2   O6    1.966648 S    
C28   C29   1.526728 S    
C11   C12   1.554229 S    
