data_mof_unit_9467.cif
_audit_creation_date              2013-03-05T15:59:47-0500
_audit_creation_method            fapswitch 2.2
_symmetry_space_group_name_H-M    P1
_symmetry_Int_Tables_number       1
_space_group_crystal_system       triclinic
_cell_length_a                    12.667104
_cell_length_b                    13.137293
_cell_length_c                    16.91395
_cell_angle_alpha                 90.509384
_cell_angle_beta                  98.377272
_cell_angle_gamma                 98.604289
_cell_volume                      2751.94725126

loop_
_atom_site_label
_atom_site_type_symbol
_atom_site_description
_atom_site_fract_x
_atom_site_fract_y
_atom_site_fract_z
_atom_type_partial_charge
O1    O     O_R   0.631480 0.627510 0.519670 -0.639632
O2    O     O_R   0.455770 0.662400 0.493360 -0.539060
C1    C     C_R   0.559899 0.691376 0.514664 0.962067
O3    O     O_R   0.598240 0.480510 0.398910 -0.595751
O4    O     O_R   0.422540 0.515400 0.372600 -0.588671
C2    C     C_R   0.513243 0.498331 0.349629 0.907560
Zn1   Zn    Zn3+2 0.617320 0.476700 0.517570 0.991428
Zn2   Zn    Zn3+2 0.382680 0.523300 0.482430 1.010613
O5    O     O_R   0.544230 0.337600 0.506640 -0.559475
O6    O     O_R   0.368520 0.372490 0.480330 -0.610457
O7    O     O_R   0.577460 0.484600 0.627400 -0.582393
O8    O     O_R   0.401760 0.519490 0.601090 -0.615547
C3    C     C_R   0.439076 0.308292 0.490389 0.871354
C4    C     C_R   0.488533 0.505492 0.649968 0.880319
C5    C     C_R   0.521739 0.508160 0.264854 -0.206339
C6    C     C_R   0.446243 0.558664 0.217773 -0.418698
C7    C     C_R   0.452791 0.575960 0.137292 0.617299
C8    C     C_R   0.535829 0.539165 0.104033 0.056259
C9    C     C_R   0.609252 0.485816 0.149784 -0.377582
C10   C     C_R   0.604942 0.471594 0.231292 0.541509
C11   C     C_R   0.586427 0.646891 0.844830 -0.329710
C12   C     C_R   0.582323 0.610254 0.766615 0.552041
C13   C     C_R   0.413622 0.495185 0.778040 -0.078886
C14   C     C_R   0.419135 0.534241 0.855575 -0.185070
C15   C     C_R   0.506123 0.607876 0.889058 -0.108332
C16   C     C_2   0.538547 0.542786 0.018562 -0.270732
C17   C     C_2   0.523865 0.626097 0.975753 0.616180
C18   C     C_R   0.495154 0.534733 0.733338 -0.222764
H1    H     H_    0.380506 0.583064 0.243420 0.228988
H2    H     H_    0.668035 0.453157 0.121022 0.166274
H3    H     H_    0.652781 0.704061 0.871806 0.161072
H4    H     H_    0.545980 0.470927 0.988690 0.115965
H5    H     H_    0.359396 0.503065 0.892347 0.202861
C19   C     C_R   0.276954 0.053166 0.526548 -0.269472
H6    H     H_    0.266490 0.866484 0.584293 0.172228
H7    H     H_    0.198205 0.022100 0.541223 0.153029
C20   C     C_R   0.401060 0.197612 0.490756 -0.180170
C21   C     C_R   0.702214 0.842852 0.519250 -0.318730
C22   C     C_R   0.733650 0.949007 0.516973 0.574832
C23   C     C_R   0.655670 0.013268 0.515952 -0.212874
C24   C     C_R   0.547881 0.973453 0.525134 -0.057640
C25   C     C_R   0.523809 0.869203 0.544878 -0.042098
C26   C     C_R   0.463518 0.033883 0.516154 0.104848
C27   C     C_R   0.360498 0.993428 0.534991 0.011404
C28   C     C_R   0.343504 0.895821 0.565835 -0.347000
C29   C     C_R   0.426758 0.836351 0.576595 0.565911
C30   C     C_R   0.478687 0.133597 0.488419 -0.270299
C31   C     C_R   0.296364 0.155718 0.504082 0.514945
C32   C     C_R   0.597163 0.801903 0.530822 -0.143970
H8    H     H_    0.552719 0.165246 0.467535 0.190967
H9    H     H_    0.758638 0.792845 0.508384 0.214552
H10   H     H_    0.683109 0.094171 0.510077 0.186808
C33   C     C_R   0.897253 0.340525 0.606593 0.364683
H11   H     H_    0.103573 0.307148 0.620367 0.212636
N1    N     N_R   0.774070 0.445420 0.541180 -0.205216
C34   C     C_R   0.209217 0.622786 0.400741 0.694141
C35   C     C_R   0.102979 0.633912 0.370365 -0.365971
C36   C     C_R   0.018922 0.582466 0.405548 -0.208790
C37   C     C_R   0.039349 0.522854 0.473622 0.096051
C38   C     C_R   0.145733 0.503009 0.495008 0.098542
C39   C     C_R   0.957559 0.476027 0.517147 -0.061559
C40   C     C_R   0.979906 0.395454 0.569544 -0.075802
C41   C     C_R   0.084210 0.370411 0.583249 -0.146384
C42   C     C_R   0.166448 0.426896 0.549498 -0.124225
C43   C     C_R   0.854446 0.506130 0.511378 -0.041654
C44   C     C_R   0.792173 0.363226 0.587177 0.532496
N2    N     N_R   0.226730 0.554050 0.459240 -0.164203
H12   H     H_    0.938612 0.587407 0.376331 0.148040
H13   H     H_    0.084821 0.679328 0.318480 0.161465
H14   H     H_    0.244781 0.405671 0.563607 0.220487
O9    O     O_3   0.216692 0.216865 0.503559 -0.628156
C45   C     C_3   0.140570 0.192091 0.434001 -0.287247
H15   H     H_    0.095964 0.112653 0.435565 0.173051
H16   H     H_    0.179455 0.201686 0.379000 0.156524
H17   H     H_    0.080465 0.245816 0.430962 0.200907
O10   O     O_3   0.836372 0.990260 0.503749 -0.606808
C46   C     C_3   0.910703 0.977758 0.572302 -0.245449
H18   H     H_    0.919758 0.895364 0.580201 0.184030
H19   H     H_    0.887485 0.010667 0.627124 0.178805
H20   H     H_    0.990815 0.020305 0.564358 0.191727
O11   O     O_3   0.413839 0.747483 0.619759 -0.579578
C47   C     C_3   0.415736 0.774937 0.701006 -0.297033
H21   H     H_    0.356374 0.826717 0.710108 0.141767
H22   H     H_    0.498314 0.810957 0.728162 0.175062
H23   H     H_    0.392393 0.704491 0.733581 0.204714
O12   O     O_3   0.705377 0.297185 0.607616 -0.570904
C48   C     C_3   0.695247 0.312728 0.688628 -0.217015
H24   H     H_    0.608162 0.298878 0.694394 0.167705
H25   H     H_    0.728171 0.392136 0.712860 0.117767
H26   H     H_    0.733730 0.255078 0.725449 0.175071
O13   O     O_3   0.655460 0.655198 0.718624 -0.591437
C49   C     C_3   0.761817 0.644456 0.752126 -0.291740
H27   H     H_    0.767568 0.566720 0.776674 0.131232
H28   H     H_    0.794697 0.705346 0.798921 0.155406
H29   H     H_    0.813428 0.654678 0.704241 0.205124
O14   O     O_3   0.915376 0.258210 0.654612 -0.593969
C50   C     C_3   0.957668 0.296076 0.733145 -0.323780
H30   H     H_    0.911205 0.353075 0.755237 0.128517
H31   H     H_    0.043299 0.331761 0.737509 0.222340
H32   H     H_    0.954115 0.230423 0.773945 0.195460
C51   C     C_2   0.834898 0.607879 0.483061 0.438925
H33   H     H_    0.767338 0.615165 0.437453 0.095153
O15   O     O_2   0.897610 0.684686 0.508910 -0.615346
O16   O     O_3   0.296264 0.668875 0.365978 -0.593275
C52   C     C_3   0.292729 0.774761 0.354740 -0.369038
H34   H     H_    0.264873 0.812537 0.405500 0.176472
H35   H     H_    0.241227 0.786204 0.297518 0.155096
H36   H     H_    0.375637 0.813774 0.350669 0.197811
C53   C     C_2   0.327112 0.409300 0.746728 0.405401
H37   H     H_    0.330561 0.367992 0.691659 0.040796
O17   O     O_2   0.251759 0.382105 0.783099 -0.606327
O18   O     O_3   0.533319 0.722546 0.013743 -0.587643
C54   C     C_3   0.481751 0.792297 0.964588 -0.294896
H38   H     H_    0.397550 0.758573 0.939184 0.169735
H39   H     H_    0.529180 0.818799 0.916342 0.157588
H40   H     H_    0.477144 0.861091 0.001682 0.180442
O19   O     O_3   0.671809 0.412232 0.276751 -0.583649
C55   C     C_3   0.780891 0.441396 0.266966 -0.313224
H41   H     H_    0.803146 0.526357 0.263145 0.140941
H42   H     H_    0.798936 0.401155 0.213652 0.169057
H43   H     H_    0.832476 0.416639 0.319831 0.189951
O20   O     O_3   0.371463 0.614542 0.087390 -0.597579
C56   C     C_3   0.341411 0.702056 0.122210 -0.277052
H44   H     H_    0.411986 0.754113 0.155145 0.170330
H45   H     H_    0.279845 0.678590 0.161712 0.163136
H46   H     H_    0.303451 0.746923 0.073712 0.180402

loop_
_geom_bond_atom_site_label_1
_geom_bond_atom_site_label_2
_geom_bond_distance
_ccdc_geom_bond_type
C48   H24   1.109545 S    
C16   H4    1.089633 S    
C51   H33   1.081704 S    
C24   C25   1.411758 A    
C9    C10   1.400702 A    
C8    C16   1.452113 S    
Zn1   N1    2.070470 S    
N1    C44   1.364136 A    
C50   H30   1.112529 S    
C1    C32   1.468388 S    
C56   H44   1.114630 S    
C21   C32   1.400717 A    
C46   H18   1.112614 S    
Zn1   O7    2.000539 S    
C11   H3    1.082595 S    
C16   C17   1.338845 D    
C47   H23   1.105505 S    
C45   H17   1.109278 S    
C21   C22   1.394341 A    
O7    C4    1.306086 A    
C56   H45   1.110471 S    
H11   C41   1.081865 S    
C5    C6    1.402226 A    
C34   C35   1.398231 A    
C8    C9    1.396424 A    
C25   C29   1.422288 A    
O5    C3    1.317576 A    
C55   H41   1.114398 S    
O18   C54   1.411383 S    
C50   H31   1.107110 S    
C2    C5    1.458893 S    
C38   N2    1.360338 A    
C6    C7    1.394375 A    
C12   O13   1.389157 S    
C42   H14   1.065005 S    
C20   C30   1.390652 A    
C3    C20   1.462079 S    
C54   H40   1.109140 S    
C37   C38   1.406960 A    
C51   O15   1.221251 D    
C12   C18   1.414766 A    
C11   C12   1.394873 A    
C33   O14   1.384675 S    
C24   C26   1.415626 A    
O3    Zn1   1.988233 S    
O16   C52   1.412108 S    
N1    C43   1.356653 A    
O11   C47   1.413542 S    
C30   H8    1.076800 S    
C46   H19   1.115162 S    
C5    C10   1.408815 A    
C13   C53   1.484812 S    
C52   H36   1.109511 S    
C37   C39   1.425950 A    
C19   C27   1.400954 A    
C14   C15   1.400050 A    
C34   O16   1.386931 S    
C45   H16   1.113983 S    
O13   C49   1.411345 S    
O12   C48   1.410596 S    
C56   H46   1.109052 S    
C21   H9    1.073693 S    
C25   C32   1.417048 A    
C36   C37   1.412747 A    
C28   C29   1.395994 A    
C49   H29   1.109667 S    
O1    C1    1.319024 A    
C55   H43   1.109416 S    
C26   C27   1.415464 A    
C40   C41   1.396360 A    
C29   O11   1.384053 S    
C52   H35   1.110361 S    
C33   C40   1.408086 A    
Zn2   O8    1.988233 S    
O14   C50   1.414218 S    
C49   H28   1.110316 S    
C7    C8    1.405774 A    
C22   O10   1.383033 S    
O10   C46   1.410493 S    
C20   C31   1.408331 A    
C33   C44   1.400599 A    
C43   C51   1.467439 S    
C36   H12   1.075708 S    
C23   C24   1.418272 A    
O8    C4    1.312960 A    
C17   O18   1.396570 S    
C47   H22   1.112252 S    
C48   H25   1.114722 S    
O3    C2    1.313844 A    
C13   C18   1.407906 A    
C31   O9    1.379863 S    
H6    C28   1.084468 S    
C22   C23   1.390515 A    
C50   H32   1.109131 S    
C27   C28   1.387369 A    
C54   H38   1.113642 S    
C46   H20   1.109772 S    
Zn1   O5    1.915363 S    
C11   C15   1.389091 A    
O1    Zn1   1.961961 S    
O2    Zn2   1.915363 S    
C45   H15   1.112409 S    
O6    C3    1.312552 A    
C44   O12   1.382647 S    
O4    Zn2   2.000539 S    
C15   C17   1.462759 S    
C34   N2    1.362173 A    
C52   H34   1.113996 S    
C14   H5    1.084494 S    
C38   C42   1.393754 A    
C4    C18   1.445424 S    
C53   O17   1.220704 D    
O2    C1    1.312771 A    
C6    H1    1.080266 S    
O9    C45   1.410167 S    
C23   H10   1.077844 S    
O19   C55   1.411658 S    
C35   C36   1.386033 A    
O4    C2    1.314136 A    
C26   C30   1.391001 A    
C49   H27   1.114287 S    
C19   H7    1.084135 S    
C39   C40   1.420996 A    
C55   H42   1.110244 S    
C13   C14   1.392338 A    
C41   C42   1.382470 A    
C39   C43   1.410690 A    
C7    O20   1.393220 S    
C19   C31   1.398980 A    
Zn2   N2    2.057964 S    
Zn2   O6    1.961961 S    
C47   H21   1.112101 S    
C48   H26   1.108828 S    
C35   H13   1.081932 S    
O20   C56   1.413443 S    
C53   H37   1.083489 S    
C9    H2    1.082880 S    
C10   O19   1.391162 S    
C54   H39   1.110581 S    
