data_mof_unit_58736.cif
_audit_creation_date              2012-12-11T17:11:45-0500
_audit_creation_method            fapswitch 2.2
_symmetry_space_group_name_H-M    P1
_symmetry_Int_Tables_number       1
_space_group_crystal_system       triclinic
_cell_length_a                    15.018358
_cell_length_b                    6.935172
_cell_length_c                    13.642442
_cell_angle_alpha                 89.938719
_cell_angle_beta                  100.956997
_cell_angle_gamma                 90.084133
_cell_volume                      1395.02183547

loop_
_atom_site_label
_atom_site_type_symbol
_atom_type_description
_atom_site_fract_x
_atom_site_fract_y
_atom_site_fract_z
_atom_type_partial_charge
O1    O     O_R   0.398250 0.605080 0.401520 -0.536590
O2    O     O_R   0.898250 0.394920 0.901520 -0.536147
O3    O     O_R   0.584130 0.932110 0.405450 -0.539127
O4    O     O_R   0.084130 0.067890 0.905450 -0.537698
O5    O     O_R   0.601750 0.105090 0.598480 -0.534704
O6    O     O_R   0.101750 0.894910 0.098480 -0.534621
C1    C     C_R   0.612094 0.764207 0.383518 0.750168
C2    C     C_R   0.110680 0.236328 0.881835 0.744808
O7    O     O_R   0.397870 0.934620 0.389680 -0.539909
O8    O     O_R   0.897870 0.065380 0.889680 -0.540515
O9    O     O_R   0.414160 0.107620 0.582600 -0.544085
O10   O     O_R   0.914160 0.892380 0.082600 -0.542991
C3    C     C_R   0.363947 0.765705 0.362680 0.731603
C4    C     C_R   0.864020 0.234252 0.862581 0.729142
O11   O     O_R   0.585840 0.602550 0.417400 -0.543250
O12   O     O_R   0.085840 0.397450 0.917400 -0.543569
O13   O     O_3   0.505560 0.772440 0.563310 -0.368625
O14   O     O_3   0.005560 0.227560 0.063310 -0.367631
V1    V     V_3+5 0.498970 0.046250 0.488250 1.409030
V2    V     V_3+5 0.998970 0.953750 0.988250 1.409292
O15   O     O_R   0.415870 0.437500 0.594550 -0.542983
O16   O     O_R   0.915870 0.562500 0.094550 -0.544268
C5    C     C_R   0.389941 0.268444 0.618119 0.738628
C6    C     C_R   0.890565 0.731165 0.118836 0.731267
O17   O     O_R   0.602130 0.434980 0.610320 -0.539625
O18   O     O_R   0.102130 0.565020 0.110320 -0.539186
C7    C     C_R   0.636121 0.265960 0.637155 0.730873
C8    C     C_R   0.136024 0.734104 0.137285 0.725915
V3    V     V_3+5 0.501030 0.546580 0.511750 1.410499
V4    V     V_3+5 0.001030 0.453420 0.011750 1.410382
O19   O     O_3   0.494440 0.270520 0.436690 -0.372813
O20   O     O_3   0.994440 0.729480 0.936690 -0.370059
C9    C     C_1   0.716446 0.255244 0.716729 -0.192533
C10   C     C_1   0.216301 0.744820 0.216924 -0.191562
C11   C     C_1   0.783715 0.244954 0.782945 -0.189208
C12   C     C_1   0.283583 0.754984 0.283131 -0.190347
C13   C     C_2   0.266173 0.136432 0.689683 -0.219417
C14   C     C_2   0.772251 0.868404 0.197928 -0.220058
C15   C     C_2   0.337980 0.257862 0.699810 -0.014936
C16   C     C_2   0.840179 0.739146 0.202000 -0.009273
H1    H     H_    0.250699 0.048939 0.622446 0.118447
H2    H     H_    0.757510 0.964953 0.134062 0.105862
C17   C     C_2   0.208752 0.099286 0.765453 0.170284
C18   C     C_2   0.719667 0.901546 0.278272 0.172348
C19   C     C_2   0.170669 0.249245 0.807144 -0.367818
C20   C     C_2   0.672209 0.753130 0.309211 -0.363241
H3    H     H_    0.184469 0.394455 0.783988 0.120057
H4    H     H_    0.677053 0.611859 0.276081 0.112618
C21   C     C_3   0.373524 0.373176 0.794185 -0.353781
C22   C     C_3   0.472637 0.325315 0.837015 -0.761772
H5    H     H_    0.480696 0.167878 0.851026 0.223544
H6    H     H_    0.517242 0.371304 0.785096 0.220446
H7    H     H_    0.494556 0.402782 0.908770 0.210770
H8    H     H_    0.367561 0.529537 0.776434 0.176159
H9    H     H_    0.335641 0.344629 0.854646 0.191877
C23   C     C_3   0.873373 0.610135 0.292039 -0.344166
C24   C     C_3   0.970994 0.658795 0.340826 -0.756356
H10   H     H_    0.017933 0.630311 0.288743 0.218470
H11   H     H_    0.976299 0.812809 0.363577 0.223753
H12   H     H_    0.992073 0.567904 0.408300 0.212401
H13   H     H_    0.832438 0.622972 0.350985 0.197249
H14   H     H_    0.869755 0.457091 0.267696 0.179933
C25   C     C_3   0.189120 0.888440 0.782578 -0.299032
C26   C     C_3   0.097976 0.826113 0.720302 -0.703100
H15   H     H_    0.041843 0.918999 0.734804 0.230476
H16   H     H_    0.100492 0.834343 0.639545 0.200368
H17   H     H_    0.083153 0.675005 0.738753 0.205736
H18   H     H_    0.242494 0.797412 0.759567 0.149425
H19   H     H_    0.193428 0.856018 0.862941 0.179899
C27   C     C_3   0.719139 0.107301 0.316181 -0.296150
C28   C     C_3   0.775175 0.127430 0.421556 -0.721513
H20   H     H_    0.748666 0.033475 0.475289 0.223447
H21   H     H_    0.846908 0.088010 0.421855 0.217345
H22   H     H_    0.772980 0.279380 0.446618 0.196851
H23   H     H_    0.749843 0.205009 0.267079 0.147236
H24   H     H_    0.649130 0.161657 0.311865 0.186050

loop_
_geom_bond_atom_site_label_1
_geom_bond_atom_site_label_2
_ccdc_geom_bond_type
V4    O20   S    
O13   V3    S    
O4    C2    A    
V1    O19   S    
C17   C25   S    
C7    C9    S    
O9    V1    S    
O16   C6    A    
C14   H2    S    
O3    C1    A    
C24   H11   S    
O12   V4    S    
C21   H8    S    
C23   C24   S    
O7    C3    A    
C2    C19   S    
C9    C11   T    
O5    C7    A    
O7    V1    S    
O6    C8    A    
C25   H19   S    
O8    V2    S    
C16   C23   S    
C22   H6    S    
C18   C27   S    
C27   C28   S    
O14   V4    S    
C10   C12   T    
C1    O11   A    
C8    C10   S    
C2    O12   A    
C18   C20   D    
O11   V3    S    
C19   H3    S    
O17   V3    S    
C20   H4    S    
C22   H7    S    
C1    C20   S    
C3    C12   S    
O8    C4    A    
C4    C11   S    
C28   H21   S    
O13   V1    S    
C24   H12   S    
C21   H9    S    
O15   V3    S    
C26   H16   S    
C13   C17   S    
C26   H17   S    
C14   C18   S    
O10   V2    S    
O1    V3    S    
C22   H5    S    
O3    V1    S    
C17   C19   D    
C15   C21   S    
O18   V4    S    
O15   C5    A    
C27   H24   S    
C23   H14   S    
O1    C3    A    
V2    O20   S    
C25   H18   S    
O16   V4    S    
C28   H22   S    
O5    V1    S    
O17   C7    A    
O6    V2    S    
O10   C6    A    
O18   C8    A    
O2    V4    S    
C26   H15   S    
C28   H20   S    
C13   C15   D    
C14   C16   D    
C24   H10   S    
C5    C15   S    
O9    C5    A    
C6    C16   S    
O14   V2    S    
C13   H1    S    
O2    C4    A    
C25   C26   S    
O4    V2    S    
V3    O19   S    
C21   C22   S    
C27   H23   S    
C23   H13   S    
