data_mof_unit_59669.cif
_audit_creation_date              2013-03-05T16:21:59-0500
_audit_creation_method            fapswitch 2.2
_symmetry_space_group_name_H-M    P1
_symmetry_Int_Tables_number       1
_space_group_crystal_system       triclinic
_cell_length_a                    15.202544
_cell_length_b                    13.872731
_cell_length_c                    10.857326
_cell_angle_alpha                 92.229114
_cell_angle_beta                  91.990158
_cell_angle_gamma                 89.660593
_cell_volume                      2286.68189525

loop_
_atom_site_label
_atom_site_type_symbol
_atom_site_description
_atom_site_fract_x
_atom_site_fract_y
_atom_site_fract_z
_atom_type_partial_charge
O1    O     O_R   0.371460 0.581430 0.500010 -0.525540
O2    O     O_R   0.628540 0.418570 0.499990 -0.535854
O3    O     O_R   0.628540 0.581430 0.499990 -0.502158
O4    O     O_R   0.371460 0.418570 0.500010 -0.541443
C1    C     C_R   0.329800 0.500110 0.501348 0.936424
C2    C     C_R   0.670291 0.499208 0.495355 0.895158
O5    O     O_R   0.499990 0.581440 0.319660 -0.555490
O6    O     O_R   0.500010 0.418560 0.680340 -0.527661
O7    O     O_R   0.500010 0.581440 0.680340 -0.583987
O8    O     O_R   0.499990 0.418560 0.319660 -0.555171
C3    C     C_R   0.509295 0.497885 0.262427 0.778562
C4    C     C_R   0.491007 0.502436 0.737423 0.794778
Cu1   Cu    Cu3+1 0.500000 0.596430 0.500000 1.020709
Cu2   Cu    Cu3+1 0.500000 0.403570 0.500000 1.025593
H1    H     H_    0.453025 0.169612 0.071775 0.160716
H2    H     H_    0.525960 0.836949 0.935647 0.121935
H3    H     H_    0.368914 0.200193 0.879071 0.115263
H4    H     H_    0.610780 0.810460 0.129640 0.117113
C5    C     C_R   0.580594 0.659270 0.128789 -0.135750
C6    C     C_R   0.413590 0.346205 0.872155 -0.081610
C7    C     C_R   0.498261 0.686134 0.900371 -0.130512
C8    C     C_R   0.496982 0.316297 0.098729 -0.064466
C9    C     C_R   0.579492 0.750301 0.079343 -0.181747
C10   C     C_R   0.407338 0.257073 0.925038 -0.149733
C11   C     C_R   0.533372 0.764776 0.969014 -0.202367
C12   C     C_R   0.453123 0.240625 0.034935 -0.127193
C13   C     C_R   0.505373 0.591447 0.944518 0.082859
C14   C     C_R   0.493380 0.410851 0.054511 0.059493
C15   C     C_R   0.535696 0.581074 0.067586 0.081371
C16   C     C_R   0.462551 0.421824 0.932062 0.073463
C17   C     C_R   0.480002 0.507819 0.872619 -0.231696
C18   C     C_R   0.520016 0.493879 0.126763 -0.245793
H5    H     H_    0.616060 0.650813 0.215737 0.131499
H6    H     H_    0.378751 0.356117 0.785163 0.183218
H7    H     H_    0.461591 0.701928 0.816646 0.152680
H8    H     H_    0.535598 0.298813 0.180108 0.158123
C19   C     C_R   0.092775 0.546935 0.408563 0.393165
C20   C     C_R   0.902556 0.403212 0.452282 0.429316
C21   C     C_R   0.909217 0.575084 0.509476 0.399776
C22   C     C_R   0.096967 0.426022 0.565392 0.383574
C23   C     C_R   0.183009 0.562893 0.429674 0.283983
C24   C     C_R   0.810488 0.407365 0.454265 0.319289
C25   C     C_R   0.817482 0.580499 0.501729 0.316269
C26   C     C_R   0.189847 0.427487 0.566571 0.291445
C27   C     C_R   0.232933 0.498410 0.501069 -0.372875
C28   C     C_R   0.767162 0.495774 0.484336 -0.417631
C29   C     C_R   0.048850 0.484631 0.484037 -0.131839
C30   C     C_R   0.952123 0.486871 0.482697 -0.132577
C31   C     C_R   0.531273 0.109616 0.601736 0.284791
C32   C     C_R   0.427613 0.890143 0.448111 0.286870
C33   C     C_R   0.466421 0.105794 0.395041 0.298363
C34   C     C_R   0.574305 0.893502 0.541544 0.267870
C35   C     C_R   0.541442 0.210662 0.593756 0.461288
C36   C     C_R   0.436001 0.788435 0.434371 0.435785
C37   C     C_R   0.456376 0.207714 0.406627 0.426377
C38   C     C_R   0.566853 0.792390 0.559745 0.434704
N1    N     N_R   0.500000 0.258690 0.500000 -0.293862
N2    N     N_R   0.500000 0.741310 0.500000 -0.301248
C39   C     C_R   0.498903 0.054437 0.497490 -0.123246
C40   C     C_R   0.500101 0.945045 0.495733 -0.108999
O9    O     O_3   0.045247 0.600862 0.324240 -0.530328
C41   C     C_3   0.063349 0.565922 0.204034 -0.319498
H9    H     H_    0.049418 0.487457 0.191610 0.123799
H10   H     H_    0.132443 0.580829 0.180652 0.196340
H11   H     H_    0.019740 0.603962 0.137605 0.173868
O10   O     O_3   0.942484 0.314709 0.428103 -0.500521
C42   C     C_3   0.979497 0.312970 0.310418 -0.302349
H12   H     H_    0.049619 0.334768 0.318495 0.148199
H13   H     H_    0.943328 0.358539 0.242866 0.115476
H14   H     H_    0.977749 0.237706 0.272052 0.178288
O11   O     O_3   0.956689 0.659057 0.533047 -0.530503
C43   C     C_3   0.972409 0.671715 0.661277 -0.331055
H15   H     H_    0.023717 0.620465 0.693777 0.136512
H16   H     H_    0.911280 0.664777 0.713956 0.168296
H17   H     H_    0.998083 0.745605 0.680827 0.180552
O12   O     O_3   0.053759 0.363061 0.638104 -0.524078
C44   C     C_3   0.040821 0.408466 0.754477 -0.313594
H18   H     H_    0.987667 0.463463 0.748128 0.141192
H19   H     H_    0.102368 0.441101 0.795824 0.162370
H20   H     H_    0.019080 0.353306 0.817991 0.178929
O13   O     O_3   0.221928 0.640195 0.377148 -0.524300
C45   C     C_3   0.197852 0.725151 0.444483 -0.149568
H21   H     H_    0.125579 0.732679 0.455215 0.179730
H22   H     H_    0.217924 0.788575 0.393604 0.200320
H23   H     H_    0.232118 0.728249 0.536766 0.130941
O14   O     O_3   0.763785 0.322918 0.430882 -0.535790
C46   C     C_3   0.737030 0.316867 0.305017 -0.259702
H24   H     H_    0.700138 0.382228 0.275949 0.123352
H25   H     H_    0.692165 0.254396 0.289950 0.156241
H26   H     H_    0.794255 0.304072 0.245693 0.153512
O15   O     O_3   0.777386 0.669637 0.513693 -0.500077
C47   C     C_3   0.776766 0.712779 0.398005 -0.169166
H27   H     H_    0.841290 0.746913 0.383216 0.184610
H28   H     H_    0.725703 0.769770 0.397316 0.162409
H29   H     H_    0.759645 0.661187 0.319587 0.092312
O16   O     O_3   0.239401 0.369019 0.643589 -0.584016
C48   C     C_3   0.223426 0.270328 0.614328 -0.208663
H30   H     H_    0.286826 0.230553 0.621988 0.130584
H31   H     H_    0.195228 0.255563 0.519322 0.140141
H32   H     H_    0.179022 0.240910 0.682492 0.194403
O17   O     O_3   0.557425 0.066872 0.710379 -0.517386
C49   C     C_3   0.482946 0.033425 0.770025 -0.284246
H33   H     H_    0.469579 0.957027 0.741955 0.139325
H34   H     H_    0.422539 0.077403 0.752975 0.115660
H35   H     H_    0.497482 0.036344 0.870932 0.166668
O18   O     O_3   0.350193 0.933854 0.408717 -0.519181
C50   C     C_3   0.300944 0.960170 0.512639 -0.350749
H36   H     H_    0.330501 0.023257 0.564400 0.150773
H37   H     H_    0.293659 0.899081 0.575095 0.129589
H38   H     H_    0.233945 0.981788 0.480328 0.179482
O19   O     O_3   0.440719 0.058436 0.285194 -0.518153
C51   C     C_3   0.516346 0.029422 0.221359 -0.341216
H39   H     H_    0.549084 0.966949 0.264430 0.153448
H40   H     H_    0.563849 0.089706 0.214362 0.131772
H41   H     H_    0.495681 0.005157 0.126227 0.168102
O20   O     O_3   0.652684 0.940274 0.573521 -0.532254
C52   C     C_3   0.692586 0.972696 0.467069 -0.266877
H42   H     H_    0.672013 0.047859 0.449211 0.156747
H43   H     H_    0.678987 0.926006 0.382927 0.098002
H44   H     H_    0.764923 0.973141 0.484294 0.185726
O21   O     O_3   0.586901 0.262825 0.686290 -0.527282
C53   C     C_3   0.676623 0.235558 0.689598 -0.158300
H45   H     H_    0.701637 0.213294 0.597415 0.171700
H46   H     H_    0.688067 0.176729 0.754760 0.184889
H47   H     H_    0.716156 0.298427 0.724612 0.160459
O22   O     O_3   0.378034 0.734383 0.359625 -0.501819
C54   C     C_3   0.375556 0.766982 0.237702 -0.138184
H48   H     H_    0.437258 0.802822 0.212003 0.124234
H49   H     H_    0.319111 0.816934 0.223988 0.178493
H50   H     H_    0.365124 0.703833 0.173077 0.170281
O23   O     O_3   0.407787 0.258293 0.320183 -0.539889
C55   C     C_3   0.321246 0.221982 0.304540 -0.200396
H51   H     H_    0.298344 0.182623 0.384932 0.121714
H52   H     H_    0.316240 0.174073 0.220361 0.191358
H53   H     H_    0.275557 0.283582 0.290652 0.147855
O24   O     O_3   0.630443 0.740444 0.624515 -0.496626
C56   C     C_3   0.665052 0.789979 0.731285 -0.139637
H54   H     H_    0.619248 0.844739 0.770897 0.135385
H55   H     H_    0.728590 0.823915 0.710888 0.205655
H56   H     H_    0.679451 0.736513 0.802686 0.154336

loop_
_geom_bond_atom_site_label_1
_geom_bond_atom_site_label_2
_geom_bond_distance
_ccdc_geom_bond_type
C22   C29   1.407250 A    
C46   H24   1.113680 S    
O22   C54   1.414632 S    
C13   C15   1.410674 A    
O19   C51   1.411535 S    
O3    C2    1.302165 A    
C51   H40   1.114717 S    
O13   C45   1.415615 S    
C6    C16   1.414256 A    
C44   H18   1.110297 S    
O5    C3    1.303024 A    
C56   H55   1.109981 S    
O17   C49   1.413229 S    
O1    C1    1.297841 A    
C10   C12   1.386308 A    
C20   C24   1.401390 A    
C15   C18   1.416811 A    
C52   H43   1.113248 S    
C31   O17   1.385687 S    
C16   C17   1.409139 A    
O18   C50   1.410792 S    
O20   C52   1.413684 S    
C49   H35   1.109329 S    
C24   C28   1.420882 A    
O7    Cu1   1.977044 S    
C41   H10   1.111637 S    
C34   C40   1.417882 A    
C49   H33   1.109314 S    
C20   O10   1.386361 S    
C55   H51   1.114289 S    
C33   O19   1.384352 S    
C50   H36   1.110200 S    
C24   O14   1.383909 S    
C19   C29   1.401569 A    
C20   C30   1.409637 A    
O3    Cu1   1.963961 S    
C6    H6    1.079814 S    
C34   O20   1.387173 S    
O10   C42   1.413219 S    
C7    C13   1.417950 A    
C39   C40   1.516949 S    
C8    C14   1.414363 A    
Cu1   Cu2   2.675496 S    
O4    Cu2   1.963960 S    
C50   H37   1.114153 S    
O2    C2    1.292995 A    
C43   H17   1.109148 S    
C51   H39   1.108047 S    
C38   O24   1.390091 S    
C48   H30   1.109992 S    
C44   H19   1.114454 S    
C56   H56   1.109075 S    
H3    C10   1.080515 S    
C13   C17   1.420579 A    
C42   H12   1.109430 S    
C6    C10   1.388550 A    
C14   C18   1.420994 A    
O12   C44   1.409169 S    
C43   H16   1.114571 S    
C48   H31   1.115184 S    
C52   H44   1.109096 S    
O15   C47   1.411939 S    
C35   N1    1.371241 A    
O14   C46   1.411684 S    
C43   H15   1.110065 S    
H1    C12   1.077596 S    
C21   C25   1.395968 A    
Cu1   N2    2.009880 S    
C21   O11   1.384686 S    
C1    C27   1.472837 S    
C47   H29   1.115486 S    
C25   O15   1.379019 S    
H4    C9    1.082673 S    
C42   H13   1.115278 S    
C5    C9    1.391101 A    
C54   H49   1.109428 S    
C41   H9    1.112325 S    
C26   O16   1.387965 S    
C36   O22   1.381411 S    
C29   C30   1.470213 S    
O5    Cu1   1.960958 S    
O6    C4    1.305635 A    
C23   O13   1.379802 S    
O16   C48   1.413899 S    
C47   H28   1.104786 S    
C32   C36   1.418506 A    
C49   H34   1.113642 S    
O21   C53   1.412948 S    
C3    C18   1.486417 S    
C37   O23   1.384121 S    
C37   N1    1.367764 A    
C4    C17   1.482080 S    
O8    Cu2   1.977045 S    
C50   H38   1.109143 S    
C33   C39   1.417052 A    
C53   H46   1.109749 S    
C54   H48   1.113297 S    
C5    C15   1.416130 A    
C48   H32   1.109697 S    
C26   C27   1.413270 A    
C36   N2    1.364665 A    
C44   H20   1.109151 S    
H2    C11   1.081874 S    
Cu2   N1    2.009880 S    
C7    C11   1.395218 A    
O6    Cu2   1.960957 S    
C2    C28   1.482008 S    
C41   H11   1.109249 S    
O7    C4    1.290189 A    
C5    H5    1.080817 S    
O24   C56   1.411680 S    
C19   O9    1.385961 S    
C7    H7    1.078876 S    
C45   H23   1.112553 S    
C8    H8    1.078480 S    
C56   H54   1.111785 S    
C45   H22   1.106851 S    
C31   C39   1.416883 A    
C42   H14   1.109118 S    
C32   C40   1.414760 A    
C53   H47   1.109470 S    
C14   C16   1.407807 A    
C54   H50   1.109523 S    
O11   C43   1.408769 S    
C35   O21   1.382668 S    
C52   H42   1.109194 S    
C34   C38   1.429846 A    
C55   H53   1.109583 S    
C31   C35   1.417527 A    
O4    C1    1.292977 A    
C47   H27   1.111113 S    
C38   N2    1.372173 A    
C33   C37   1.422394 A    
C9    C11   1.387638 A    
C19   C23   1.400413 A    
O9    C41   1.410029 S    
O2    Cu2   1.966413 S    
C25   C28   1.409156 A    
O8    C3    1.295483 A    
C22   O12   1.383500 S    
C22   C26   1.411878 A    
O1    Cu1   1.966413 S    
C55   H52   1.109656 S    
C45   H21   1.112780 S    
C8    C12   1.394986 A    
C46   H26   1.109692 S    
C32   O18   1.383005 S    
C46   H25   1.109619 S    
C23   C27   1.407894 A    
C53   H45   1.114777 S    
C51   H41   1.109292 S    
O23   C55   1.413927 S    
C21   C30   1.408412 A    
