data_mof_unit_22404.cif
_audit_creation_date              2012-12-11T17:04:51-0500
_audit_creation_method            fapswitch 2.2
_symmetry_space_group_name_H-M    P1
_symmetry_Int_Tables_number       1
_space_group_crystal_system       triclinic
_cell_length_a                    17.357461
_cell_length_b                    24.435088
_cell_length_c                    14.845545
_cell_angle_alpha                 89.170617
_cell_angle_beta                  125.264056
_cell_angle_gamma                 91.0964
_cell_volume                      5140.07034322

loop_
_atom_site_label
_atom_site_type_symbol
_atom_type_description
_atom_site_fract_x
_atom_site_fract_y
_atom_site_fract_z
_atom_type_partial_charge
C1    C     C_R   0.849323 0.650980 0.905848 -0.156017
C2    C     C_R   0.047759 0.502685 0.721749 0.046512
C3    C     C_R   0.770278 0.047317 0.255202 0.517620
C4    C     C_R   0.811138 0.375614 0.910621 -0.127767
C5    C     C_R   0.179677 0.366925 0.092331 -0.108414
C6    C     C_R   0.311487 0.875099 0.910512 -0.126641
C7    C     C_R   0.668084 0.858323 0.090223 -0.113580
C8    C     C_R   0.938469 0.650765 0.090167 -0.117288
C9    C     C_R   0.058814 0.653314 0.910542 -0.112345
C10   C     C_R   0.440695 0.150832 0.091547 -0.116793
C11   C     C_R   0.558118 0.153449 0.910032 -0.112114
C12   C     C_R   0.875570 0.681151 0.996823 0.066923
C13   C     C_R   0.564035 0.001085 0.368200 0.069854
C14   C     C_R   0.120713 0.684731 0.003000 0.067467
C15   C     C_R   0.379822 0.182419 0.999754 0.073558
C16   C     C_R   0.619222 0.185213 0.002030 0.048877
C17   C     C_3   0.491337 0.360390 0.531393 0.202185
C18   C     C_3   0.486696 0.321503 0.609581 -0.337205
C19   C     C_3   0.406026 0.280019 0.546068 -1.037831
C20   C     C_3   0.495322 0.391874 0.310248 0.214045
C21   C     C_3   0.478017 0.405729 0.198913 -0.238523
C22   C     C_3   0.542070 0.373122 0.180422 -1.047772
C23   C     C_3   0.971251 0.870757 0.519326 0.225137
C24   C     C_R   0.550402 0.002230 0.724886 0.057311
C25   C     C_3   0.992513 0.810583 0.551264 -0.317368
C26   C     C_3   0.905878 0.780367 0.531004 -1.055468
C27   C     C_3   0.040184 0.879153 0.335474 0.222164
C28   C     C_3   0.057009 0.857251 0.252125 -0.271590
C29   C     C_3   0.120548 0.807220 0.297282 -1.075310
C30   C     C_3   0.961389 0.670446 0.378546 -0.956052
C31   C     C_3   0.137524 0.700380 0.701427 -0.931739
C32   C     C_3   0.429705 0.158069 0.370002 -0.938956
C33   C     C_3   0.615549 0.200132 0.684392 -0.934913
C34   C     C_3   0.693436 0.627145 0.588917 0.105205
C35   C     C_R   0.701881 0.501174 0.631024 -0.007050
C36   C     C_3   0.726747 0.679293 0.562189 -0.253817
C37   C     C_3   0.644119 0.716635 0.484112 -1.031362
C38   C     C_3   0.328302 0.624344 0.412115 0.158962
C39   C     C_3   0.305313 0.672822 0.456298 -0.268689
C40   C     C_3   0.390904 0.710828 0.524940 -1.036788
C41   C     C_3   0.196521 0.129205 0.598235 0.183283
C42   C     C_3   0.235149 0.180608 0.576290 -0.262429
C43   C     C_3   0.157274 0.221965 0.505348 -1.036959
C44   C     C_3   0.774127 0.106514 0.375713 0.183846
C45   C     C_3   0.840246 0.148052 0.464541 -0.247107
C46   C     C_R   0.313832 0.502795 0.351308 0.048677
C47   C     C_3   0.808096 0.160998 0.538178 -1.086847
C48   C     C_3   0.423637 0.451187 0.638017 0.191780
C49   C     C_3   0.378115 0.460388 0.698986 -0.258652
C50   C     C_3   0.362533 0.406415 0.739832 -1.031170
C51   C     C_3   0.661590 0.491157 0.390493 0.171326
C52   C     C_3   0.740828 0.532002 0.421232 -0.275516
C53   C     C_3   0.830798 0.502506 0.455786 -1.012145
C54   C     C_3   0.928034 0.995132 0.612040 0.147148
C55   C     C_3   0.857976 0.977316 0.637798 -0.271267
C56   C     C_3   0.891946 0.993549 0.754208 -0.994844
C57   C     C_R   0.195900 0.000751 0.636504 0.034235
C58   C     C_3   0.196490 0.986274 0.409025 0.256236
C59   C     C_3   0.286935 0.011693 0.431203 -0.269078
C60   C     C_3   0.352348 0.967393 0.441109 -1.049816
C61   C     C_R   0.825472 0.002323 0.276863 0.047308
C62   C     C_3   0.531921 0.451965 0.532048 0.258064
C63   C     C_3   0.476327 0.460257 0.405472 0.304146
C64   C     C_3   0.030872 0.950629 0.493897 0.262599
C65   C     C_R   0.149683 0.652274 0.093680 -0.156642
C66   C     C_3   0.001409 0.961837 0.375344 0.271158
C67   C     C_3   0.472278 0.495288 0.538498 0.516814
C68   C     C_3   0.544553 0.506635 0.421381 0.527740
C69   C     C_3   0.957824 0.990812 0.478994 0.492557
C70   C     C_3   0.071406 0.010731 0.416291 0.491843
C71   C     C_3   0.415825 0.502883 0.414145 -0.143293
C72   C     C_3   0.600801 0.498857 0.547126 -0.184107
C73   C     C_3   0.926412 0.001352 0.359864 -0.074386
C74   C     C_3   0.101809 0.999570 0.534401 -0.159274
C75   C     C_3   0.482191 0.549164 0.426086 -0.340446
C76   C     C_R   0.351766 0.152110 0.907630 -0.161787
C77   C     C_3   0.539119 0.541446 0.552506 -0.322092
C78   C     C_3   0.995233 0.050326 0.398532 -0.214108
C79   C     C_3   0.026702 0.039468 0.518408 -0.405985
C80   C     C_R   0.761036 0.313428 0.107790 0.170329
C81   C     C_R   0.233462 0.305426 0.903868 0.174443
C82   C     C_R   0.260914 0.813415 0.107299 0.172927
C83   C     C_R   0.710525 0.794208 0.895231 0.160013
C84   C     C_R   0.740880 0.335518 0.008908 0.044488
C85   C     C_R   0.241680 0.316625 0.001109 0.029937
C86   C     C_R   0.240944 0.835004 0.008073 0.031630
C87   C     C_R   0.647771 0.152932 0.092541 -0.106776
C88   C     C_R   0.726462 0.808513 0.995384 0.051709
C89   C     C_R   0.653827 0.321165 0.910947 -0.222911
C90   C     C_R   0.321522 0.297978 0.101480 -0.199050
C91   C     C_R   0.154346 0.819988 0.909776 -0.204018
C92   C     C_R   0.814580 0.797594 0.093751 -0.194776
C93   C     C_R   0.903572 0.377535 0.095032 -0.141398
C94   C     C_R   0.084336 0.363370 0.907913 -0.139508
C95   C     C_R   0.403475 0.877436 0.094821 -0.140541
C96   C     C_R   0.575549 0.858769 0.906210 -0.147003
C97   C     C_R   0.105075 0.773659 0.908767 -0.199204
C98   C     C_R   0.814420 0.362974 0.004606 0.067204
C99   C     C_R   0.873861 0.761024 0.092589 -0.232759
C100  C     C_R   0.604170 0.274681 0.908955 -0.201764
C101  C     C_R   0.379795 0.260164 0.101657 -0.216711
C102  C     C_R   0.142084 0.743172 0.006489 0.038402
C103  C     C_R   0.844496 0.735628 0.993389 0.047778
C104  C     C_R   0.641020 0.243732 0.006092 0.043944
C105  C     C_R   0.355328 0.238436 0.001246 0.041849
C106  C     C_R   0.211675 0.768208 0.106370 0.151825
C107  C     C_R   0.768830 0.757718 0.893876 0.156277
C108  C     C_R   0.711135 0.268413 0.106328 0.145515
C109  C     C_R   0.170237 0.346457 0.000160 0.064584
C110  C     C_R   0.289682 0.266501 0.903709 0.170695
C111  C     C_3   0.297008 0.745439 0.209577 -0.537219
C112  C     C_3   0.687256 0.731181 0.790837 -0.533297
C113  C     C_3   0.796339 0.245293 0.209258 -0.491999
C114  C     C_3   0.211244 0.246973 0.791339 -0.540195
C115  C     C_3   0.851181 0.294009 0.210130 -0.533996
C116  C     C_3   0.149837 0.289316 0.791999 -0.526575
C117  C     C_3   0.351147 0.794462 0.210312 -0.512141
C118  C     C_3   0.623992 0.771791 0.792396 -0.518110
C119  C     C_R   0.118285 0.551303 0.635086 0.007643
C120  C     C_R   0.314551 0.862581 0.004248 0.066761
C121  C     C_R   0.119045 0.551205 0.542957 -0.003474
C122  C     C_R   0.616489 0.051052 0.634122 0.030076
C123  C     C_R   0.614134 0.050713 0.539819 -0.012052
C124  C     C_R   0.098266 0.503043 0.669948 0.063659
C125  C     C_R   0.104613 0.502421 0.486233 0.066102
C126  C     C_R   0.600678 0.002631 0.672664 0.057386
C127  C     C_R   0.601063 0.001705 0.484839 0.034352
C128  C     C_R   0.112814 0.453473 0.634850 -0.169212
C129  C     C_R   0.115175 0.453079 0.542381 -0.194263
C130  C     C_R   0.615956 0.953108 0.637944 -0.178565
C131  C     C_R   0.656000 0.836993 0.997388 0.068708
C132  C     C_R   0.615267 0.952582 0.543221 -0.193422
C133  C     C_3   0.087028 0.609583 0.514549 -0.079605
C134  C     C_3   0.087343 0.609548 0.617707 -0.071735
C135  C     C_3   0.571710 0.106664 0.505040 -0.081989
C136  C     C_3   0.576990 0.107400 0.610964 -0.071008
C137  C     C_R   0.051561 0.546640 0.304505 -0.053642
C138  C     C_R   0.021848 0.547549 0.754081 -0.096239
C139  C     C_R   0.549629 0.046357 0.303893 -0.122983
C140  C     C_R   0.523831 0.047207 0.756442 -0.120820
C141  C     C_R   0.746790 0.455735 0.694421 -0.165535
C142  C     C_R   0.066958 0.501639 0.369412 0.059182
C143  C     C_R   0.262124 0.456266 0.296925 -0.150243
C144  C     C_R   0.242115 0.955149 0.698266 -0.212189
C145  C     C_R   0.769252 0.956149 0.249586 -0.157469
C146  C     C_R   0.050880 0.455754 0.306548 -0.159160
C147  C     C_R   0.011523 0.456521 0.741283 -0.136605
C148  C     C_R   0.549402 0.955429 0.305758 -0.135534
C149  C     C_R   0.514151 0.956174 0.744446 -0.120068
C150  C     C_R   0.749493 0.547603 0.693507 0.506293
C151  C     C_R   0.259465 0.548593 0.298447 0.489320
C152  C     C_R   0.247056 0.047235 0.693922 0.481556
H1    H     H_    0.814923 0.665082 0.822018 0.129044
H2    H     H_    0.334803 0.307818 0.179887 0.134647
H3    H     H_    0.125434 0.720369 0.626729 0.254750
H4    H     H_    0.432028 0.075151 0.405290 0.192384
H5    H     H_    0.364135 0.154051 0.285335 0.258661
H6    H     H_    0.476734 0.188772 0.367922 0.242013
H7    H     H_    0.410881 0.172047 0.425585 0.253507
H8    H     H_    0.712946 0.143776 0.705266 0.189834
H9    H     H_    0.673035 0.225014 0.753712 0.252620
H10   H     H_    0.554594 0.199365 0.690180 0.255633
H11   H     H_    0.594949 0.219088 0.605011 0.259543
H12   H     H_    0.663185 0.638882 0.634480 0.095461
H13   H     H_    0.131137 0.838897 0.831821 0.132934
H14   H     H_    0.639970 0.607244 0.509607 0.166768
H15   H     H_    0.778418 0.701680 0.639688 0.187940
H16   H     H_    0.762617 0.668298 0.522668 0.207826
H17   H     H_    0.594220 0.695866 0.403954 0.274624
H18   H     H_    0.670924 0.754739 0.468886 0.271320
H19   H     H_    0.605801 0.727695 0.520497 0.267699
H20   H     H_    0.348369 0.640435 0.357744 0.082867
H21   H     H_    0.386802 0.602199 0.484473 0.171169
H22   H     H_    0.245927 0.696137 0.386338 0.194779
H23   H     H_    0.282893 0.657435 0.508784 0.203594
H24   H     H_    0.834690 0.812810 0.172688 0.136178
H25   H     H_    0.449446 0.688705 0.598142 0.276320
H26   H     H_    0.371455 0.746199 0.553776 0.270299
H27   H     H_    0.415657 0.726450 0.474998 0.272602
H28   H     H_    0.173881 0.139638 0.652428 0.055943
H29   H     H_    0.135679 0.115063 0.517524 0.165204
H30   H     H_    0.291481 0.199761 0.655704 0.174744
H31   H     H_    0.266988 0.169135 0.532341 0.219590
H32   H     H_    0.106148 0.205306 0.421213 0.277339
H33   H     H_    0.188709 0.260418 0.498464 0.269902
H34   H     H_    0.118817 0.231423 0.542295 0.270930
H35   H     H_    0.045982 0.758558 0.829976 0.131378
H36   H     H_    0.774859 0.068316 0.418438 0.130921
H37   H     H_    0.701263 0.122727 0.325847 0.080003
H38   H     H_    0.912641 0.131414 0.516228 0.196225
H39   H     H_    0.842653 0.186422 0.425471 0.197082
H40   H     H_    0.738085 0.180848 0.488884 0.264879
H41   H     H_    0.859564 0.189544 0.604388 0.278932
H42   H     H_    0.803531 0.122988 0.576996 0.271080
H43   H     H_    0.495392 0.434697 0.698285 0.139160
H44   H     H_    0.377744 0.422435 0.569056 0.098128
H45   H     H_    0.424247 0.487739 0.770625 0.202693
H46   H     H_    0.935498 0.747965 0.170894 0.145882
H47   H     H_    0.309212 0.480749 0.642774 0.220966
H48   H     H_    0.314879 0.378876 0.669164 0.269013
H49   H     H_    0.329512 0.414496 0.783788 0.280107
H50   H     H_    0.430921 0.385753 0.797658 0.270179
H51   H     H_    0.648228 0.467455 0.319863 0.134650
H52   H     H_    0.685842 0.461578 0.459131 0.076353
H53   H     H_    0.718751 0.559258 0.349781 0.203927
H54   H     H_    0.755951 0.557668 0.490301 0.240567
H55   H     H_    0.849973 0.471994 0.521497 0.273678
H56   H     H_    0.889662 0.532554 0.488669 0.264493
H57   H     H_    0.544733 0.259900 0.830076 0.133091
H58   H     H_    0.820915 0.481344 0.384013 0.266062
H59   H     H_    0.937711 0.040285 0.622313 0.118688
H60   H     H_    0.996727 0.974610 0.670843 0.114821
H61   H     H_    0.789530 0.997224 0.577810 0.211848
H62   H     H_    0.847159 0.932203 0.628751 0.196196
H63   H     H_    0.900750 0.038708 0.763802 0.263898
H64   H     H_    0.960221 0.973752 0.816029 0.268092
H65   H     H_    0.838994 0.980070 0.769562 0.280199
H66   H     H_    0.163639 0.960563 0.334668 0.115207
H67   H     H_    0.216493 0.960231 0.481422 0.066791
H68   H     H_    0.434770 0.243059 0.180457 0.122342
H69   H     H_    0.269291 0.039942 0.362575 0.206853
H70   H     H_    0.323826 0.035552 0.509068 0.222626
H71   H     H_    0.370404 0.938335 0.508651 0.271881
H72   H     H_    0.418362 0.986435 0.459594 0.280130
H73   H     H_    0.318051 0.944481 0.362483 0.271568
H74   H     H_    0.321520 0.706471 0.196843 0.203485
H75   H     H_    0.671675 0.688507 0.803389 0.201276
H76   H     H_    0.820149 0.206093 0.196326 0.222383
H77   H     H_    0.183153 0.665727 0.177476 0.128993
H78   H     H_    0.185435 0.204810 0.790005 0.198543
H79   H     H_    0.289906 0.745434 0.279191 0.205930
H80   H     H_    0.691813 0.737291 0.719815 0.201015
H81   H     H_    0.789212 0.245570 0.278874 0.186031
H82   H     H_    0.226683 0.255924 0.729795 0.210954
H83   H     H_    0.905011 0.281990 0.196219 0.205122
H84   H     H_    0.091618 0.270168 0.792869 0.198202
H85   H     H_    0.405595 0.782683 0.197265 0.202712
H86   H     H_    0.573382 0.752292 0.806585 0.202993
H87   H     H_    0.877113 0.321550 0.281498 0.194427
H88   H     H_    0.319560 0.166893 0.824858 0.118055
H89   H     H_    0.128490 0.321990 0.729321 0.189007
H90   H     H_    0.376229 0.822129 0.281298 0.195520
H91   H     H_    0.592741 0.801373 0.722495 0.191457
H92   H     H_    0.109941 0.414572 0.668188 0.113992
H93   H     H_    0.113825 0.413807 0.508951 0.123937
H94   H     H_    0.615321 0.914210 0.673169 0.121643
H95   H     H_    0.614559 0.913332 0.510142 0.124676
H96   H     H_    0.929573 0.376044 0.180614 0.111761
H97   H     H_    0.049662 0.350121 0.824482 0.096326
H98   H     H_    0.429222 0.876044 0.180285 0.110509
H99   H     H_    0.678831 0.167507 0.174903 0.127458
H100  H     H_    0.538519 0.846207 0.821791 0.097800
H101  H     H_    0.140419 0.636974 0.517469 0.137115
H102  H     H_    0.016466 0.615554 0.600004 0.134570
H103  H     H_    0.617890 0.137046 0.500579 0.137672
H104  H     H_    0.506778 0.110328 0.596444 0.140437
H105  H     H_    0.075617 0.588024 0.331910 0.140987
H106  H     H_    0.040667 0.589741 0.755186 0.112425
H107  H     H_    0.571382 0.087968 0.331251 0.105983
H108  H     H_    0.544208 0.089239 0.759417 0.119203
H109  H     H_    0.732768 0.413655 0.667165 0.154333
H110  H     H_    0.463365 0.588475 0.380461 0.150295
H111  H     H_    0.281288 0.414339 0.322923 0.123797
H112  H     H_    0.228257 0.913232 0.670319 0.168463
H113  H     H_    0.793817 0.914837 0.269596 0.122689
H114  H     H_    0.070455 0.414220 0.336189 0.092446
H115  H     H_    0.010324 0.415570 0.715556 0.089775
H116  H     H_    0.568808 0.913877 0.335393 0.089373
H117  H     H_    0.516222 0.914881 0.722562 0.085864
H118  H     H_    0.752198 0.370352 0.825581 0.123737
H119  H     H_    0.235565 0.360628 0.178011 0.111116
H120  H     H_    0.252959 0.869153 0.825603 0.110062
H121  H     H_    0.561939 0.573916 0.614792 0.146742
H122  H     H_    0.715993 0.844737 0.174395 0.081499
H123  H     H_    0.981874 0.664062 0.175036 0.102405
H124  H     H_    0.012171 0.668038 0.826723 0.091910
H125  H     H_    0.486190 0.163529 0.176662 0.089027
H126  H     H_    0.511404 0.168020 0.826092 0.088663
H127  H     H_    0.512232 0.336408 0.486043 0.112600
H128  H     H_    0.419194 0.376346 0.471291 0.104584
H129  H     H_    0.554718 0.300257 0.661337 0.215027
H130  H     H_    0.475752 0.344106 0.665202 0.199981
H131  H     H_    0.413179 0.257467 0.487155 0.274785
H132  H     H_    0.978771 0.090597 0.356029 0.181167
H133  H     H_    0.337140 0.301196 0.499725 0.268033
H134  H     H_    0.407210 0.250525 0.604420 0.267408
H135  H     H_    0.481355 0.347487 0.311177 0.094880
H136  H     H_    0.570402 0.398119 0.379740 0.058157
H137  H     H_    0.403315 0.396722 0.131321 0.210508
H138  H     H_    0.489221 0.450114 0.193628 0.221617
H139  H     H_    0.529757 0.328582 0.181969 0.276120
H140  H     H_    0.617514 0.382069 0.245383 0.256806
H141  H     H_    0.527058 0.383996 0.098881 0.280749
H142  H     H_    0.914620 0.873182 0.429356 0.092549
H143  H     H_    0.040209 0.070974 0.579103 0.128457
H144  H     H_    0.946137 0.887815 0.566708 0.147798
H145  H     H_    0.014183 0.791281 0.501970 0.197940
H146  H     H_    0.051392 0.807425 0.640057 0.214128
H147  H     H_    0.883198 0.799151 0.579743 0.269506
H148  H     H_    0.922745 0.736919 0.556590 0.269388
H149  H     H_    0.846790 0.781820 0.442005 0.274048
H150  H     H_    0.003498 0.846871 0.351394 0.114925
H151  H     H_    0.110122 0.887719 0.413932 0.094051
H152  H     H_    0.988596 0.846635 0.174572 0.221813
H153  H     H_    0.090063 0.889092 0.230510 0.194727
H154  H     H_    0.630917 0.341073 0.834203 0.137774
H155  H     H_    0.091590 0.775178 0.324178 0.260075
H156  H     H_    0.192560 0.819031 0.368669 0.276635
H157  H     H_    0.125549 0.789943 0.232087 0.278503
H158  H     H_    0.941595 0.589080 0.407003 0.189232
H159  H     H_    0.893227 0.670061 0.295670 0.257587
H160  H     H_    0.013845 0.693984 0.372844 0.241533
H161  H     H_    0.951464 0.690708 0.437392 0.271118
H162  H     H_    0.227821 0.638646 0.723071 0.185086
H163  H     H_    0.196360 0.722009 0.775644 0.255105
H164  H     H_    0.073633 0.703244 0.701058 0.251814
N1    N     N_R   0.892620 0.603790 0.941770 -0.041829
N2    N     N_R   0.973690 0.529110 0.793240 -0.027773
N3    N     N_R   0.526310 0.029110 0.206760 -0.047710
N4    N     N_R   0.473690 0.029110 0.793240 -0.027667
N5    N     N_R   0.818570 0.472310 0.793020 -0.074918
N6    N     N_R   0.181430 0.472310 0.206980 -0.070485
N7    N     N_R   0.318570 0.972310 0.793020 -0.071902
N8    N     N_R   0.681430 0.972310 0.206980 -0.073047
N9    N     N_R   0.026930 0.472300 0.207330 -0.043739
N10   N     N_R   0.973070 0.472300 0.792670 -0.042513
N11   N     N_R   0.526930 0.972300 0.207330 -0.039034
N12   N     N_R   0.107380 0.603790 0.058230 -0.045331
N13   N     N_R   0.473070 0.972300 0.792670 -0.041217
N14   N     N_R   0.817960 0.529130 0.792460 -0.079768
N15   N     N_R   0.182040 0.529130 0.207540 -0.081832
N16   N     N_R   0.317960 0.029130 0.792460 -0.082121
N17   N     N_R   0.682040 0.029130 0.207540 -0.116660
N18   N     N_R   0.894850 0.397640 0.943830 -0.042062
N19   N     N_R   0.105150 0.397640 0.056170 -0.041806
N20   N     N_R   0.394850 0.897640 0.943830 -0.039813
N21   N     N_R   0.605150 0.897640 0.056170 -0.037394
N22   N     N_R   0.950040 0.603780 0.055950 -0.043543
N23   N     N_R   0.392620 0.103790 0.941770 -0.041846
N24   N     N_R   0.049960 0.603780 0.944050 -0.043208
N25   N     N_R   0.450040 0.103780 0.055950 -0.043379
N26   N     N_R   0.549960 0.103780 0.944050 -0.043263
N27   N     N_2   0.992399 0.614932 0.414008 -0.102429
N28   N     N_2   0.161537 0.643803 0.705575 -0.093182
N29   N     N_2   0.474889 0.105559 0.407089 -0.095122
N30   N     N_2   0.647868 0.145327 0.692463 -0.094380
N31   N     N_R   0.607380 0.103790 0.058230 -0.053093
N32   N     N_R   0.952270 0.397640 0.058010 -0.041057
N33   N     N_R   0.047730 0.397640 0.941990 -0.039763
N34   N     N_R   0.452270 0.897640 0.058010 -0.040059
N35   N     N_R   0.547730 0.897640 0.941990 -0.037936
N36   N     N_R   0.026310 0.529110 0.206760 -0.047197
Ni1   Ni    Ni4+2 0.934160 0.565860 0.869070 0.246496
Ni2   Ni    Ni4+2 0.065840 0.565860 0.130930 0.236601
Ni3   Ni    Ni4+2 0.434160 0.065860 0.869070 0.240460
Ni4   Ni    Ni4+2 0.565840 0.065860 0.130930 0.194464
Ni5   Ni    Ni4+2 0.067260 0.435560 0.132230 0.204715
Ni6   Ni    Ni4+2 0.932740 0.435560 0.867770 0.203148
Ni7   Ni    Ni4+2 0.567260 0.935560 0.132230 0.206421
Ni8   Ni    Ni4+2 0.432740 0.935560 0.867770 0.206184
O1    O     O_3   0.560050 0.402002 0.591894 -0.683384
O2    O     O_3   0.577829 0.519084 0.355658 -0.665794
O3    O     O_3   0.890355 0.980914 0.502089 -0.687570
O4    O     O_3   0.132986 0.027971 0.387845 -0.646691
O5    O     O_3   0.430991 0.420580 0.320614 -0.678742
O6    O     O_3   0.054043 0.898947 0.547208 -0.687714
O7    O     O_3   0.981946 0.925628 0.290822 -0.651295
O8    O     O_3   0.770876 0.592446 0.652967 -0.686392
O9    O     O_3   0.248343 0.590031 0.352877 -0.680091
O10   O     O_3   0.266380 0.088895 0.645116 -0.667350
O11   O     O_3   0.804472 0.097486 0.306783 -0.687072
O12   O     O_3   0.430506 0.501320 0.596161 -0.662637

loop_
_geom_bond_atom_site_label_1
_geom_bond_atom_site_label_2
_ccdc_geom_bond_type
C63   O5    S    
C99   C103  A    
C105  C110  A    
N18   Ni6   S    
C107  C112  S    
C142  C146  A    
C9    H124  S    
C55   H62   S    
C114  H82   S    
C129  H93   S    
C24   C140  A    
C68   C75   S    
N24   Ni1   S    
C13   C139  A    
C7    N21   A    
N19   N33   A    
N26   N31   A    
H158  N27   S    
C14   C102  S    
C19   H133  S    
C57   C152  A    
C36   H16   S    
C20   H136  S    
C56   H63   S    
C41   H28   S    
C79   H143  S    
C45   H39   S    
N13   Ni8   S    
C1    N1    A    
C25   H146  S    
C70   C74   S    
C65   N12   A    
C83   C88   A    
C117  H85   S    
C59   C60   S    
C3    O11   S    
C21   C22   S    
C101  C105  A    
N5    Ni6   S    
C39   H22   S    
N14   Ni1   S    
C139  N3    A    
C45   C47   S    
C140  N4    A    
C9    N24   A    
C51   C52   S    
C2    C138  A    
C149  N13   A    
C133  H101  S    
N12   Ni2   S    
H8    N30   S    
C64   C66   S    
C108  C113  S    
C33   H9    S    
N3    Ni4   S    
C68   C72   S    
C122  C136  S    
N32   Ni5   S    
C63   C71   S    
N34   Ni7   S    
C74   C79   S    
C128  H92   S    
C23   H144  S    
C30   H161  S    
C51   H52   S    
C97   H35   S    
C152  N16   A    
C140  H108  S    
C143  N6    A    
C141  H109  S    
C47   H41   S    
N1    Ni1   S    
C44   O11   S    
C38   H21   S    
N33   Ni6   S    
C85   C90   A    
N10   Ni6   S    
C132  H95   S    
C137  H105  S    
C66   O7    S    
C151  O9    S    
C19   H131  S    
C94   C109  A    
N1    N22   A    
C96   N35   A    
C2    C147  A    
C89   H154  S    
C115  H87   S    
C15   C105  S    
C66   C70   S    
C68   O2    S    
C26   H147  S    
C17   H128  S    
C27   O7    S    
C13   C127  S    
C125  C129  A    
C20   C21   S    
C38   O9    S    
C103  C107  A    
C21   H138  S    
C22   H141  S    
C113  C115  S    
C31   H164  S    
C94   N33   A    
C137  C142  A    
C138  H106  S    
C17   O1    S    
C111  H79   S    
C32   N29   S    
C67   C77   S    
C100  C104  A    
C52   C53   S    
N9    N36   A    
C128  C129  A    
C90   C101  A    
C49   H45   S    
N16   Ni3   S    
C87   H99   S    
C36   C37   S    
C33   H11   S    
C34   H12   S    
C37   H17   S    
C38   C39   S    
N21   N35   A    
C95   N34   A    
C43   H33   S    
C133  N27   S    
C100  H57   S    
N2    N10   A    
C47   H40   S    
C31   N28   S    
C53   H58   S    
C16   C87   A    
C152  O10   S    
C35   C150  A    
N31   Ni4   S    
C23   H142  S    
C30   H159  S    
C110  C114  S    
C11   H126  S    
C54   H60   S    
C46   C151  A    
C33   N30   S    
C24   C126  S    
N22   Ni2   S    
C1    C12   A    
C51   O2    S    
C95   H98   S    
C16   C104  S    
N7    Ni8   S    
C106  C111  S    
C119  C121  A    
C121  C133  S    
C119  C134  S    
C52   H53   S    
C134  N28   S    
C39   H23   S    
C39   C40   S    
C25   C26   S    
C123  C135  S    
C10   N25   A    
C121  C125  A    
C59   H70   S    
C123  C127  A    
C41   O10   S    
C8    C12   A    
C146  N9    A    
C17   C18   S    
C62   O1    S    
C29   H155  S    
C64   C69   S    
C81   C110  A    
C22   H139  S    
C75   C77   S    
N12   N24   A    
C96   C131  A    
N3    N11   A    
C48   H43   S    
C8    N22   A    
C69   C79   S    
C11   N26   A    
C60   H71   S    
N35   Ni8   S    
C32   H5    S    
C49   H47   S    
C63   C68   S    
C57   C144  A    
C91   H13   S    
C55   H61   S    
C114  C116  S    
C38   H20   S    
C2    C124  S    
C80   C108  A    
C65   H77   S    
C111  C117  S    
N25   Ni4   S    
C58   H66   S    
C18   H129  S    
C76   N23   A    
C14   C65   A    
C150  O8    S    
C82   C106  A    
C10   H125  S    
C56   H64   S    
C150  N14   A    
C40   H25   S    
C45   H38   S    
C49   C50   S    
C25   H145  S    
C145  H113  S    
N7    N16   A    
C88   C131  S    
C81   C85   A    
C92   C99   A    
C55   C56   S    
C41   C42   S    
C64   O6    S    
C80   C84   A    
C7    H122  S    
C115  H83   S    
C135  C136  S    
C92   H24   S    
C113  H81   S    
C27   H150  S    
C28   C29   S    
C85   C109  S    
C86   C91   A    
C126  C130  A    
C3    N17   A    
C53   H56   S    
N17   Ni4   S    
C18   C19   S    
C61   C145  A    
C54   C55   S    
N4    Ni3   S    
N36   Ni2   S    
N4    N13   A    
C69   C73   S    
C90   H2    S    
C7    C131  A    
C97   C102  A    
C124  C128  A    
C32   H7    S    
C117  H90   S    
C118  H86   S    
C50   H50   S    
C15   C76   A    
C112  H75   S    
C141  N5    A    
N6    Ni5   S    
C41   H29   S    
C29   H157  S    
C93   N32   A    
C56   H65   S    
C51   H51   S    
C89   C100  A    
C20   O5    S    
C12   C103  S    
C61   C73   S    
C58   C59   S    
C82   C86   A    
C19   H134  S    
C44   H36   S    
C36   H15   S    
N5    N14   A    
C29   H156  S    
C130  C132  A    
C9    C14   A    
C37   H19   S    
C62   C63   S    
C77   H121  S    
C44   H37   S    
C40   H27   S    
C34   O8    S    
C11   C16   A    
C80   C115  S    
C116  H84   S    
C69   O3    S    
C26   H148  S    
C91   C97   A    
C1    H1    S    
N26   Ni3   S    
C78   H132  S    
C46   C71   S    
C17   H127  S    
C54   O3    S    
C48   C49   S    
C35   C72   S    
C133  C134  S    
C143  H111  S    
C42   C43   S    
C96   H100  S    
C144  H112  S    
C104  C108  A    
C44   C45   S    
N21   Ni7   S    
C50   H49   S    
C31   H163  S    
N8    N17   A    
N11   Ni7   S    
C116  H89   S    
C26   H149  S    
C111  H74   S    
H162  N28   S    
C31   H3    S    
N9    Ni5   S    
C95   C120  A    
C112  H80   S    
C76   H88   S    
C148  H116  S    
C33   H10   S    
C149  H117  S    
C137  N36   A    
C5    C109  A    
C42   H30   S    
C67   C71   S    
N15   Ni2   S    
C8    H123  S    
C144  N7    A    
C58   O4    S    
C64   C74   S    
N19   Ni5   S    
C145  N8    A    
C82   C117  S    
C135  H103  S    
C34   H14   S    
C30   H160  S    
C20   H135  S    
C151  N15   A    
C71   C75   S    
C67   O12   S    
C4    N18   A    
C4    C98   A    
C70   C78   S    
C28   H153  S    
C47   H42   S    
C6    N20   A    
N8    Ni7   S    
C130  H94   S    
C119  C124  A    
H4    N29   S    
C62   C67   S    
N20   Ni8   S    
C52   H54   S    
C83   C118  S    
C87   N31   A    
C10   C15   A    
N2    Ni1   S    
C43   H32   S    
C81   C116  S    
C60   H73   S    
C27   H151  S    
C146  H114  S    
C23   O6    S    
C127  C132  A    
C28   H152  S    
C147  N10   A    
C59   H69   S    
C88   C92   A    
C73   C78   S    
C22   H140  S    
C34   C36   S    
C75   H110  S    
N23   Ni3   S    
C48   H44   S    
C60   H72   S    
C6    C120  A    
C32   H6    S    
C3    C61   A    
C4    H118  S    
C5    H119  S    
C6    H120  S    
C135  N29   S    
C134  H102  S    
C147  H115  S    
C37   H18   S    
C50   H48   S    
C78   C79   S    
C113  H76   S    
C43   H34   S    
N18   N32   A    
C30   N27   S    
C66   C73   S    
C57   C74   S    
C122  C126  A    
C148  N11   A    
C72   C77   S    
C93   H96   S    
C58   H67   S    
C18   H130  S    
C125  C142  S    
C138  N2    A    
C62   C72   S    
C35   C141  A    
C40   H26   S    
C54   H59   S    
N23   N25   A    
C84   C89   A    
N20   N34   A    
C94   H97   S    
C118  H91   S    
C136  H104  S    
C114  H78   S    
C86   C120  S    
C46   C143  A    
C139  H107  S    
C42   H31   S    
C5    N19   A    
C48   O12   S    
C84   C98   S    
C112  C118  S    
C99   H46   S    
N6    N15   A    
C53   H55   S    
C83   C107  A    
C102  C106  A    
C23   C25   S    
C136  N30   S    
C24   C149  A    
C21   H137  S    
C27   C28   S    
C70   O4    S    
C13   C148  A    
C101  H68   S    
C122  C123  A    
C93   C98   A    
