data_mof_unit_9836.cif
_audit_creation_date              2012-12-11T15:54:52-0500
_audit_creation_method            fapswitch 2.2
_symmetry_space_group_name_H-M    P1
_symmetry_Int_Tables_number       1
_space_group_crystal_system       triclinic
_cell_length_a                    17.527026
_cell_length_b                    24.174101
_cell_length_c                    15.092532
_cell_angle_alpha                 89.748047
_cell_angle_beta                  125.955556
_cell_angle_gamma                 90.11113
_cell_volume                      5176.28923268

loop_
_atom_site_label
_atom_site_type_symbol
_atom_type_description
_atom_site_fract_x
_atom_site_fract_y
_atom_site_fract_z
_atom_type_partial_charge
C1    C     C_R   0.900838 0.878537 0.092305 -0.130400
C2    C     C_R   0.149381 0.847412 0.091339 -0.150743
C3    C     C_R   0.311173 0.633506 0.001703 -0.004218
C4    C     C_R   0.705149 0.001642 0.626412 -0.159091
C5    C     C_R   0.209258 0.501193 0.624051 -0.134172
C6    C     C_R   0.060910 0.001083 0.363633 0.039788
C7    C     C_R   0.562666 0.500942 0.364824 0.038595
C8    C     C_R   0.268068 0.953108 0.251196 -0.141315
C9    C     C_R   0.269118 0.046000 0.251746 -0.141699
C10   C     C_R   0.768888 0.453201 0.255541 -0.141767
C11   C     C_R   0.769604 0.546203 0.256554 -0.141771
C12   C     C_R   0.015146 0.047107 0.748094 -0.136560
C13   C     C_R   0.649687 0.652424 0.091150 -0.146046
C14   C     C_R   0.011837 0.954124 0.742637 -0.161164
C15   C     C_R   0.518609 0.546735 0.751684 -0.124875
C16   C     C_R   0.514401 0.453987 0.745455 -0.164466
C17   C     C_3   0.969201 0.155135 0.552914 -1.017435
C18   C     C_3   0.786709 0.949642 0.410088 -1.001631
C19   C     C_3   0.482903 0.656201 0.563318 -1.027637
C20   C     C_3   0.287563 0.455616 0.410435 -1.011067
C21   C     C_3   0.776515 0.855221 0.676414 -1.005087
C22   C     C_3   0.791112 0.115432 0.611043 -0.916828
C23   C     C_3   0.274204 0.354201 0.676537 -1.008625
C24   C     C_R   0.648980 0.347371 0.091425 -0.149979
C25   C     C_3   0.288355 0.606589 0.588739 -0.973614
C26   C     C_R   0.325063 0.999157 0.280650 -0.005406
C27   C     C_R   0.825920 0.499457 0.286489 -0.004927
C28   C     C_R   0.033900 0.001430 0.709499 -0.005823
C29   C     C_R   0.538559 0.501074 0.714078 -0.004790
C30   C     C_R   0.119767 0.816058 0.000205 -0.009174
C31   C     C_R   0.119414 0.184192 0.999832 -0.010048
C32   C     C_R   0.618510 0.315830 0.000283 -0.009529
C33   C     C_R   0.901678 0.122947 0.091930 -0.136897
C34   C     C_R   0.619091 0.684268 0.999838 -0.005118
C35   C     C_3   0.062338 0.062665 0.495423 -0.486139
C36   C     C_3   0.962069 0.976465 0.420505 -0.429156
C37   C     C_3   0.570043 0.562107 0.501451 -0.486238
C38   C     C_3   0.464021 0.478355 0.422847 -0.427002
C39   C     C_3   0.044876 0.064056 0.583279 0.059903
C40   C     C_3   0.956716 0.969872 0.517584 0.041186
C41   C     C_3   0.553003 0.563642 0.589829 0.062808
C42   C     C_3   0.459264 0.471270 0.520335 0.043100
C43   C     C_3   0.139889 0.969128 0.555731 -0.420240
C44   C     C_R   0.400842 0.378676 0.092400 -0.130406
C45   C     C_3   0.641220 0.466939 0.556430 -0.417334
C46   C     C_3   0.057796 0.002232 0.458026 0.336525
C47   C     C_3   0.561028 0.501975 0.460581 0.333851
C48   C     C_3   0.040892 0.002996 0.617381 0.196048
C49   C     C_3   0.545527 0.502639 0.621478 0.194413
C50   C     C_R   0.809056 0.122829 0.908587 -0.132360
C51   C     C_R   0.807190 0.881167 0.909750 -0.148899
C52   C     C_R   0.307679 0.620157 0.909905 -0.160964
C53   C     C_R   0.307086 0.381460 0.909931 -0.148574
C54   C     C_3   0.134130 0.973534 0.653555 -0.466868
C55   C     C_R   0.401661 0.622117 0.092583 -0.133779
C56   C     C_3   0.636728 0.471367 0.655343 -0.468928
C57   C     C_3   0.650729 0.178431 0.898100 -0.408485
C58   C     C_3   0.649929 0.822495 0.895768 -0.408559
C59   C     C_3   0.150291 0.677648 0.898598 -0.406247
C60   C     C_3   0.149902 0.322666 0.896054 -0.408699
C61   C     C_3   0.096982 0.728055 0.899249 -0.401822
C62   C     C_3   0.097064 0.271676 0.896106 -0.399132
C63   C     C_3   0.597059 0.228702 0.898225 -0.402719
C64   C     C_3   0.597015 0.771548 0.895781 -0.399462
C65   C     C_3   0.301512 0.733272 0.000379 -0.389713
C66   C     C_R   0.058721 0.847900 0.908826 -0.150177
C67   C     C_3   0.302210 0.268052 0.002870 -0.386284
C68   C     C_3   0.801100 0.235021 0.999489 -0.392658
C69   C     C_3   0.802185 0.767835 0.003029 -0.386731
C70   C     C_3   0.755246 0.178467 0.103429 -0.398719
C71   C     C_3   0.750316 0.823645 0.101019 -0.400259
C72   C     C_3   0.254239 0.677667 0.103912 -0.400701
C73   C     C_3   0.250525 0.323622 0.101305 -0.400577
C74   C     C_3   0.755113 0.180264 0.000307 0.404894
C75   C     C_3   0.753381 0.822103 0.000232 0.402857
C76   C     C_3   0.254583 0.678853 0.001134 0.399470
C77   C     C_R   0.057981 0.152590 0.908745 -0.149162
C78   C     C_3   0.253412 0.322263 0.000388 0.402896
C79   C     C_3   0.165140 0.764835 0.000607 0.402938
C80   C     C_3   0.164363 0.235705 0.999771 0.401795
C81   C     C_3   0.664493 0.265138 0.000445 0.404866
C82   C     C_3   0.664125 0.735706 0.999706 0.401159
C83   C     C_3   0.248127 0.783415 0.997997 -0.398918
C84   C     C_3   0.249556 0.217589 0.001363 -0.402061
C85   C     C_3   0.747832 0.284598 0.999149 -0.398392
C86   C     C_3   0.749496 0.717458 0.001749 -0.401420
C87   C     C_3   0.203459 0.729279 0.104951 -0.403281
C88   C     C_R   0.557786 0.347684 0.908903 -0.151010
C89   C     C_3   0.199311 0.271925 0.101920 -0.402101
C90   C     C_3   0.702354 0.229029 0.103969 -0.406120
C91   C     C_3   0.698806 0.772087 0.101580 -0.402747
C92   C     C_3   0.470898 0.940729 0.381829 -0.443324
C93   C     C_3   0.479322 0.040177 0.340489 -0.424858
C94   C     C_3   0.973795 0.443361 0.374625 -0.435104
C95   C     C_3   0.977111 0.545615 0.349335 -0.429845
C96   C     C_R   0.752570 0.955008 0.689189 0.142859
C97   C     C_R   0.747973 0.046725 0.694381 0.141811
C98   C     C_R   0.253959 0.454729 0.688749 0.140328
C99   C     C_R   0.557568 0.652693 0.908741 -0.163233
C100  C     C_R   0.252458 0.546484 0.691375 0.136266
C101  C     C_3   0.576318 0.942263 0.474557 -0.365666
C102  C     C_3   0.584455 0.042681 0.438022 -0.383131
C103  C     C_3   0.079627 0.444347 0.466940 -0.375161
C104  C     C_3   0.082932 0.547052 0.443495 -0.377853
C105  C     C_3   0.440905 0.015599 0.473876 -0.389549
C106  C     C_3   0.944689 0.508976 0.481740 -0.392296
C107  C     C_3   0.427118 0.998822 0.366337 0.413690
C108  C     C_3   0.928375 0.499251 0.370461 0.413637
C109  C     C_3   0.605627 0.000598 0.528140 0.410508
C110  C     C_R   0.149684 0.152435 0.091132 -0.149145
C111  C     C_3   0.108303 0.500615 0.528288 0.402748
C112  C     C_3   0.544897 0.014825 0.568931 -0.416956
C113  C     C_3   0.049876 0.509149 0.574211 -0.412242
C114  C     C_R   0.049717 0.046531 0.302669 -0.160155
C115  C     C_R   0.048599 0.954519 0.304257 -0.159610
C116  C     C_R   0.550507 0.546419 0.303247 -0.158690
C117  C     C_R   0.549226 0.454478 0.304619 -0.159003
C118  C     C_R   0.810102 0.867707 0.001221 -0.020456
C119  C     C_R   0.812020 0.135586 0.000296 -0.023119
C120  C     C_R   0.310035 0.367966 0.001414 -0.020745
H1    H     H_    0.930307 0.870184 0.176894 0.087044
H2    H     H_    0.967143 0.925181 0.540634 0.116566
H3    H     H_    0.691101 0.334086 0.175890 0.084369
H4    H     H_    0.132560 0.080953 0.528075 0.150392
H5    H     H_    0.951635 0.934960 0.383262 0.140500
H6    H     H_    0.641395 0.578719 0.534642 0.151029
H7    H     H_    0.450410 0.437331 0.382855 0.141116
H8    H     H_    0.899974 0.083379 0.468819 0.203367
H9    H     H_    0.902037 0.174069 0.529517 0.262729
H10   H     H_    0.986351 0.171441 0.497624 0.258621
H11   H     H_    0.025469 0.167313 0.638485 0.249958
H12   H     H_    0.859880 0.997415 0.549107 0.180674
H13   H     H_    0.615720 0.583233 0.664115 0.116046
H14   H     H_    0.719056 0.967552 0.386894 0.250457
H15   H     H_    0.796455 0.908541 0.448660 0.249966
H16   H     H_    0.782211 0.944424 0.334128 0.265352
H17   H     H_    0.409210 0.585808 0.476631 0.208161
H18   H     H_    0.416795 0.676593 0.540124 0.262657
H19   H     H_    0.501521 0.672080 0.509122 0.261156
H20   H     H_    0.539542 0.667212 0.649499 0.251402
H21   H     H_    0.365139 0.497280 0.556064 0.189183
H22   H     H_    0.221580 0.475519 0.388496 0.250420
H23   H     H_    0.292917 0.413747 0.444326 0.251626
H24   H     H_    0.467294 0.426321 0.541097 0.115433
H25   H     H_    0.283189 0.451778 0.334346 0.267173
H26   H     H_    0.066927 0.751389 0.821833 0.144346
H27   H     H_    0.070217 0.247898 0.820259 0.147536
H28   H     H_    0.568192 0.252321 0.821368 0.144908
H29   H     H_    0.570465 0.747653 0.820136 0.149050
H30   H     H_    0.721384 0.139679 0.104267 0.154693
H31   H     H_    0.713695 0.861788 0.098618 0.154238
H32   H     H_    0.218443 0.639570 0.103780 0.155260
H33   H     H_    0.213771 0.361669 0.099032 0.154551
H34   H     H_    0.643070 0.215270 0.106569 0.152438
H35   H     H_    0.208756 0.985527 0.579055 0.160971
H36   H     H_    0.638027 0.784811 0.101973 0.152447
H37   H     H_    0.144660 0.716679 0.109351 0.151770
H38   H     H_    0.138699 0.284483 0.102769 0.152437
H39   H     H_    0.821288 0.921052 0.628159 0.182808
H40   H     H_    0.840909 0.848986 0.760553 0.265230
H41   H     H_    0.780766 0.826879 0.621768 0.249205
H42   H     H_    0.711949 0.844231 0.669967 0.248614
H43   H     H_    0.681628 0.123319 0.630865 0.132730
H44   H     H_    0.740785 0.133986 0.528732 0.230615
H45   H     H_    0.822641 0.078216 0.601772 0.258650
H46   H     H_    0.135532 0.924905 0.533050 0.155620
H47   H     H_    0.847735 0.145891 0.662871 0.250327
H48   H     H_    0.325210 0.418532 0.632328 0.181201
H49   H     H_    0.337663 0.346661 0.760797 0.265290
H50   H     H_    0.277087 0.325346 0.621550 0.249911
H51   H     H_    0.208435 0.345125 0.668747 0.248242
H52   H     H_    0.283456 0.630692 0.715080 0.165838
H53   H     H_    0.250778 0.641291 0.530151 0.247379
H54   H     H_    0.276675 0.568776 0.541454 0.261237
H55   H     H_    0.364585 0.616390 0.641275 0.265477
H56   H     H_    0.024383 0.090189 0.739146 0.131887
H57   H     H_    0.710926 0.481718 0.579793 0.160819
H58   H     H_    0.014616 0.911602 0.722989 0.093592
H59   H     H_    0.530509 0.589659 0.745115 0.124581
H60   H     H_    0.517466 0.411449 0.726114 0.093377
H61   H     H_    0.633695 0.422870 0.531587 0.155085
H62   H     H_    0.195868 0.997125 0.720801 0.170282
H63   H     H_    0.138214 0.931270 0.685672 0.164016
H64   H     H_    0.700027 0.493688 0.723183 0.170262
H65   H     H_    0.931153 0.130714 0.176561 0.090008
H66   H     H_    0.638650 0.429030 0.685885 0.163821
H67   H     H_    0.645367 0.179720 0.821091 0.143059
H68   H     H_    0.647238 0.820903 0.820450 0.147419
H69   H     H_    0.145598 0.679353 0.821998 0.146348
H70   H     H_    0.147118 0.321142 0.820667 0.147470
H71   H     H_    0.616796 0.139451 0.897968 0.152689
H72   H     H_    0.613696 0.861074 0.892227 0.151771
H73   H     H_    0.115697 0.638721 0.897343 0.151823
H74   H     H_    0.113689 0.361223 0.892658 0.151822
H75   H     H_    0.536501 0.214599 0.898059 0.152809
H76   H     H_    0.430368 0.370341 0.177011 0.086959
H77   H     H_    0.534962 0.784941 0.893056 0.152101
H78   H     H_    0.037230 0.714029 0.900725 0.153409
H79   H     H_    0.035202 0.285033 0.893803 0.152633
H80   H     H_    0.303071 0.734789 0.927675 0.153844
H81   H     H_    0.305003 0.266352 0.931066 0.158358
H82   H     H_    0.801344 0.237189 0.925908 0.155343
H83   H     H_    0.805003 0.765988 0.931253 0.158463
H84   H     H_    0.752025 0.130380 0.824499 0.096209
H85   H     H_    0.746598 0.879428 0.825987 0.118744
H86   H     H_    0.246939 0.623523 0.826337 0.083863
H87   H     H_    0.431632 0.630279 0.177232 0.087777
H88   H     H_    0.246256 0.380077 0.826287 0.119265
H89   H     H_    0.221734 0.808124 0.922637 0.153897
H90   H     H_    0.225593 0.192168 0.927888 0.154077
H91   H     H_    0.721887 0.310308 0.925039 0.154189
H92   H     H_    0.725721 0.691859 0.928535 0.154273
H93   H     H_    0.827971 0.179368 0.180033 0.146058
H94   H     H_    0.822275 0.824123 0.178923 0.143365
H95   H     H_    0.326824 0.677457 0.180780 0.145962
H96   H     H_    0.322524 0.324163 0.179139 0.143160
H97   H     H_    0.254836 0.753212 0.180032 0.147775
H98   H     H_    0.008345 0.088737 0.425043 0.163113
H99   H     H_    0.249532 0.248526 0.178624 0.144636
H100  H     H_    0.752264 0.252843 0.179793 0.147418
H101  H     H_    0.748756 0.748761 0.178478 0.144948
H102  H     H_    0.375879 0.735547 0.074441 0.153591
H103  H     H_    0.376232 0.266341 0.077784 0.151781
H104  H     H_    0.875847 0.237304 0.072738 0.153969
H105  H     H_    0.876197 0.766166 0.077971 0.152044
H106  H     H_    0.297305 0.810309 0.069500 0.154241
H107  H     H_    0.298529 0.191518 0.074834 0.153290
H108  H     H_    0.796969 0.310743 0.071989 0.154974
H109  H     H_    0.904019 0.003513 0.356168 0.173731
H110  H     H_    0.798398 0.691526 0.075478 0.153700
H111  H     H_    0.438036 0.909753 0.404487 0.151932
H112  H     H_    0.448222 0.082280 0.324468 0.145254
H113  H     H_    0.942455 0.408494 0.391329 0.149137
H114  H     H_    0.946261 0.586770 0.343415 0.146180
H115  H     H_    0.459518 0.926874 0.304650 0.157755
H116  H     H_    0.472362 0.027020 0.265484 0.159780
H117  H     H_    0.962029 0.435296 0.294901 0.159060
H118  H     H_    0.967022 0.538262 0.270325 0.159926
H119  H     H_    0.617000 0.931345 0.441843 0.169574
H120  H     H_    0.517812 0.589588 0.432789 0.162890
H121  H     H_    0.629366 0.033927 0.410045 0.158864
H122  H     H_    0.120248 0.436894 0.432868 0.166472
H123  H     H_    0.124098 0.541898 0.409545 0.156933
H124  H     H_    0.590244 0.910251 0.535529 0.170368
H125  H     H_    0.598844 0.085489 0.468663 0.165921
H126  H     H_    0.094305 0.409752 0.523630 0.176262
H127  H     H_    0.098250 0.588413 0.481758 0.187912
H128  H     H_    0.401915 0.986744 0.491855 0.153855
H129  H     H_    0.412594 0.057905 0.466382 0.148861
H130  H     H_    0.909503 0.475961 0.497411 0.153081
H131  H     H_    0.407712 0.506960 0.360660 0.173425
H132  H     H_    0.913596 0.549245 0.481090 0.150544
H133  H     H_    0.557098 0.983758 0.630795 0.154044
H134  H     H_    0.564307 0.055993 0.609343 0.143750
H135  H     H_    0.065750 0.475741 0.633885 0.152028
H136  H     H_    0.068455 0.549193 0.618604 0.152128
H137  H     H_    0.066201 0.089227 0.328097 0.088897
H138  H     H_    0.060657 0.912010 0.332038 0.083585
H139  H     H_    0.567432 0.589069 0.328800 0.088429
H140  H     H_    0.561338 0.411943 0.332246 0.083480
H141  H     H_    0.287822 0.910061 0.264828 0.092091
H142  H     H_    0.106396 0.084953 0.656685 0.116102
H143  H     H_    0.291608 0.088642 0.268710 0.086989
H144  H     H_    0.788834 0.410182 0.270499 0.090410
H145  H     H_    0.791332 0.588925 0.274409 0.087032
H146  H     H_    0.017053 0.835256 0.824198 0.090445
H147  H     H_    0.015170 0.165943 0.824358 0.089592
H148  H     H_    0.515725 0.335009 0.824281 0.090885
H149  H     H_    0.514308 0.666072 0.824318 0.093817
H150  H     H_    0.192132 0.165490 0.175543 0.083639
H151  H     H_    0.190990 0.833887 0.175656 0.084473
H152  H     H_    0.692396 0.665404 0.175603 0.082549
N1    N     N_R   0.950530 0.896220 0.057200 -0.036332
N2    N     N_R   0.818150 0.028600 0.792440 -0.065362
N3    N     N_R   0.318150 0.471400 0.792440 -0.066701
N4    N     N_R   0.318150 0.528600 0.792440 -0.075786
N5    N     N_R   0.025710 0.028600 0.207560 -0.032850
N6    N     N_R   0.025710 0.971400 0.207560 -0.032221
N7    N     N_R   0.525710 0.528600 0.207560 -0.032429
N8    N     N_R   0.525710 0.471400 0.207560 -0.031971
N9    N     N_R   0.181850 0.971400 0.207560 -0.035159
N10   N     N_R   0.181850 0.028600 0.207560 -0.034840
N11   N     N_R   0.681850 0.471400 0.207560 -0.034520
N12   N     N_R   0.950530 0.103780 0.057200 -0.037212
N13   N     N_R   0.681850 0.528600 0.207560 -0.034306
N14   N     N_R   0.974290 0.028600 0.792440 -0.036519
N15   N     N_R   0.974290 0.971400 0.792440 -0.040251
N16   N     N_R   0.474290 0.528600 0.792440 -0.035563
N17   N     N_R   0.474290 0.471400 0.792440 -0.039231
N18   N     N_R   0.049470 0.896220 0.942800 -0.028488
N19   N     N_R   0.049470 0.103780 0.942800 -0.029795
N20   N     N_R   0.549470 0.396220 0.942800 -0.028050
N21   N     N_R   0.549470 0.603780 0.942800 -0.031792
N22   N     N_R   0.106670 0.103780 0.057200 -0.032515
N23   N     N_R   0.450530 0.396220 0.057200 -0.036248
N24   N     N_R   0.106670 0.896220 0.057200 -0.031968
N25   N     N_R   0.606670 0.603780 0.057200 -0.031376
N26   N     N_R   0.606670 0.396220 0.057200 -0.032065
N27   N     N_2   0.959026 0.095510 0.543648 -0.106427
N28   N     N_2   0.863499 0.986254 0.486023 -0.109506
N29   N     N_2   0.469128 0.596813 0.551715 -0.105616
N30   N     N_2   0.367423 0.489178 0.490928 -0.110383
N31   N     N_2   0.771186 0.911452 0.640870 -0.111164
N32   N     N_2   0.743418 0.102301 0.660763 -0.114188
N33   N     N_2   0.273452 0.410256 0.642965 -0.110558
N34   N     N_R   0.450530 0.603780 0.057200 -0.034851
N35   N     N_2   0.254153 0.600916 0.655377 -0.122282
N36   N     N_R   0.893330 0.103780 0.942800 -0.029740
N37   N     N_R   0.893330 0.896220 0.942800 -0.034799
N38   N     N_R   0.393330 0.603780 0.942800 -0.037769
N39   N     N_R   0.393330 0.396220 0.942800 -0.033908
N40   N     N_R   0.818150 0.971400 0.792440 -0.068817
Ni1   Ni    Ni4+2 0.065600 0.934400 0.131190 0.205479
Ni2   Ni    Ni4+2 0.065600 0.065600 0.131190 0.205533
Ni3   Ni    Ni4+2 0.565600 0.434400 0.131190 0.206724
Ni4   Ni    Ni4+2 0.565600 0.565600 0.131190 0.206094
Ni5   Ni    Ni4+2 0.934400 0.065600 0.868810 0.220088
Ni6   Ni    Ni4+2 0.934400 0.934400 0.868810 0.204357
Ni7   Ni    Ni4+2 0.434400 0.565600 0.868810 0.204477
Ni8   Ni    Ni4+2 0.434400 0.434400 0.868810 0.206086

loop_
_geom_bond_atom_site_label_1
_geom_bond_atom_site_label_2
_ccdc_geom_bond_type
C17   H11   S    
C8    C26   A    
C70   H30   S    
N6    Ni1   S    
C79   C87   S    
C2    H151  S    
N34   N38   A    
C35   H4    S    
N18   Ni6   S    
C51   C118  A    
C60   C62   S    
C106  H132  S    
C4    C96   A    
C45   C56   S    
C70   C74   S    
C96   N31   S    
C41   C49   S    
C65   H102  S    
C9    C26   A    
C31   C77   A    
C45   C47   S    
N7    Ni4   S    
C44   H76   S    
C68   H82   S    
C40   N28   S    
C13   H152  S    
C88   H148  S    
C56   H64   S    
C17   H9    S    
C20   N30   S    
C82   C91   S    
C21   N31   S    
C93   C102  S    
C78   C120  S    
C61   H26   S    
C24   C32   A    
C105  H128  S    
C32   C81   S    
C89   H99   S    
C43   C54   S    
C5    C100  A    
C11   C27   A    
N3    Ni8   S    
C104  H127  S    
N39   Ni8   S    
C13   N25   A    
C34   C99   A    
C111  C113  S    
C85   H108  S    
C67   H103  S    
N10   Ni2   S    
C83   H89   S    
C81   C90   S    
C105  C112  S    
C12   C28   A    
C58   H72   S    
C59   H69   S    
N1    N37   A    
C43   H46   S    
C40   C48   S    
C88   N20   A    
N16   Ni7   S    
C3    C52   A    
C71   H94   S    
C40   H2    S    
C106  H130  S    
C16   C29   A    
C27   C108  S    
C31   C110  A    
C52   N38   A    
C53   N39   A    
C57   H67   S    
C95   C108  S    
C73   C89   S    
C25   H53   S    
N5    Ni2   S    
C72   H95   S    
C23   H51   S    
C60   H70   S    
C54   H63   S    
C102  C109  S    
N1    Ni1   S    
C10   C27   A    
C4    C109  S    
C25   N35   S    
C15   H59   S    
C16   N17   A    
C7    C117  A    
C53   H88   S    
C41   H13   S    
C29   C49   S    
C59   H73   S    
C105  C107  S    
C60   C78   S    
N18   N24   A    
C62   C80   S    
C62   H79   S    
N38   Ni7   S    
C68   C74   S    
C32   C88   A    
C6    C114  A    
C12   N14   A    
C3    C55   A    
C73   H96   S    
C36   C46   S    
C37   C47   S    
C90   H100  S    
N2    N40   A    
C12   H56   S    
C113  H136  S    
N5    N6    A    
C98   N33   S    
C68   C85   S    
N15   Ni6   S    
C68   H104  S    
C85   H91   S    
N21   Ni7   S    
C57   C63   S    
C93   H116  S    
C58   C64   S    
C59   C61   S    
C106  C113  S    
H48   N33   S    
C11   N13   A    
C110  H150  S    
C24   H3    S    
C87   H37   S    
C7    C116  A    
C67   H81   S    
C22   H44   S    
N37   Ni6   S    
C25   H55   S    
C94   H117  S    
C112  H134  S    
C23   H49   S    
C14   H58   S    
C116  H139  S    
H43   N32   S    
C115  N6    A    
C19   H19   S    
N40   Ni6   S    
C30   C79   S    
C72   C87   S    
C37   H6    S    
C28   C48   S    
C21   H42   S    
H12   N28   S    
C17   H10   S    
C50   N36   A    
C51   H85   S    
N2    Ni5   S    
C33   C119  A    
C104  H123  S    
C55   H87   S    
C64   H29   S    
C2    C30   A    
C91   H36   S    
N11   Ni3   S    
N12   N36   A    
C106  C108  S    
C61   C79   S    
N17   Ni8   S    
C9    N10   A    
C18   H14   S    
C37   C41   S    
C114  H137  S    
C1    H1    S    
N14   Ni5   S    
C39   N27   S    
C34   C82   S    
C8    H141  S    
C84   H107  S    
C59   C76   S    
C81   C85   S    
C16   H60   S    
C83   H106  S    
C17   N27   S    
C18   N28   S    
C101  H119  S    
N20   N26   A    
N3    N4    A    
C80   C84   S    
C53   C120  A    
C45   H61   S    
C31   C80   S    
C110  N22   A    
C65   C76   S    
C100  N4    A    
C86   H92   S    
C57   H71   S    
C117  N8    A    
N36   Ni5   S    
C84   H90   S    
C44   C120  A    
C101  C109  S    
C103  H122  S    
C103  C111  S    
C80   C89   S    
C101  H124  S    
C114  N5    A    
C100  N35   S    
C71   H31   S    
C36   H109  S    
C72   H32   S    
N7    N8    A    
H17   N29   S    
C95   H114  S    
C90   H34   S    
C97   N2    A    
C33   N12   A    
C64   H77   S    
C20   H23   S    
C102  H125  S    
C43   H35   S    
C15   C29   A    
H21   N30   S    
C86   H110  S    
C2    N24   A    
C117  H140  S    
C37   H120  S    
C92   H111  S    
C82   C86   S    
C99   H149  S    
C7    C47   S    
C10   N11   A    
N26   Ni3   S    
C35   C39   S    
C65   H80   S    
N13   Ni4   S    
C15   N16   A    
C97   N32   S    
H39   N31   S    
C92   C101  S    
C96   N40   A    
C22   H47   S    
C93   H112  S    
C56   H66   S    
C94   C103  S    
C42   H24   S    
C21   H40   S    
C63   H75   S    
C23   N33   S    
H8    N27   S    
C70   H93   S    
N25   Ni4   S    
C99   N21   A    
C39   H142  S    
C69   H105  S    
C61   H78   S    
C94   H113  S    
N12   Ni2   S    
C92   H115  S    
N4    Ni7   S    
C105  H129  S    
C13   C34   A    
C79   C83   S    
H52   N35   S    
C69   C75   S    
N21   N25   A    
C6    C115  A    
C98   N3    A    
C71   C91   S    
C20   H25   S    
C33   H65   S    
N20   Ni8   S    
C35   C46   S    
C39   C48   S    
C51   N37   A    
C113  H135  S    
N11   N13   A    
C22   N32   S    
C36   H5    S    
C72   C76   S    
C38   H7    S    
C60   H74   S    
C89   H38   S    
C48   C54   S    
C74   C119  S    
C94   C108  S    
C63   C81   S    
C52   H86   S    
C38   C42   S    
C19   H18   S    
N14   N15   A    
C65   C83   S    
N22   Ni2   S    
C22   H45   S    
C25   H54   S    
N23   N39   A    
C19   H20   S    
C44   N23   A    
C73   C78   S    
C54   H62   S    
C91   H101  S    
C1    N1    A    
C66   H146  S    
C45   H57   S    
C67   C84   S    
C70   C90   S    
C67   C78   S    
N9    Ni1   S    
C43   C46   S    
C58   C75   S    
C103  H126  S    
C21   H41   S    
C58   H68   S    
C50   C119  A    
C20   H22   S    
C36   C40   S    
N19   N22   A    
C109  C112  S    
C41   N29   S    
C5    C111  S    
N9    N10   A    
C77   H147  S    
C95   H118  S    
C57   C74   S    
C24   N26   A    
C92   C107  S    
C38   H131  S    
C14   N15   A    
N23   Ni3   S    
C19   N29   S    
C11   H145  S    
C18   H15   S    
N19   Ni5   S    
C102  H121  S    
C18   H16   S    
C3    C76   S    
C64   C82   S    
C38   C47   S    
C30   C66   A    
C69   H83   S    
C62   H27   S    
C75   C118  S    
C35   H98   S    
C63   H28   S    
C95   C104  S    
C42   N30   S    
N24   Ni1   S    
C6    C46   S    
C116  N7    A    
C115  H138  S    
C26   C107  S    
C77   N19   A    
C104  C111  S    
C50   H84   S    
C49   C56   S    
N34   Ni4   S    
N16   N17   A    
C93   C107  S    
C71   C75   S    
C8    N9    A    
C112  H133  S    
C23   H50   S    
N8    Ni3   S    
C9    H143  S    
C10   H144  S    
C1    C118  A    
C87   H97   S    
C55   N34   A    
C42   C49   S    
C5    C98   A    
C66   N18   A    
C73   H33   S    
C14   C28   A    
C4    C97   A    
C69   C86   S    
