data_mof_unit_27953.cif
_audit_creation_date              2012-12-10T20:55:43-0500
_audit_creation_method            fapswitch 2.2
_symmetry_space_group_name_H-M    P1
_symmetry_Int_Tables_number       1
_space_group_crystal_system       triclinic
_cell_length_a                    15.864442
_cell_length_b                    15.051114
_cell_length_c                    10.801955
_cell_angle_alpha                 90.015519
_cell_angle_beta                  89.942893
_cell_angle_gamma                 89.882246
_cell_volume                      2579.25725664

loop_
_atom_site_label
_atom_site_type_symbol
_atom_type_description
_atom_site_fract_x
_atom_site_fract_y
_atom_site_fract_z
_atom_type_partial_charge
C1    C     C_1   0.250882 0.500419 0.497243 -0.105420
C2    C     C_1   0.749024 0.499781 0.504614 -0.102276
C3    C     C_R   0.499160 0.500281 0.873404 -0.115958
C4    C     C_R   0.500992 0.500271 0.126583 -0.114353
C5    C     C_R   0.500008 0.905063 0.500458 -0.046564
C6    C     C_R   0.500250 0.094880 0.499986 -0.060403
C7    C     C_R   0.424935 0.952798 0.474337 -0.061524
C8    C     C_R   0.574856 0.047148 0.527754 -0.050989
C9    C     C_R   0.575156 0.952445 0.526240 -0.053426
C10   C     C_R   0.425593 0.047548 0.472445 -0.063067
C11   C     C_R   0.955396 0.582327 0.506576 -0.096362
C12   C     C_R   0.044364 0.418465 0.501293 -0.084122
C13   C     C_R   0.043587 0.582441 0.495888 -0.086582
C14   C     C_R   0.956174 0.418322 0.510971 -0.084130
C15   C     C_R   0.338976 0.500107 0.499724 0.918754
C16   C     C_R   0.661005 0.499919 0.500223 0.918310
C17   C     C_R   0.500539 0.500020 0.259273 0.910812
C18   C     C_R   0.499523 0.500035 0.740724 0.911333
C19   C     C_R   0.912906 0.500238 0.513220 -0.019382
C20   C     C_R   0.086856 0.500483 0.493395 -0.019541
C21   C     C_1   0.500099 0.806990 0.500203 0.325186
C22   C     C_1   0.500135 0.192993 0.500029 0.229964
C23   C     C_1   0.823628 0.499906 0.509138 0.038511
C24   C     C_1   0.176207 0.500637 0.494924 0.039604
C25   C     C_R   0.450206 0.660280 0.107720 -0.070861
C26   C     C_R   0.447252 0.340882 0.895071 -0.049775
C27   C     C_R   0.550819 0.659741 0.892543 -0.058004
C28   C     C_R   0.552720 0.340600 0.104677 -0.051099
C29   C     C_R   0.473761 0.742251 0.052380 -0.154321
C30   C     C_R   0.470535 0.258862 0.950566 -0.260703
C31   C     C_R   0.528575 0.741827 0.948773 -0.274805
C32   C     C_R   0.529569 0.258713 0.048890 -0.265426
C33   C     C_R   0.513866 0.580652 0.939420 0.039100
C34   C     C_R   0.514916 0.420025 0.059842 0.036923
C35   C     C_R   0.486645 0.580782 0.060629 0.020250
C36   C     C_R   0.485033 0.420128 0.940082 0.035485
N1    N     N_1   0.500000 0.270550 0.500000 -0.055542
N2    N     N_1   0.500000 0.729450 0.500000 -0.051384
O1    O     O_R   0.378020 0.573650 0.500040 -0.589847
O2    O     O_R   0.621980 0.426350 0.499960 -0.589850
O3    O     O_R   0.621980 0.573650 0.499960 -0.585274
O4    O     O_R   0.378020 0.426350 0.500040 -0.588392
O5    O     O_R   0.499990 0.573670 0.316780 -0.631420
O6    O     O_R   0.500010 0.426330 0.683220 -0.633247
O7    O     O_R   0.500010 0.573670 0.683220 -0.624270
O8    O     O_R   0.499990 0.426330 0.316780 -0.631604
Zn1   Zn    Zn3+2 0.500000 0.598370 0.500000 1.083284
Zn2   Zn    Zn3+2 0.500000 0.401630 0.500000 1.066633
C37   C     C_2   0.090944 0.667935 0.493041 0.981625
O9    O     O_2   0.146399 0.679677 0.416048 -0.588692
O10   O     O_R   0.071976 0.734717 0.578750 -0.755272
H1    H     H_    0.107943 0.789681 0.567096 0.366266
C38   C     C_2   0.908866 0.332752 0.512407 0.977771
O11   O     O_2   0.852469 0.320846 0.587850 -0.582223
O12   O     O_R   0.929009 0.266081 0.427095 -0.750035
H2    H     H_    0.893077 0.210997 0.437732 0.367276
C39   C     C_2   0.907111 0.667519 0.504684 0.993640
O13   O     O_2   0.851288 0.680909 0.580676 -0.581860
O14   O     O_R   0.925419 0.732008 0.415504 -0.749842
H3    H     H_    0.888432 0.786715 0.423749 0.377639
C40   C     C_2   0.092469 0.333267 0.505447 0.978037
O15   O     O_2   0.148283 0.318690 0.429892 -0.583469
O16   O     O_R   0.073679 0.269994 0.596100 -0.749508
H4    H     H_    0.110128 0.214828 0.589144 0.369013
C41   C     C_2   0.564276 0.173020 0.094734 1.032057
O17   O     O_2   0.638542 0.155436 0.077797 -0.474427
O18   O     O_R   0.513134 0.111671 0.156173 -0.728662
H5    H     H_    0.453463 0.134110 0.168601 0.324332
C42   C     C_2   0.561174 0.827527 0.900243 1.085481
O19   O     O_2   0.539550 0.852934 0.797812 -0.513738
O20   O     O_R   0.613857 0.881225 0.971787 -0.683662
H6    H     H_    0.628334 0.853422 0.054534 0.321465
C43   C     C_2   0.436134 0.173325 0.904183 1.015367
O21   O     O_2   0.362059 0.155468 0.921695 -0.488905
O22   O     O_R   0.487366 0.112443 0.841543 -0.705272
H7    H     H_    0.546841 0.135108 0.828772 0.331883
C44   C     C_2   0.443760 0.828530 0.102263 1.001102
O23   O     O_2   0.460868 0.849747 0.208486 -0.598750
O24   O     O_R   0.399466 0.887079 0.025680 -0.713189
H8    H     H_    0.384071 0.944528 0.069332 0.394981
C45   C     C_2   0.347373 0.098419 0.447472 0.923495
O25   O     O_2   0.316082 0.097644 0.344115 -0.542390
O26   O     O_R   0.311526 0.149801 0.541567 -0.723564
H9    H     H_    0.259469 0.183053 0.513013 0.374419
C46   C     C_2   0.654822 0.902290 0.546382 0.967518
O27   O     O_2   0.679721 0.850126 0.467522 -0.597049
O28   O     O_R   0.700156 0.912988 0.656189 -0.671701
H10   H     H_    0.752601 0.874438 0.659104 0.383512
C47   C     C_2   0.653314 0.097436 0.552849 0.910392
O29   O     O_2   0.687947 0.091431 0.653513 -0.522657
O30   O     O_R   0.685657 0.154216 0.462286 -0.728342
H11   H     H_    0.738099 0.186567 0.490895 0.371797
C48   C     C_2   0.345251 0.902823 0.453677 0.982764
O31   O     O_2   0.301176 0.918789 0.363619 -0.514385
O32   O     O_R   0.321631 0.836032 0.536643 -0.769386
H12   H     H_    0.267224 0.805700 0.511861 0.375134
C49   C     C_2   0.374991 0.653898 0.190953 0.975234
O33   O     O_2   0.355989 0.714423 0.261109 -0.565281
O34   O     O_R   0.325485 0.577101 0.188169 -0.788129
H13   H     H_    0.275740 0.580348 0.246968 0.366576
C50   C     C_2   0.375122 0.346489 0.806882 0.976189
O35   O     O_2   0.362704 0.287704 0.730980 -0.566372
O36   O     O_R   0.322004 0.420733 0.810027 -0.790995
H14   H     H_    0.274934 0.417084 0.746855 0.344252
C51   C     C_2   0.625254 0.652889 0.808038 0.950774
O37   O     O_2   0.642582 0.712595 0.735764 -0.577648
O38   O     O_R   0.675709 0.576603 0.811733 -0.787508
H15   H     H_    0.724972 0.579638 0.752083 0.366735
C52   C     C_2   0.624773 0.345876 0.192983 0.975193
O39   O     O_2   0.637069 0.287053 0.268892 -0.564699
O40   O     O_R   0.677918 0.419871 0.190013 -0.792838
H16   H     H_    0.724842 0.416072 0.253426 0.344304

loop_
_geom_bond_atom_site_label_1
_geom_bond_atom_site_label_2
_ccdc_geom_bond_type
C7    C10   A    
O28   H10   S    
C48   O31   D    
O32   H12   S    
C43   O21   D    
O40   H16   S    
O12   H2    S    
C45   O25   D    
C44   O23   D    
C27   C33   A    
C51   O38   S    
C11   C19   A    
C50   O35   D    
C52   O40   S    
C26   C50   S    
C39   O14   S    
C3    C33   A    
C6    C22   S    
C3    C18   S    
C40   O16   S    
O7    Zn1   S    
C42   O20   S    
C49   O34   S    
C21   N2    T    
C20   C24   S    
C8    C9    A    
C41   O18   S    
O38   H15   S    
C1    C15   S    
C47   O30   S    
C2    C16   S    
C9    C46   S    
C38   O12   S    
C4    C35   A    
C28   C34   A    
O14   H3    S    
C48   O32   S    
C43   O22   S    
C42   O19   D    
C45   O26   S    
C49   O33   D    
O8    Zn2   S    
C44   O24   S    
C25   C29   A    
C7    C48   S    
C4    C34   A    
C46   O28   S    
C27   C31   A    
O18   H5    S    
C28   C32   A    
C17   O8    A    
O30   H11   S    
C5    C7    A    
C30   C43   S    
C6    C8    A    
C37   O10   S    
C46   O27   D    
C22   N1    T    
O10   H1    S    
C19   C23   S    
O22   H7    S    
C17   O5    A    
C5    C9    A    
C18   O6    A    
O26   H9    S    
C12   C20   A    
O3    Zn1   S    
C5    C21   S    
O4    Zn2   S    
N1    Zn2   S    
C15   O1    A    
N2    Zn1   S    
C16   O2    A    
C13   C37   S    
C4    C17   S    
C26   C36   A    
C25   C35   A    
C26   C30   A    
C18   O7    A    
O36   H14   S    
O1    Zn1   S    
C25   C49   S    
O2    Zn2   S    
C13   C20   A    
C14   C19   A    
C15   O4    A    
C12   C14   A    
O16   H4    S    
C6    C10   A    
C38   O11   D    
C28   C52   S    
C51   O37   D    
C10   C45   S    
O34   H13   S    
O20   H6    S    
C29   C31   A    
C52   O39   D    
C30   C32   A    
C12   C40   S    
C11   C13   A    
C39   O13   D    
C3    C36   A    
C33   C35   A    
C34   C36   A    
C41   O17   D    
C40   O15   D    
O24   H8    S    
C31   C42   S    
C14   C38   S    
C29   C44   S    
C1    C24   T    
C50   O36   S    
C37   O9    D    
C2    C23   T    
C27   C51   S    
C8    C47   S    
C47   O29   D    
C11   C39   S    
O5    Zn1   S    
C16   O3    A    
O6    Zn2   S    
C32   C41   S    
