data_mof_unit_12821.cif
_audit_creation_date              2012-12-11T15:23:40-0500
_audit_creation_method            fapswitch 2.2
_symmetry_space_group_name_H-M    P1
_symmetry_Int_Tables_number       1
_space_group_crystal_system       triclinic
_cell_length_a                    6.935644
_cell_length_b                    17.471096
_cell_length_c                    19.295434
_cell_angle_alpha                 109.534303
_cell_angle_beta                  90.058635
_cell_angle_gamma                 90.664829
_cell_volume                      2203.33618881

loop_
_atom_site_label
_atom_site_type_symbol
_atom_type_description
_atom_site_fract_x
_atom_site_fract_y
_atom_site_fract_z
_atom_type_partial_charge
O1    O     O_R   0.505810 0.439670 0.562310 -0.538523
O2    O     O_R   0.169070 0.404920 0.411210 -0.540864
O3    O     O_R   0.005550 0.560330 0.437690 -0.539125
C1    C     C_R   0.338399 0.381403 0.383005 0.677574
O4    O     O_R   0.175650 0.430000 0.560110 -0.542164
O5    O     O_R   0.012170 0.585580 0.587650 -0.537649
C2    C     C_R   0.344346 0.415148 0.581965 0.706036
O6    O     O_R   0.499180 0.414420 0.412350 -0.537410
O7    O     O_3   0.341430 0.551020 0.508860 -0.368290
V1    V     V_3+5 0.063930 0.490540 0.498360 1.399076
O8    O     O_R   0.682850 0.595080 0.588790 -0.543455
C3    C     C_R   0.852601 0.618251 0.616950 0.686777
O9    O     O_R   0.676280 0.570000 0.439890 -0.541371
C4    C     C_R   0.845500 0.585175 0.418457 0.711297
V2    V     V_3+5 0.564760 0.509460 0.501640 1.399974
O10   O     O_3   0.837130 0.448980 0.491140 -0.367817
C5    C     C_R   0.048091 0.868860 0.180932 -0.271234
C6    C     C_R   0.911670 0.857670 0.124494 -0.116207
C7    C     C_R   0.766071 0.796068 0.112834 0.088737
C8    C     C_R   0.751492 0.751843 0.162967 0.074786
C9    C     C_R   0.890200 0.765369 0.220020 0.014490
C10   C     C_R   0.041356 0.822242 0.227383 0.094122
C11   C     C_R   0.603365 0.693700 0.157629 -0.186139
C12   C     C_R   0.588720 0.652919 0.208458 -0.192026
C13   C     C_R   0.725746 0.665972 0.264437 0.099509
C14   C     C_R   0.879572 0.721083 0.269548 0.059937
C15   C     C_R   0.023309 0.731641 0.324028 0.094445
C16   C     C_R   0.175549 0.786800 0.329142 -0.184602
C17   C     C_R   0.183483 0.832226 0.281722 -0.171274
C18   C     C_R   0.712949 0.623685 0.314606 -0.222307
C19   C     C_R   0.856442 0.633181 0.368308 -0.084080
C20   C     C_R   0.012472 0.686681 0.372269 -0.224059
H1    H     H_    0.160539 0.914732 0.188936 0.127307
H2    H     H_    0.495622 0.678747 0.114728 0.135970
H3    H     H_    0.470918 0.609989 0.203193 0.125719
H4    H     H_    0.123718 0.694189 0.413633 0.124161
H5    H     H_    0.287712 0.795368 0.370282 0.128036
H6    H     H_    0.301597 0.875079 0.287375 0.125377
C21   C     C_3   0.802375 0.814803 0.742783 0.185372
C22   C     C_3   0.971980 0.769338 0.695592 -0.148040
H7    H     H_    0.042356 0.785139 0.650427 0.101424
C23   C     C_3   0.867237 0.688444 0.687587 -0.030876
C24   C     C_3   0.696535 0.733816 0.733846 -0.122154
C25   C     C_3   0.798802 0.730431 0.804316 -0.177353
C26   C     C_3   0.968813 0.684018 0.757219 -0.130334
C27   C     C_3   0.073337 0.765769 0.766185 -0.148991
C28   C     C_3   0.903260 0.811400 0.812558 -0.054039
H8    H     H_    0.541692 0.720372 0.719978 0.105860
H9    H     H_    0.728573 0.714762 0.849578 0.103270
H10   H     H_    0.037331 0.629146 0.762588 0.102789
H11   H     H_    0.228146 0.779269 0.780106 0.114816
C29   C     C_3   0.482179 0.236279 0.304717 -0.132386
C30   C     C_3   0.321527 0.180627 0.257456 -0.138185
H12   H     H_    0.269693 0.122790 0.263405 0.096905
H13   H     H_    0.561053 0.224978 0.350380 0.101802
C31   C     C_3   0.414627 0.189235 0.187802 -0.010822
C32   C     C_3   0.575090 0.244119 0.234293 -0.119127
C33   C     C_3   0.449579 0.319483 0.242454 -0.138610
C34   C     C_3   0.288925 0.263828 0.195191 -0.131640
C35   C     C_3   0.196014 0.255988 0.265616 -0.118420
C36   C     C_3   0.356475 0.310873 0.312108 -0.011318
H14   H     H_    0.730635 0.238940 0.220570 0.102983
H15   H     H_    0.501420 0.377317 0.236500 0.096628
H16   H     H_    0.210055 0.275127 0.149526 0.101551
H17   H     H_    0.040467 0.261164 0.279337 0.102611
C37   C     C_R   0.270819 0.118202 0.814571 -0.212816
C38   C     C_R   0.417206 0.133813 0.868245 -0.084574
C39   C     C_R   0.551137 0.196931 0.874762 -0.207204
C40   C     C_R   0.537500 0.245054 0.829240 0.066819
C41   C     C_R   0.393111 0.227939 0.774537 0.044182
C42   C     C_R   0.259322 0.164056 0.767178 0.104914
C43   C     C_R   0.662700 0.311381 0.839087 -0.217615
C44   C     C_R   0.647873 0.361174 0.795115 0.143691
C45   C     C_R   0.510582 0.341124 0.736678 0.064739
C46   C     C_R   0.381258 0.274971 0.727526 0.006008
C47   C     C_R   0.236878 0.256573 0.672243 0.106644
C48   C     C_R   0.104793 0.193005 0.665645 -0.177994
C49   C     C_R   0.115412 0.147408 0.712829 -0.186197
C50   C     C_R   0.496711 0.385600 0.687695 -0.216208
C51   C     C_R   0.354802 0.366947 0.632222 -0.083917
C52   C     C_R   0.224297 0.302855 0.625297 -0.224454
H18   H     H_    0.167302 0.069475 0.809027 0.116574
H19   H     H_    0.662616 0.210023 0.916696 0.121772
H20   H     H_    0.770188 0.325696 0.882564 0.125644
H21   H     H_    0.594743 0.435586 0.692175 0.130913
H22   H     H_    0.113749 0.288663 0.582954 0.120808
H23   H     H_    0.992223 0.178798 0.624127 0.125922
H24   H     H_    0.011049 0.098904 0.706692 0.125714
O11   O     O_R   0.271890 0.085690 0.087580 -0.535760
O12   O     O_R   0.595690 0.070020 0.939870 -0.541676
O13   O     O_R   0.758900 0.914390 0.912370 -0.540254
C53   C     C_R   0.427113 0.084858 0.917910 0.705951
O14   O     O_R   0.602020 0.095100 0.088770 -0.539635
O15   O     O_R   0.765280 0.939660 0.062330 -0.534131
C54   C     C_R   0.432686 0.118673 0.116935 0.677974
O16   O     O_R   0.265520 0.060430 0.937620 -0.536305
O17   O     O_3   0.429560 0.949050 0.991100 -0.371422
V3    V     V_3+5 0.707160 0.009450 0.001650 1.390547
O18   O     O_R   0.094540 0.929890 0.060190 -0.547202
C55   C     C_R   0.924561 0.911885 0.079197 0.714280
O19   O     O_R   0.088200 0.904800 0.911290 -0.542551
C56   C     C_R   0.918360 0.881539 0.883241 0.672351
V4    V     V_3+5 0.206300 0.990390 0.998440 1.377406
O20   O     O_3   0.934030 0.050940 0.008900 -0.363355
C57   C     C_3   0.707353 0.890518 0.735998 -0.368031
C58   C     C_3   0.616404 0.873531 0.660264 -0.769340
H25   H     H_    0.727612 0.853353 0.616759 0.223861
H26   H     H_    0.502410 0.825828 0.650347 0.221539
H27   H     H_    0.549912 0.929845 0.657232 0.222683
H28   H     H_    0.593871 0.911238 0.778567 0.181355
H29   H     H_    0.817680 0.939650 0.745716 0.166492
C59   C     C_3   0.637499 0.773721 0.044681 -0.386347
C60   C     C_3   0.437887 0.811154 0.062224 -0.638028
H30   H     H_    0.450034 0.877439 0.091833 0.237969
H31   H     H_    0.356009 0.800439 0.010288 0.207154
H32   H     H_    0.354731 0.783722 0.097039 0.199290
H33   H     H_    0.703404 0.793030 0.000728 0.170661
H34   H     H_    0.624008 0.706722 0.019328 0.157269
C61   C     C_3   0.772863 0.437342 0.815249 -0.379760
C62   C     C_3   0.956017 0.423640 0.769470 -0.727706
H35   H     H_    0.045812 0.377846 0.782165 0.238840
H36   H     H_    0.921244 0.402433 0.709854 0.230089
H37   H     H_    0.040144 0.481295 0.783276 0.203276
H38   H     H_    0.691244 0.489089 0.809266 0.166681
H39   H     H_    0.815341 0.456485 0.874248 0.175554
H40   H     H_    0.594084 0.581476 0.310531 0.118462

loop_
_geom_bond_atom_site_label_1
_geom_bond_atom_site_label_2
_ccdc_geom_bond_type
C25   H9    S    
C31   C54   S    
O18   V4    S    
C57   H28   S    
C18   H40   S    
O19   C56   A    
C44   C61   S    
C10   C17   A    
C44   C45   A    
C7    C8    A    
C4    C19   S    
C1    O6    A    
O17   V3    S    
C32   H14   S    
C61   H38   S    
C62   H35   S    
C22   C27   S    
C34   H16   S    
C5    H1    S    
C20   H4    S    
C15   C16   A    
C16   C17   A    
C29   H13   S    
C29   C36   S    
O5    C3    A    
C59   H33   S    
C58   H25   S    
O15   V3    S    
V2    O10   S    
C53   O16   A    
C31   C32   S    
C6    C7    A    
C3    C23   S    
O8    V2    S    
C30   C35   S    
C19   C20   A    
C39   C40   A    
C17   H6    S    
C11   C12   A    
C41   C42   A    
O1    V2    S    
O7    V1    S    
C52   H22   S    
C25   C28   S    
C48   C49   A    
C60   H32   S    
C33   C36   S    
C22   C23   S    
C37   C38   A    
C57   H29   S    
C34   C35   S    
O19   V4    S    
C28   C56   S    
O9    C4    A    
O11   V4    S    
C6    C55   S    
C59   C60   S    
C9    C14   A    
C62   H36   S    
C12   H3    S    
C45   C46   A    
C38   C39   A    
C12   C13   A    
C21   C22   S    
O4    C2    A    
C51   C52   A    
C21   C24   S    
C13   C14   A    
C30   H12   S    
C27   H11   S    
C35   C36   S    
C23   C26   S    
O11   C54   A    
C40   C43   A    
O2    C1    A    
C46   C47   A    
C37   H18   S    
O12   C53   A    
C37   C42   A    
C8    C11   A    
O15   C55   A    
C61   C62   S    
C11   H2    S    
C5    C6    A    
C14   C15   A    
C43   H20   S    
C47   C48   A    
O17   V4    S    
O3    C4    A    
C61   H39   S    
C22   H7    S    
C35   H17   S    
O6    V2    S    
C45   C50   A    
O9    V2    S    
C24   C25   S    
C23   C24   S    
O13   C56   A    
O2    V1    S    
C50   H21   S    
C29   C30   S    
C21   C28   S    
C60   H30   S    
C24   H8    S    
C30   C31   S    
C49   H24   S    
C13   C18   A    
C21   C57   S    
C27   C28   S    
C15   C20   A    
O1    C2    A    
C39   H19   S    
C25   C26   S    
C33   H15   S    
C43   C44   A    
C47   C52   A    
O5    V1    S    
O8    C3    A    
C62   H37   S    
C57   C58   S    
C5    C10   A    
C31   C34   S    
C33   C34   S    
O4    V1    S    
O3    V1    S    
V1    O10   S    
O18   C55   A    
C59   H34   S    
C32   C33   S    
C18   C19   A    
C58   H26   S    
C16   H5    S    
V3    O20   S    
C1    C36   S    
C38   C53   S    
O13   V3    S    
O7    V2    S    
C40   C41   A    
C29   C32   S    
C50   C51   A    
C26   C27   S    
C8    C9    A    
C48   H23   S    
O14   C54   A    
O16   V4    S    
V4    O20   S    
C7    C59   S    
C41   C46   A    
C26   H10   S    
C9    C10   A    
O14   V3    S    
O12   V3    S    
C42   C49   A    
C2    C51   S    
C60   H31   S    
C58   H27   S    
