data_mof_unit_53351.cif
_audit_creation_date              2012-12-10T17:58:20-0500
_audit_creation_method            fapswitch 2.2
_symmetry_space_group_name_H-M    P1
_symmetry_Int_Tables_number       1
_space_group_crystal_system       triclinic
_cell_length_a                    9.524147
_cell_length_b                    10.798864
_cell_length_c                    15.494878
_cell_angle_alpha                 89.865311
_cell_angle_beta                  74.51434
_cell_angle_gamma                 89.935171
_cell_volume                      1535.78955299

loop_
_atom_site_label
_atom_site_type_symbol
_atom_type_description
_atom_site_fract_x
_atom_site_fract_y
_atom_site_fract_z
_atom_type_partial_charge
C1    C     C_R   0.001308 0.262369 0.497084 0.841010
C2    C     C_R   0.998653 0.737613 0.502996 0.841222
C3    C     C_R   0.585349 0.522204 0.094536 -0.211667
C4    C     C_R   0.423844 0.426220 0.910731 -0.212922
C5    C     C_R   0.731002 0.536757 0.049323 -0.233715
C6    C     C_R   0.278540 0.409899 0.956206 -0.231678
C7    C     C_R   0.929596 0.061002 0.442061 -0.001782
C8    C     C_R   0.070223 0.938928 0.558158 -0.002856
C9    C     C_R   0.925863 0.932631 0.449302 -0.228396
C10   C     C_R   0.073962 0.067321 0.550918 -0.228276
C11   C     C_R   0.996886 0.871550 0.505364 -0.119113
C12   C     C_R   0.002989 0.128407 0.494817 -0.118669
C13   C     C_R   0.548639 0.428258 0.559228 -0.002644
C14   C     C_R   0.451365 0.571727 0.440764 -0.003111
C15   C     C_R   0.399845 0.428378 0.559257 -0.006508
C16   C     C_R   0.600156 0.571611 0.440738 -0.007761
C17   C     C_R   0.918311 0.500310 0.672138 0.829545
C18   C     C_R   0.081691 0.498726 0.327909 0.826259
C19   C     C_R   0.873452 0.503065 0.770352 -0.044149
C20   C     C_R   0.127090 0.486769 0.230157 -0.045294
C21   C     C_R   0.924721 0.541463 0.912382 -0.215994
C22   C     C_R   0.081800 0.419758 0.091474 -0.220181
C23   C     C_R   0.972797 0.530751 0.819677 -0.152994
C24   C     C_R   0.030811 0.444379 0.182634 -0.147550
C25   C     C_R   0.726968 0.482327 0.814717 -0.251810
C26   C     C_R   0.273220 0.507710 0.185388 -0.248263
C27   C     C_R   0.676002 0.489655 0.908456 0.094613
C28   C     C_R   0.328860 0.479224 0.094161 0.096501
C29   C     C_R   0.777425 0.522314 0.956951 0.164414
C30   C     C_R   0.229548 0.436643 0.047006 0.162454
C31   C     C_R   0.526876 0.469372 0.954848 0.068250
C32   C     C_R   0.479703 0.491405 0.048808 0.069275
Cu1   Cu    Cu3+1 0.140660 0.500020 0.500000 0.978817
Cu2   Cu    Cu3+1 0.859340 0.499980 0.500000 0.977805
H1    H     H_    0.807720 0.561063 0.087104 0.146773
H2    H     H_    0.203769 0.375997 0.919773 0.147991
H3    H     H_    0.341061 0.546493 0.223872 0.142172
H4    H     H_    0.654050 0.464130 0.773971 0.147137
H5    H     H_    0.917339 0.427165 0.216243 0.174328
H6    H     H_    0.086547 0.547551 0.786525 0.170154
H7    H     H_    0.002437 0.566748 0.949156 0.146064
H8    H     H_    0.006183 0.385064 0.056008 0.145145
H9    H     H_    0.560406 0.533364 0.166015 0.140376
H10   H     H_    0.451969 0.400573 0.841150 0.138601
H11   H     H_    0.872812 0.879090 0.407870 0.175900
H12   H     H_    0.127031 0.120863 0.592339 0.175523
H13   H     H_    0.584012 0.370544 0.606598 0.118193
H14   H     H_    0.415994 0.629432 0.393390 0.119042
H15   H     H_    0.323194 0.370890 0.606658 0.118177
H16   H     H_    0.676806 0.629097 0.393337 0.119233
N1    N     N_R   0.352080 0.500030 0.499980 -0.160769
N2    N     N_R   0.647920 0.499970 0.500020 -0.160813
O1    O     O_R   0.118740 0.319660 0.500000 -0.583612
O2    O     O_R   0.881260 0.680340 0.500000 -0.583304
O3    O     O_R   0.881170 0.319630 0.500010 -0.566586
O4    O     O_R   0.118830 0.680370 0.499990 -0.566406
O5    O     O_R   0.055570 0.500030 0.629830 -0.572938
O6    O     O_R   0.944430 0.499970 0.370170 -0.574067
O7    O     O_R   0.818000 0.500000 0.629840 -0.595854
O8    O     O_R   0.182000 0.500000 0.370160 -0.594013
C33   C     C_2   0.862862 0.119513 0.375541 0.844612
O9    O     O_2   0.915532 0.213374 0.335576 -0.608262
O10   O     O_R   0.742276 0.064065 0.356056 -0.764444
H17   H     H_    0.707424 0.111488 0.309119 0.335302
C34   C     C_2   0.137030 0.880326 0.624627 0.844961
O11   O     O_2   0.084347 0.786459 0.664617 -0.604529
O12   O     O_R   0.257778 0.935665 0.643987 -0.764764
H18   H     H_    0.292793 0.888151 0.690817 0.335845

loop_
_geom_bond_atom_site_label_1
_geom_bond_atom_site_label_2
_ccdc_geom_bond_type
C21   C29   A    
C10   H12   S    
C19   C23   A    
C8    C10   A    
C26   H3    S    
C9    H11   S    
C15   N1    A    
C25   H4    S    
Cu1   N1    S    
C13   N2    A    
C4    H10   S    
Cu1   O5    S    
Cu2   N2    S    
C31   C32   A    
C34   O12   S    
C13   C15   A    
C28   C32   A    
C7    C9    A    
C20   C24   A    
Cu1   O4    S    
C28   C30   A    
Cu1   Cu2   S    
C1    O3    A    
Cu2   O3    S    
C2    O4    A    
C9    C11   A    
C3    H9    S    
C33   O9    D    
C1    C12   S    
C20   C26   A    
C17   O7    A    
C8    C11   A    
C21   H7    S    
C2    C11   S    
C10   C12   A    
C22   C24   A    
C18   O8    A    
C13   H13   S    
C6    C30   A    
C6    H2    S    
Cu2   O2    S    
Cu1   O8    S    
C18   C20   S    
C15   H15   S    
C21   C23   A    
Cu1   O1    S    
C3    C32   A    
C19   C25   A    
C14   C16   A    
C7    C12   A    
C4    C31   A    
C27   C29   A    
C27   C31   A    
C23   H6    S    
C5    C29   A    
C5    H1    S    
C8    C34   S    
C24   H5    S    
C14   N1    A    
C4    C6    A    
C34   O11   D    
C2    O2    A    
C22   H8    S    
C16   N2    A    
Cu2   O6    S    
C1    O1    A    
C7    C33   S    
C14   H14   S    
C22   C30   A    
C17   C19   S    
C17   O5    A    
Cu2   O7    S    
C26   C28   A    
C18   O6    A    
C33   O10   S    
O12   H18   S    
C16   H16   S    
O10   H17   S    
C3    C5    A    
C25   C27   A    
