data_mof_unit_43140.cif
_audit_creation_date              2012-12-11T15:20:36-0500
_audit_creation_method            fapswitch 2.2
_symmetry_space_group_name_H-M    P1
_symmetry_Int_Tables_number       1
_space_group_crystal_system       triclinic
_cell_length_a                    12.927439
_cell_length_b                    13.05815
_cell_length_c                    15.212286
_cell_angle_alpha                 116.680575
_cell_angle_beta                  63.300395
_cell_angle_gamma                 97.147357
_cell_volume                      2040.23844895

loop_
_atom_site_label
_atom_site_type_symbol
_atom_type_description
_atom_site_fract_x
_atom_site_fract_y
_atom_site_fract_z
_atom_type_partial_charge
C1    C     C_R   0.000660 0.833069 0.054429 -0.121052
C2    C     C_R   0.298501 0.596990 0.790651 -0.136772
C3    C     C_R   0.260236 0.413947 0.044096 -0.171835
C4    C     C_R   0.677575 0.477952 0.218548 -0.117564
C5    C     C_R   0.062844 0.282797 0.684673 -0.128517
C6    C     C_R   0.363764 0.431137 0.969307 0.161430
C7    C     C_R   0.055159 0.172305 0.673708 0.040880
C8    C     C_R   0.292723 0.573510 0.694905 0.050314
C9    C     C_R   0.009790 0.151984 0.043043 0.054107
C10   C     C_R   0.136380 0.989269 0.380619 -0.167892
C11   C     C_R   0.129882 0.083344 0.473663 -0.169367
C12   C     C_R   0.666623 0.555164 0.321774 0.029152
C13   C     C_R   0.103525 0.070967 0.568225 0.146580
C14   C     C_R   0.109280 0.960978 0.560909 -0.180659
C15   C     C_R   0.122210 0.865105 0.464133 -0.171684
C16   C     C_R   0.756953 0.518836 0.891097 -0.166429
C17   C     C_R   0.119453 0.881062 0.379773 0.141480
C18   C     C_R   0.560912 0.663644 0.524375 -0.165878
C19   C     C_R   0.467277 0.666378 0.618199 -0.170090
C20   C     C_R   0.369965 0.609725 0.610686 0.139948
C21   C     C_R   0.357930 0.571731 0.513901 -0.171982
C22   C     C_R   0.451701 0.568840 0.420056 -0.164134
C23   C     C_R   0.664587 0.456533 0.921377 0.160286
C24   C     C_R   0.557842 0.602980 0.422698 0.144369
C25   C     C_2   0.478588 0.387390 0.938194 -0.198924
C26   C     C_2   0.571847 0.433135 0.888463 -0.204226
C27   C     C_2   0.833278 0.958367 0.091102 -0.217898
C28   C     C_R   0.017825 0.701463 0.303845 0.027585
C29   C     C_2   0.821946 0.043843 0.187097 -0.133628
C30   C     C_R   0.677584 0.419443 0.987399 -0.129118
C31   C     C_R   0.099750 0.797537 0.204944 -0.168670
C32   C     C_R   0.777826 0.565245 0.314767 -0.119315
C33   C     C_R   0.900426 0.748113 0.957004 -0.146913
C34   C     C_R   0.080069 0.795873 0.300963 -0.002847
C35   C     C_R   0.912634 0.852838 0.033224 0.139685
C36   C     C_R   0.990072 0.653551 0.382643 0.083726
C37   C     C_R   0.032707 0.541050 0.346469 -0.139096
C38   C     C_R   0.003449 0.495354 0.421130 -0.125745
C39   C     C_R   0.930452 0.561250 0.532336 -0.082358
C40   C     C_R   0.886096 0.672782 0.568969 -0.113416
C41   C     C_R   0.915197 0.718741 0.494542 -0.201276
C42   C     C_R   0.339420 0.514313 0.947246 -0.110501
C43   C     C_R   0.979705 0.178641 0.776981 -0.128899
C44   C     C_R   0.196878 0.513271 0.696041 -0.138155
C45   C     C_R   0.052613 0.255580 0.087820 -0.128271
C46   C     C_R   0.952153 0.171785 0.993181 -0.111926
H1    H     H_    0.030097 0.895063 0.112568 0.093701
H2    H     H_    0.131035 0.166113 0.473629 0.104005
H3    H     H_    0.096924 0.949440 0.631070 0.119130
H4    H     H_    0.609175 0.448364 0.193560 0.090952
H5    H     H_    0.125618 0.780616 0.459452 0.141182
H6    H     H_    0.638758 0.698629 0.531011 0.111973
H7    H     H_    0.476843 0.703001 0.693186 0.105427
H8    H     H_    0.281365 0.533589 0.506532 0.108665
H9    H     H_    0.443689 0.528773 0.344195 0.107663
H10   H     H_    0.481977 0.339394 0.979471 0.122997
H11   H     H_    0.569935 0.476953 0.843208 0.125956
H12   H     H_    0.951366 0.107125 0.796564 0.090978
H13   H     H_    0.777593 0.964758 0.057236 0.133373
H14   H     H_    0.872419 0.042002 0.227323 0.125866
H15   H     H_    0.781087 0.547611 0.828492 0.088198
H16   H     H_    0.631765 0.355270 0.012949 0.081990
H17   H     H_    0.159993 0.847297 0.167016 0.097991
H18   H     H_    0.799461 0.618665 0.380068 0.118785
H19   H     H_    0.836411 0.731822 0.926139 0.099503
H20   H     H_    0.398614 0.552006 0.895462 0.088409
H21   H     H_    0.089055 0.489003 0.261051 0.109211
H22   H     H_    0.037306 0.408740 0.392699 0.099503
H23   H     H_    0.156147 0.496052 0.643070 0.083163
H24   H     H_    0.907911 0.525743 0.590020 0.092339
H25   H     H_    0.828867 0.723498 0.654962 0.102418
H26   H     H_    0.879174 0.804811 0.523731 0.125695
H27   H     H_    0.089868 0.274986 0.143799 0.083222
H28   H     H_    0.896683 0.113885 0.961507 0.087908
H29   H     H_    0.351935 0.656181 0.824288 0.082596
H30   H     H_    0.250210 0.358153 0.081799 0.092739
H31   H     H_    0.113956 0.311580 0.622920 0.093627
H32   H     H_    0.140545 0.005399 0.315398 0.105984
N1    N     N_R   0.037310 0.720000 0.995790 -0.043517
N2    N     N_R   0.824890 0.517960 0.936420 -0.038758
N3    N     N_R   0.003210 0.648190 0.211380 -0.057741
N4    N     N_R   0.774330 0.457010 0.995840 -0.043531
N5    N     N_R   0.053760 0.709140 0.151960 -0.043287
N6    N     N_R   0.853860 0.498840 0.211410 -0.040722
N7    N     N_R   0.974240 0.667310 0.936390 -0.041003
N8    N     N_R   0.225670 0.542990 0.004160 -0.044607
N9    N     N_R   0.946240 0.290860 0.848040 -0.038973
N10   N     N_R   0.146140 0.501160 0.788590 -0.036890
N11   N     N_R   0.025760 0.332690 0.063610 -0.039192
N12   N     N_R   0.962690 0.280000 0.004210 -0.041303
N13   N     N_R   0.209210 0.553840 0.847990 -0.037013
N14   N     N_R   0.175110 0.482040 0.063580 -0.047089
N15   N     N_R   0.996790 0.351810 0.788620 -0.039002
N16   N     N_R   0.790790 0.446160 0.152010 -0.040747
Ni1   Ni    Ni4+2 0.130310 0.630310 0.999970 0.206217
Ni2   Ni    Ni4+2 0.869690 0.369690 0.000030 0.212088
Ni3   Ni    Ni4+2 0.985640 0.509470 0.863740 0.208691
Ni4   Ni    Ni4+2 0.014360 0.490530 0.136260 0.216727

loop_
_geom_bond_atom_site_label_1
_geom_bond_atom_site_label_2
_ccdc_geom_bond_type
C9    C45   A    
C40   H25   S    
C36   C41   A    
N2    Ni3   S    
C27   C29   D    
C19   C20   A    
C25   H10   S    
N1    N7    A    
C3    C6    A    
C10   H32   S    
C33   H19   S    
C8    C20   S    
C18   C24   A    
C21   C22   A    
C36   C37   A    
C21   H8    S    
C6    C25   S    
N3    Ni4   S    
C10   C17   A    
N9    N15   A    
C31   N5    A    
C45   H27   S    
C18   C19   A    
C23   C26   S    
C33   N7    A    
C43   H12   S    
N10   N13   A    
C42   N8    A    
C7    C43   A    
C4    C12   A    
C45   N11   A    
N10   Ni3   S    
C19   H7    S    
C28   C34   A    
C9    C46   A    
C13   C14   A    
C12   C32   A    
C11   H2    S    
N3    N5    A    
C32   N6    A    
N4    Ni2   S    
C18   H6    S    
C23   C30   A    
C31   H17   S    
C32   H18   S    
N2    N4    A    
N8    Ni1   S    
C39   C40   A    
C5    C7    A    
C1    H1    S    
C27   C35   S    
C25   C26   D    
C4    H4    S    
C3    N14   A    
C16   N2    A    
C30   N4    A    
N1    Ni1   S    
C37   C38   A    
C29   H14   S    
N5    Ni1   S    
N9    Ni2   S    
C31   C34   A    
C44   H23   S    
N6    N16   A    
N16   Ni2   S    
C3    H30   S    
C41   H26   S    
C4    N16   A    
C40   C41   A    
C38   H22   S    
C16   C23   A    
C15   H5    S    
C30   H16   S    
C6    C42   A    
C1    N1    A    
C22   C24   A    
C17   C34   S    
C5    H31   S    
N15   Ni3   S    
C46   H28   S    
C1    C35   A    
C15   C17   A    
C28   N3    A    
C2    C8    A    
C8    C44   A    
C5    N15   A    
N12   Ni2   S    
C22   H9    S    
C46   N12   A    
C12   C24   S    
N11   Ni4   S    
C43   N9    A    
N6    Ni4   S    
C27   H13   S    
C11   C13   A    
C38   C39   A    
C37   H21   S    
C33   C35   A    
C39   H24   S    
C2    N13   A    
C26   H11   S    
N7    Ni3   S    
C10   C11   A    
N14   Ni4   S    
N13   Ni1   S    
C14   H3    S    
C7    C13   S    
C20   C21   A    
C28   C36   S    
C16   H15   S    
C42   H20   S    
C14   C15   A    
N8    N14   A    
N11   N12   A    
C44   N10   A    
C2    H29   S    
