data_mof_unit_7053.cif
_audit_creation_date              2012-12-10T17:21:17-0500
_audit_creation_method            fapswitch 2.2
_symmetry_space_group_name_H-M    P1
_symmetry_Int_Tables_number       1
_space_group_crystal_system       triclinic
_cell_length_a                    9.619664
_cell_length_b                    10.853698
_cell_length_c                    13.871623
_cell_angle_alpha                 92.025101
_cell_angle_beta                  84.904951
_cell_angle_gamma                 89.709597
_cell_volume                      1441.64861254

loop_
_atom_site_label
_atom_site_type_symbol
_atom_type_description
_atom_site_fract_x
_atom_site_fract_y
_atom_site_fract_z
_atom_type_partial_charge
C1    C     C_R   0.499967 0.737065 0.490596 0.841513
C2    C     C_1   0.464048 0.509324 0.785955 -0.118851
C3    C     C_R   0.236106 0.889986 0.493480 -0.170252
C4    C     C_R   0.118039 0.946950 0.540029 -0.189730
C5    C     C_R   0.130308 0.052364 0.599063 0.112577
C6    C     C_R   0.261943 0.109861 0.599930 0.144140
C7    C     C_R   0.377255 0.061653 0.538807 0.036905
C8    C     C_R   0.369796 0.939377 0.503101 0.031495
C9    C     C_R   0.496256 0.871876 0.479787 -0.144751
C10   C     C_R   0.621268 0.937117 0.460285 0.168024
C11   C     C_R   0.621404 0.064236 0.474970 -0.255805
C12   C     C_R   0.477490 0.503751 0.682751 0.870597
C13   C     C_R   0.500593 0.127991 0.513193 -0.113959
C14   C     C_R   0.874908 0.348699 0.363130 -0.163758
C15   C     C_R   0.956614 0.288734 0.287247 0.098077
C16   C     C_R   0.100009 0.284260 0.290757 -0.235195
C17   C     C_R   0.161258 0.345471 0.365421 -0.152989
C18   C     C_R   0.083392 0.423899 0.434032 0.188616
C19   C     C_R   0.934185 0.424393 0.433657 0.133928
C20   C     C_R   0.919929 0.573688 0.562521 0.259893
C21   C     C_R   0.067016 0.572843 0.562048 -0.089394
C22   C     C_R   0.499609 0.262712 0.506872 0.810906
C23   C     C_R   0.522627 0.498826 0.317308 0.799606
C24   C     C_1   0.535975 0.495031 0.214290 -0.165752
C25   C     C_2   0.552001 0.488144 0.023657 0.150305
C26   C     C_2   0.439884 0.518808 0.977204 0.060261
C27   C     C_1   0.452479 0.513814 0.872879 0.067307
C28   C     C_1   0.545153 0.491528 0.127477 -0.035771
Cu1   Cu    Cu3+1 0.359340 0.500010 0.500010 0.945330
Cu2   Cu    Cu3+1 0.640660 0.499990 0.499990 0.974279
H1    H     H_    0.766104 0.334135 0.362741 0.195814
H2    H     H_    0.165306 0.232742 0.235553 0.150961
H3    H     H_    0.270334 0.329728 0.364419 0.202880
H4    H     H_    0.116808 0.632674 0.612454 0.166133
H5    H     H_    0.220120 0.809133 0.448302 0.190141
H6    H     H_    0.017922 0.903702 0.535092 0.192468
H7    H     H_    0.716293 0.113537 0.454131 0.169654
N1    N     N_R   0.852210 0.498790 0.499090 -0.207369
N2    N     N_R   0.148080 0.498710 0.499060 -0.210597
O1    O     O_R   0.381190 0.680360 0.500010 -0.600763
O2    O     O_R   0.618760 0.680340 0.500000 -0.514627
O3    O     O_R   0.364420 0.499990 0.637850 -0.561692
O4    O     O_R   0.601990 0.499960 0.637840 -0.559080
O5    O     O_R   0.381240 0.319660 0.500000 -0.586931
O6    O     O_R   0.618810 0.319640 0.499990 -0.612665
O7    O     O_R   0.398010 0.500040 0.362160 -0.597856
O8    O     O_R   0.635580 0.500010 0.362150 -0.577198
C29   C     C_3   0.301992 0.556864 0.033410 -0.419751
C30   C     C_3   0.186480 0.592723 0.969647 -0.345633
C31   C     C_3   0.053607 0.632619 0.031476 -0.752241
H8    H     H_    0.013409 0.555746 0.076604 0.267666
H9    H     H_    0.074448 0.713365 0.079377 0.249330
H10   H     H_    0.972538 0.659127 0.983725 0.268081
H11   H     H_    0.222179 0.670328 0.923660 0.227106
H12   H     H_    0.162167 0.512744 0.921851 0.250816
H13   H     H_    0.264419 0.479068 0.078656 0.210029
H14   H     H_    0.321309 0.636886 0.082639 0.209111
C32   C     C_3   0.890967 0.236089 0.199957 -0.403647
C33   C     C_3   0.811966 0.117305 0.222583 -0.360806
C34   C     C_3   0.746014 0.065351 0.133881 -0.770741
H15   H     H_    0.670539 0.132847 0.109444 0.259831
H16   H     H_    0.827751 0.043732 0.073885 0.259473
H17   H     H_    0.689538 0.979256 0.152634 0.252437
H18   H     H_    0.886085 0.048043 0.245951 0.257108
H19   H     H_    0.727950 0.135362 0.281589 0.217859
H20   H     H_    0.818594 0.306077 0.175006 0.222829
H21   H     H_    0.972534 0.216725 0.139213 0.213001
I1    I     I_    0.746851 0.432314 0.950616 -0.446412
I2    I     I_    0.808268 0.855625 0.391823 -0.447407
C35   C     C_3   0.002883 0.098110 0.661884 -0.381856
C36   C     C_3   0.948942 0.219707 0.626327 -0.369318
C37   C     C_3   0.820028 0.264425 0.689797 -0.716125
H22   H     H_    0.730363 0.202773 0.679287 0.256984
H23   H     H_    0.840962 0.267083 0.767197 0.275201
H24   H     H_    0.793207 0.358789 0.670030 0.276805
H25   H     H_    0.030683 0.291423 0.628086 0.248032
H26   H     H_    0.921697 0.206482 0.550457 0.225129
H27   H     H_    0.917584 0.029268 0.660965 0.217715
H28   H     H_    0.027405 0.108549 0.738442 0.227307
I3    I     I_    0.299571 0.228493 0.720235 -0.417315
I4    I     I_    0.817315 0.699840 0.665930 -0.357420

loop_
_geom_bond_atom_site_label_1
_geom_bond_atom_site_label_2
_ccdc_geom_bond_type
C4    H6    S    
Cu1   O3    S    
C35   H27   S    
Cu2   O6    S    
C14   H1    S    
C2    C12   S    
C29   H14   S    
C25   C28   S    
C26   C27   S    
Cu1   Cu2   S    
C34   H17   S    
C12   O4    A    
C36   H25   S    
C16   C17   A    
C15   C16   A    
Cu2   N1    S    
C34   H16   S    
C18   C19   A    
C11   H7    S    
C12   O3    A    
C1    O1    A    
C32   H20   S    
C22   O5    A    
C8    C9    A    
C31   H9    S    
C23   C24   S    
Cu2   O2    S    
C2    C27   T    
C9    C10   A    
C26   C29   S    
C33   C34   S    
C23   O7    A    
C20   I4    S    
C25   I1    S    
C17   H3    S    
C37   H24   S    
C31   H8    S    
C31   H10   S    
C23   O8    A    
Cu2   O8    S    
C7    C8    A    
C1    C9    S    
C37   H23   S    
C3    C8    A    
C37   H22   S    
C21   H4    S    
C25   C26   D    
C30   H12   S    
C34   H15   S    
C18   N2    A    
C5    C35   S    
C19   N1    A    
C20   N1    A    
C6    I3    S    
C21   N2    A    
C3    H5    S    
Cu1   N2    S    
C17   C18   A    
C33   H18   S    
C35   C36   S    
C1    O2    A    
C29   C30   S    
Cu1   O5    S    
C15   C32   S    
Cu2   O4    S    
C3    C4    A    
C36   H26   S    
C29   H13   S    
C35   H28   S    
C14   C19   A    
C24   C28   T    
C4    C5    A    
C6    C7    A    
C16   H2    S    
Cu1   O7    S    
C32   C33   S    
C36   C37   S    
C33   H19   S    
C11   C13   A    
C5    C6    A    
Cu1   O1    S    
C13   C22   S    
C10   C11   A    
C10   I2    S    
C32   H21   S    
C7    C13   A    
C22   O6    A    
C20   C21   A    
C30   C31   S    
C14   C15   A    
C30   H11   S    
