data_mof_unit_33316.cif
_audit_creation_date              2013-03-05T16:10:28-0500
_audit_creation_method            fapswitch 2.2
_symmetry_space_group_name_H-M    P1
_symmetry_Int_Tables_number       1
_space_group_crystal_system       triclinic
_cell_length_a                    10.714355
_cell_length_b                    9.834121
_cell_length_c                    14.914321
_cell_angle_alpha                 89.648168
_cell_angle_beta                  88.671821
_cell_angle_gamma                 90.638515
_cell_volume                      1570.91433254

loop_
_atom_site_label
_atom_site_type_symbol
_atom_site_description
_atom_site_fract_x
_atom_site_fract_y
_atom_site_fract_z
_atom_type_partial_charge
O1    O     O_R   0.316770 0.614620 0.499990 -0.590269
O2    O     O_R   0.683230 0.385380 0.500010 -0.590261
O3    O     O_R   0.683230 0.614620 0.500010 -0.592893
O4    O     O_R   0.316770 0.385380 0.499990 -0.592881
C1    C     C_R   0.260129 0.498824 0.498923 0.988659
C2    C     C_R   0.739870 0.501175 0.501087 0.988742
O5    O     O_R   0.499980 0.614680 0.367850 -0.590521
O6    O     O_R   0.500020 0.385320 0.632150 -0.590540
O7    O     O_R   0.500020 0.614680 0.632150 -0.645072
O8    O     O_R   0.499980 0.385320 0.367850 -0.645073
C3    C     C_R   0.502598 0.500301 0.326925 0.915325
C4    C     C_R   0.497380 0.499699 0.673074 0.915212
Zn1   Zn    Zn3+2 0.500000 0.653120 0.500000 1.029267
Zn2   Zn    Zn3+2 0.500000 0.346880 0.500000 1.029269
C5    C     C_R   0.599575 0.553340 0.810968 -0.208607
C6    C     C_R   0.400368 0.446691 0.189034 -0.208536
C7    C     C_R   0.496572 0.499881 0.768373 -0.038954
C8    C     C_R   0.503384 0.500127 0.231627 -0.039015
C9    C     C_R   0.392537 0.449615 0.815959 -0.266483
C10   C     C_R   0.607400 0.550426 0.184038 -0.266442
C11   C     C_R   0.390080 0.452565 0.909453 0.069285
C12   C     C_R   0.609839 0.547514 0.090545 0.069267
C13   C     C_R   0.497978 0.501069 0.953308 0.045601
C14   C     C_R   0.501943 0.499004 0.046691 0.045583
C15   C     C_R   0.602018 0.552283 0.903558 0.099224
C16   C     C_R   0.397907 0.447785 0.096443 0.099269
C17   C     C_R   0.284795 0.405882 0.960434 -0.000132
C18   C     C_R   0.715106 0.594243 0.039566 -0.000133
C19   C     C_R   0.291620 0.401009 0.053586 -0.276828
C20   C     C_R   0.708287 0.599103 0.946415 -0.276865
H1    H     H_    0.678833 0.592387 0.771650 0.152198
H2    H     H_    0.321116 0.407635 0.228353 0.152226
H3    H     H_    0.314583 0.409060 0.779450 0.198796
H4    H     H_    0.685355 0.590976 0.220545 0.198890
H5    H     H_    0.211908 0.363995 0.093066 0.145558
H6    H     H_    0.787990 0.636152 0.906939 0.145597
C21   C     C_R   0.061474 0.397990 0.548354 0.193721
C22   C     C_R   0.938528 0.602019 0.451680 0.193756
C23   C     C_R   0.932803 0.404414 0.554135 0.225014
C24   C     C_R   0.067194 0.595580 0.445885 0.224996
C25   C     C_R   0.872313 0.504477 0.503975 -0.383514
C26   C     C_R   0.127686 0.495521 0.496045 -0.383460
C27   C     C_R   0.568020 0.072219 0.560675 -0.009039
C28   C     C_R   0.431980 0.927781 0.439325 -0.009057
C29   C     C_R   0.431858 0.071705 0.439385 -0.009387
C30   C     C_R   0.568142 0.928295 0.560615 -0.009409
H7    H     H_    0.622188 0.126968 0.609263 0.185812
H8    H     H_    0.377811 0.873032 0.390737 0.185791
H9    H     H_    0.377260 0.126051 0.391004 0.145308
H10   H     H_    0.622740 0.873949 0.608996 0.145313
N1    N     N_R   0.500000 0.857200 0.500000 -0.099981
N2    N     N_R   0.500000 0.142800 0.500000 -0.099976
C31   C     C_R   0.163512 0.369518 0.920563 0.130038
C32   C     C_R   0.096986 0.467291 0.872579 -0.148363
C33   C     C_R   0.977260 0.437109 0.842463 -0.061603
C34   C     C_R   0.922441 0.310125 0.861118 -0.004024
C35   C     C_R   0.987990 0.212306 0.908663 -0.128885
C36   C     C_R   0.107961 0.241767 0.938494 -0.136056
H11   H     H_    0.137027 0.567342 0.859774 0.134062
H12   H     H_    0.926801 0.512400 0.805007 0.137320
H13   H     H_    0.829034 0.287532 0.839075 0.170194
H14   H     H_    0.945384 0.114053 0.923163 0.129333
H15   H     H_    0.156936 0.165808 0.976578 0.129491
C37   C     C_R   0.836357 0.630709 0.079443 0.129992
C38   C     C_R   0.891756 0.758557 0.061587 -0.136043
C39   C     C_R   0.011680 0.788155 0.091457 -0.128934
C40   C     C_R   0.077333 0.690375 0.138961 -0.003995
C41   C     C_R   0.022669 0.563286 0.157529 -0.061506
C42   C     C_R   0.902988 0.532971 0.127379 -0.148424
H16   H     H_    0.842695 0.834490 0.023540 0.129526
H17   H     H_    0.054166 0.886488 0.077022 0.129337
H18   H     H_    0.170700 0.713081 0.161042 0.170215
H19   H     H_    0.073210 0.488023 0.194950 0.137426
H20   H     H_    0.863059 0.432853 0.140127 0.134054
N3    N     N_R   0.124785 0.296473 0.599040 0.250623
O9    O     O_R   0.132012 0.307973 0.685506 -0.405611
O10   O     O_R   0.155647 0.182441 0.561184 -0.316017
N4    N     N_R   0.875217 0.703552 0.401010 0.250721
O11   O     O_R   0.867722 0.691919 0.314569 -0.405822
O12   O     O_R   0.844496 0.817646 0.438845 -0.315964
N5    N     N_R   0.864270 0.312926 0.613350 0.235224
O13   O     O_R   0.884566 0.182770 0.611197 -0.327130
O14   O     O_R   0.782762 0.360076 0.670846 -0.470670
N6    N     N_R   0.135723 0.687035 0.386643 0.235131
O15   O     O_R   0.115438 0.817195 0.388768 -0.327240
O16   O     O_R   0.217211 0.639847 0.329145 -0.470752

loop_
_geom_bond_atom_site_label_1
_geom_bond_atom_site_label_2
_geom_bond_distance
_ccdc_geom_bond_type
C33   C34   1.397726 A    
C3    C8    1.421152 S    
C17   C19   1.393478 A    
C24   N6    1.440176 S    
C1    C26   1.420704 S    
O3    C2    1.276126 A    
N5    O13   1.301163 A    
C35   H14   1.082496 S    
C23   C25   1.405579 A    
C31   C32   1.405410 A    
O5    C3    1.283309 A    
C27   C30   1.415389 A    
O1    C1    1.284746 A    
C9    C11   1.394521 A    
C14   C16   1.411156 A    
N4    O12   1.301176 A    
C27   N2    1.365991 A    
C5    C15   1.381747 A    
C38   H16   1.083196 S    
C15   C20   1.393794 A    
C34   C35   1.396856 A    
C40   H18   1.081771 S    
C21   C26   1.407768 A    
O7    Zn1   2.004575 S    
Zn1   N1    2.006947 S    
Zn2   N2    2.006947 S    
C41   C42   1.398301 A    
C2    C25   1.420708 S    
C4    C7    1.421150 S    
C13   C14   1.394408 A    
O3    Zn1   2.003508 S    
C10   H4    1.081402 S    
C24   C26   1.405575 A    
C39   C40   1.396861 A    
C11   C17   1.416264 A    
C12   C18   1.416243 A    
C33   H12   1.081862 S    
O4    Zn2   2.003510 S    
O2    C2    1.284737 A    
N5    O14   1.300844 A    
C32   H11   1.083097 S    
C6    C16   1.381770 A    
C40   C41   1.397730 A    
N6    O15   1.301169 A    
C23   N5    1.440169 S    
C22   C25   1.407752 A    
C9    H3    1.081422 S    
N4    O11   1.299233 A    
C22   N4    1.434509 S    
C29   N2    1.366063 A    
C41   H19   1.081858 S    
C30   N1    1.366060 A    
N3    O9    1.299250 A    
C39   H17   1.082494 S    
C29   H9    1.081799 S    
O6    C4    1.283311 A    
C42   H20   1.083099 S    
C37   C42   1.405400 A    
N3    O10   1.301167 A    
C18   C37   1.482599 S    
C28   N1    1.365993 A    
C10   C12   1.394491 A    
C11   C13   1.420704 A    
O8    Zn2   2.004577 S    
C12   C14   1.420697 A    
O1    Zn1   1.995224 S    
C28   C29   1.415389 A    
C36   H15   1.083196 S    
C5    C7    1.386221 A    
C30   H10   1.081799 S    
C32   C33   1.398302 A    
O6    Zn2   2.009134 S    
N6    O16   1.300853 A    
O4    C1    1.276114 A    
C31   C36   1.405682 A    
C17   C31   1.482634 S    
C5    H1    1.085963 S    
C6    H2    1.085963 S    
C19   H5    1.084324 S    
C20   H6    1.084319 S    
C37   C38   1.405666 A    
C18   C20   1.393447 A    
C21   C23   1.381493 A    
C22   C24   1.381460 A    
C35   C36   1.397841 A    
C7    C9    1.391858 A    
C8    C10   1.391831 A    
C13   C15   1.411159 A    
C21   N3    1.434528 S    
O2    Zn2   1.995222 S    
O7    C4    1.281373 A    
O8    C3    1.281375 A    
O5    Zn1   2.009135 S    
C16   C19   1.393799 A    
C6    C8    1.386233 A    
C38   C39   1.397842 A    
C34   H13   1.081770 S    
C27   H7    1.081282 S    
C28   H8    1.081283 S    
