data_mof_unit_13621.cif
_audit_creation_date              2012-12-10T16:51:27-0500
_audit_creation_method            fapswitch 2.2
_symmetry_space_group_name_H-M    P1
_symmetry_Int_Tables_number       1
_space_group_crystal_system       triclinic
_cell_length_a                    7.844591
_cell_length_b                    8.610475
_cell_length_c                    12.592374
_cell_angle_alpha                 92.161427
_cell_angle_beta                  106.138584
_cell_angle_gamma                 93.099564
_cell_volume                      814.611756016

loop_
_atom_site_label
_atom_site_type_symbol
_atom_type_description
_atom_site_fract_x
_atom_site_fract_y
_atom_site_fract_z
_atom_type_partial_charge
C1    C     C_R   0.039854 0.793050 0.491119 0.865936
C2    C     C_R   0.198264 0.657357 0.800585 -0.157029
C3    C     C_2   0.050839 0.952219 0.469899 -0.165127
C4    C     C_R   0.115938 0.563848 0.695580 0.887117
C5    C     C_2   0.934970 0.042260 0.499535 -0.434390
C6    C     C_R   0.954778 0.205831 0.498820 0.981928
C7    C     C_R   0.889151 0.501478 0.290403 0.850601
C8    C     C_R   0.892975 0.532462 0.991223 -0.221185
C9    C     C_R   0.836646 0.533951 0.171799 -0.076830
C10   C     C_R   0.103905 0.753526 0.852981 -0.216870
C11   C     C_R   0.187090 0.818987 0.959842 -0.107483
C12   C     C_R   0.448845 0.679273 0.963459 0.055397
C13   C     C_R   0.357067 0.775439 0.017472 -0.200098
C14   C     C_3   0.159153 0.527973 0.153244 -0.362857
C15   C     C_3   0.231054 0.682822 0.220634 -0.773089
C16   C     C_1   0.487460 0.791945 0.713447 0.129946
C17   C     C_1   0.177612 0.002811 0.410588 0.244297
C18   C     C_R   0.381244 0.656423 0.849230 0.071151
C19   C     C_R   0.614963 0.620813 0.013084 0.078703
C20   C     C_R   0.724022 0.581818 0.944624 0.120184
C21   C     C_R   0.669516 0.611466 0.832086 -0.289367
C22   C     C_R   0.503141 0.666396 0.787635 0.021373
C23   C     C_R   0.668844 0.588852 0.125091 -0.314193
C24   C     C_R   0.958055 0.524645 0.105756 0.154239
H1    H     H_    0.832417 0.996042 0.535023 0.186728
H2    H     H_    0.186311 0.783115 0.170537 0.232329
H3    H     H_    0.182437 0.702715 0.293250 0.279196
H4    H     H_    0.377749 0.688409 0.251584 0.226684
H5    H     H_    0.201194 0.425199 0.202029 0.218598
H6    H     H_    0.224566 0.517760 0.085956 0.195430
H7    H     H_    0.470684 0.364288 0.429408 0.205213
H8    H     H_    0.527832 0.642566 0.559471 0.201850
H9    H     H_    0.757819 0.601274 0.780991 0.183193
H10   H     H_    0.978691 0.510465 0.938971 0.158285
H11   H     H_    0.580080 0.604766 0.175645 0.168373
H12   H     H_    0.971259 0.783018 0.810647 0.151689
H13   H     H_    0.421338 0.824396 0.100092 0.148768
H14   H     H_    0.117656 0.898520 0.998847 0.144270
N1    N     N_2   0.434800 0.456690 0.470850 -0.172859
N2    N     N_2   0.565200 0.543310 0.529150 -0.181572
N3    N     N_1   0.475694 0.894937 0.655879 -0.201272
N4    N     N_1   0.278348 0.042578 0.363483 -0.235563
O1    O     O_R   0.893060 0.738880 0.507150 -0.633911
O2    O     O_R   0.172250 0.711130 0.488470 -0.645765
O3    O     O_R   0.944700 0.520730 0.667600 -0.623881
O4    O     O_R   0.223890 0.492980 0.648920 -0.597152
O5    O     O_R   0.827750 0.288870 0.511530 -0.608647
O6    O     O_R   0.106940 0.261120 0.492850 -0.588315
O7    O     O_R   0.776110 0.507020 0.351080 -0.622730
O8    O     O_R   0.055300 0.479270 0.332400 -0.621586
Zn1   Zn    Zn3+2 0.813580 0.518530 0.512470 0.937415
Zn2   Zn    Zn3+2 0.186420 0.481470 0.487530 0.952879

loop_
_geom_bond_atom_site_label_1
_geom_bond_atom_site_label_2
_ccdc_geom_bond_type
C11   H14   S    
O8    Zn2   S    
C10   H12   S    
C9    C24   A    
C2    C18   A    
N2    Zn1   S    
C1    O2    A    
C13   H13   S    
C19   C20   A    
C14   C15   S    
O2    Zn2   S    
O7    Zn1   S    
N1    Zn2   S    
C8    H10   S    
C21   C22   A    
C20   C21   A    
C11   C13   A    
O1    Zn1   S    
C15   H4    S    
C8    C20   A    
C6    O6    A    
C14   H6    S    
C5    H1    S    
C2    C4    S    
C12   C19   A    
C8    C24   A    
H7    N1    S    
C3    C17   S    
C23   H11   S    
C4    O3    A    
H8    N2    S    
C17   N4    T    
C5    C6    S    
C21   H9    S    
C10   C11   A    
O3    Zn1   S    
C14   H5    S    
C14   C24   S    
C2    C10   A    
O4    Zn2   S    
O6    Zn2   S    
C12   C13   A    
C7    O7    A    
C6    O5    A    
C12   C18   A    
N1    N2    D    
C7    C9    S    
C19   C23   A    
C9    C23   A    
C15   H2    S    
C4    O4    A    
C3    C5    D    
C18   C22   A    
C15   H3    S    
C16   N3    T    
C1    O1    A    
O5    Zn1   S    
C7    O8    A    
C16   C22   S    
C1    C3    S    
