data_mof_unit_33108.cif
_audit_creation_date              2012-12-11T17:29:16-0500
_audit_creation_method            fapswitch 2.2
_symmetry_space_group_name_H-M    P1
_symmetry_Int_Tables_number       1
_space_group_crystal_system       triclinic
_cell_length_a                    8.269788
_cell_length_b                    16.413219
_cell_length_c                    18.787439
_cell_angle_alpha                 99.56487
_cell_angle_beta                  91.341987
_cell_angle_gamma                 92.979243
_cell_volume                      2509.91059

loop_
_atom_site_label
_atom_site_type_symbol
_atom_type_description
_atom_site_fract_x
_atom_site_fract_y
_atom_site_fract_z
_atom_type_partial_charge
Ba1   Ba    Ba6+2 0.845660 0.536000 0.465120 1.721651
Ba2   Ba    Ba6+2 0.344160 0.464070 0.534880 1.722992
C1    C     C_3   0.464484 0.752388 0.182334 -0.265724
C2    C     C_3   0.495294 0.719323 0.252831 0.245207
C3    C     C_3   0.503513 0.326253 0.313819 0.339342
C4    C     C_3   0.482084 0.293676 0.232951 0.656674
C5    C     C_3   0.097707 0.299546 0.732837 0.323753
C6    C     C_3   0.115772 0.277844 0.808095 -0.315590
C7    C     C_3   0.578102 0.255486 0.692793 0.330699
C8    C     C_3   0.563250 0.171552 0.716918 -0.315166
C9    C     C_R   0.004293 0.449291 0.045352 -0.029104
C10   C     C_R   0.924420 0.400981 0.091956 0.346421
C11   C     C_R   0.775037 0.440067 0.955332 -0.038849
C12   C     C_3   0.978700 0.755159 0.281969 0.592365
C13   C     C_R   0.939599 0.459017 0.975913 0.040499
C14   C     C_R   0.717589 0.440177 0.885124 -0.080613
C15   C     C_R   0.819009 0.465789 0.833414 -0.027261
C16   C     C_R   0.977342 0.498766 0.855625 0.013737
C17   C     C_R   0.038210 0.495263 0.927174 0.024849
C18   C     C_R   0.765302 0.461969 0.760824 0.025423
C19   C     C_R   0.866983 0.492794 0.711911 -0.275878
C20   C     C_R   0.018651 0.531450 0.733397 0.020838
C21   C     C_R   0.073544 0.536299 0.806807 -0.022195
C22   C     C_R   0.160547 0.485559 0.068333 0.029316
C23   C     C_3   0.933213 0.830385 0.246911 -0.213896
C24   C     C_R   0.219525 0.485107 0.140601 0.060940
C25   C     C_R   0.120411 0.451979 0.190698 -0.050730
C26   C     C_R   0.977904 0.406244 0.163964 0.009501
C27   C     C_R   0.219545 0.578610 0.833764 0.015217
C28   C     C_R   0.280996 0.573750 0.902674 -0.071777
C29   C     C_R   0.195938 0.529042 0.949618 0.008969
C30   C     C_R   0.259554 0.521450 0.019491 0.053888
C31   C     C_R   0.421945 0.545728 0.041501 -0.103168
C32   C     C_R   0.378060 0.517549 0.162828 0.011089
C33   C     C_R   0.480098 0.542678 0.111147 -0.087094
C34   C     C_3   0.211817 0.721743 0.629657 0.297177
C35   C     C_R   0.428909 0.524458 0.236290 -0.038229
C36   C     C_R   0.323472 0.499971 0.286105 -0.283459
C37   C     C_R   0.172111 0.462248 0.264886 0.086346
C38   C     C_R   0.374521 0.733564 0.481175 -0.278470
C39   C     C_R   0.519923 0.761599 0.516938 0.068046
C40   C     C_R   0.564925 0.846138 0.531924 -0.179062
C41   C     C_R   0.462407 0.903880 0.510186 0.272700
C42   C     C_R   0.309446 0.875075 0.478437 -0.052936
C43   C     C_R   0.265697 0.789660 0.465307 -0.020181
C44   C     C_R   0.617627 0.143816 0.486832 0.323058
C45   C     C_3   0.269720 0.810700 0.659885 -0.376298
C46   C     C_R   0.666812 0.227835 0.493000 -0.039529
C47   C     C_R   0.708148 0.091482 0.523843 0.170412
C48   C     C_R   0.808350 0.259216 0.531728 -0.361212
C49   C     C_R   0.911407 0.207250 0.559956 -0.049555
C50   C     C_R   0.860087 0.122706 0.557977 -0.174242
C51   C     C_3   0.995899 0.282963 0.381947 0.320223
C52   C     C_3   0.975970 0.188971 0.363804 -0.238758
C53   C     C_3   0.775634 0.725094 0.688126 0.233336
C54   C     C_3   0.819661 0.817686 0.692062 -0.415438
H1    H     H_    0.386035 0.811769 0.690835 0.146867
H2    H     H_    0.286357 0.847102 0.616091 0.048990
H3    H     H_    0.179391 0.841182 0.696382 0.128120
H4    H     H_    0.881056 0.307975 0.401830 -0.029270
H5    H     H_    0.092480 0.299866 0.424485 0.063086
H6    H     H_    0.872813 0.170266 0.324574 0.182684
H7    H     H_    0.952785 0.161976 0.413036 0.024205
H8    H     H_    0.088339 0.163733 0.339949 0.199978
H9    H     H_    0.869752 0.687061 0.661437 0.004946
H10   H     H_    0.547782 0.806684 0.178548 0.143439
H11   H     H_    0.868744 0.829048 0.639988 0.111148
H12   H     H_    0.913322 0.840742 0.734815 0.093708
H13   H     H_    0.710937 0.854066 0.703721 0.139031
H14   H     H_    0.386657 0.680276 0.262146 -0.006708
H15   H     H_    0.338005 0.770582 0.179002 0.155080
H16   H     H_    0.387229 0.349897 0.334571 -0.069037
H17   H     H_    0.597973 0.377776 0.321880 -0.032688
H18   H     H_    0.471107 0.346229 0.203166 -0.074380
H19   H     H_    0.482727 0.704554 0.134861 0.113485
H20   H     H_    0.164822 0.359829 0.732290 0.075858
H21   H     H_    0.966991 0.305467 0.721251 -0.072235
H22   H     H_    0.245843 0.274033 0.822493 0.154313
H23   H     H_    0.063698 0.326014 0.848168 0.076595
H24   H     H_    0.050650 0.217386 0.810041 0.139206
H25   H     H_    0.707053 0.268863 0.681629 -0.067816
H26   H     H_    0.503111 0.252147 0.642464 0.088412
H27   H     H_    0.604078 0.123086 0.673736 0.104379
H28   H     H_    0.435154 0.156111 0.728353 0.160870
H29   H     H_    0.873304 0.733722 0.309785 0.117608
H30   H     H_    0.639734 0.172536 0.766476 0.131932
H31   H     H_    0.824851 0.489159 0.656449 0.072079
H32   H     H_    0.591264 0.421931 0.872649 0.109104
H33   H     H_    0.910603 0.370381 0.197743 0.157154
H34   H     H_    0.290065 0.615335 0.801786 0.142464
H35   H     H_    0.605466 0.562561 0.124351 0.126708
H36   H     H_    0.362103 0.508476 0.342438 0.052771
H37   H     H_    0.685912 0.428062 0.993712 0.136148
H38   H     H_    0.394687 0.607837 0.918458 0.097980
H39   H     H_    0.508695 0.566324 0.005427 0.078920
H40   H     H_    0.228014 0.918389 0.461720 0.173974
H41   H     H_    0.679141 0.866714 0.559866 0.119264
H42   H     H_    0.342186 0.667838 0.469044 0.059514
H43   H     H_    0.845370 0.323971 0.534757 0.078652
H44   H     H_    0.828368 0.808994 0.209191 0.065215
H45   H     H_    0.314366 0.687986 0.605382 0.043501
H46   H     H_    0.113321 0.721490 0.588436 0.015503
N1    N     N_2   0.509850 0.989835 0.518145 -0.131299
N2    N     N_2   0.659842 0.005726 0.520659 -0.190534
O1    O     O_2   0.884010 0.444810 0.325060 -0.469510
O2    O     O_3   0.625981 0.704401 0.651166 -0.622716
O3    O     O_3   0.114087 0.775803 0.328844 -0.580020
O4    O     O_2   0.305690 0.555220 0.674980 -0.428662
O5    O     O_3   0.057610 0.548940 0.585700 -0.501690
O6    O     O_3   0.548930 0.405410 0.631060 -0.484654
O7    O     O_3   0.153447 0.686086 0.686768 -0.655442
O8    O     O_3   0.631040 0.400420 0.463490 -0.494697
O9    O     O_3   0.135930 0.361590 0.595000 -0.505060
O10   O     O_2   0.248988 0.214187 0.549434 -0.408071
O11   O     O_3   0.161865 0.237180 0.682729 -0.580660
O12   O     O_3   0.132090 0.451130 0.414310 -0.505191
O13   O     O_3   0.558660 0.599640 0.536520 -0.457034
O14   O     O_2   0.381010 0.300300 0.465220 -0.438899
O15   O     O_3   0.551012 0.262000 0.348975 -0.561250
O16   O     O_2   0.427279 0.465286 0.756782 -0.484080
O17   O     O_3   0.522861 0.315804 0.747413 -0.603898
O18   O     O_3   0.640770 0.594650 0.368950 -0.457121
O19   O     O_2   0.767060 0.535252 0.242701 -0.442145
O20   O     O_3   0.036664 0.313341 0.319156 -0.584250
O21   O     O_3   0.640363 0.677031 0.246378 -0.607804
O22   O     O_2   0.808690 0.699720 0.534830 -0.487277
O23   O     O_3   0.053760 0.638480 0.405010 -0.471381
O24   O     O_2   0.929722 0.789468 0.443843 -0.476147
P1    P     P_3+3 0.056550 0.421630 0.336220 1.018493
P2    P     P_3+3 0.635450 0.689180 0.556380 1.007703
P3    P     P_3+3 0.083022 0.747186 0.413896 1.018882
P4    P     P_3+3 0.133150 0.578440 0.663790 0.982172
P5    P     P_3+3 0.113042 0.254663 0.595614 1.010416
P6    P     P_3+3 0.618601 0.580306 0.274203 1.000575
P7    P     P_3+3 0.561575 0.296561 0.442091 1.045214
P8    P     P_3+3 0.566577 0.413598 0.724642 0.970140
C55   C     C_2   0.513755 0.790251 0.314928 0.858967
O25   O     O_2   0.422548 0.846999 0.319560 -0.500447
O26   O     O_R   0.637309 0.792015 0.366803 -0.766217
H47   H     H_    0.653425 0.848030 0.398691 0.327929
C56   C     C_2   0.760026 0.704722 0.763723 0.855755
O27   O     O_2   0.630206 0.677574 0.782349 -0.555538
O28   O     O_R   0.891442 0.715332 0.813219 -0.734129
H48   H     H_    0.994580 0.737395 0.793661 0.284502
Cl1   Cl    Cl    0.303451 0.227200 0.214668 -0.523891
Cl2   Cl    Cl    0.651834 0.237215 0.200880 -0.480166
C57   C     C_2   0.066687 0.860342 0.202682 0.934350
O29   O     O_2   0.186051 0.900082 0.232260 -0.488619
O30   O     O_R   0.051495 0.843783 0.127332 -0.708547
H49   H     H_    0.148119 0.866909 0.103343 0.332192
Cl3   Cl    Cl    0.781024 0.318634 0.060631 -0.596674
Cl4   Cl    Cl    0.026365 0.671183 0.213692 -0.701663
Cl5   Cl    Cl    0.454369 0.103758 0.425830 -0.515701
C58   C     C_2   0.961866 0.066430 0.591349 0.903538
O31   O     O_2   0.107082 0.065365 0.580837 -0.574777
O32   O     O_R   0.890596 0.013290 0.634074 -0.761086
H50   H     H_    0.972341 0.978286 0.654025 0.302018
C59   C     C_2   0.882631 0.902105 0.301519 0.858082
O33   O     O_2   0.754304 0.933312 0.292381 -0.545629
O34   O     O_R   0.984677 0.934871 0.360915 -0.686292
H51   H     H_    0.937294 0.982929 0.393221 0.316922

loop_
_geom_bond_atom_site_label_1
_geom_bond_atom_site_label_2
_ccdc_geom_bond_type
O21   P6    S    
C59   O34   S    
C53   C54   S    
C19   H31   S    
Ba2   O5    S    
C38   C39   A    
C53   C56   S    
C32   C35   A    
C39   C40   A    
C8    H27   S    
C46   P7    S    
O6    P8    S    
C57   O29   D    
C17   C29   A    
C47   N2    S    
C2    H14   S    
Ba2   O14   S    
C5    C6    S    
C51   C52   S    
C13   C17   A    
C55   O26   S    
C44   C47   A    
Ba2   O8    S    
C48   H43   S    
C35   C36   A    
C2    O21   S    
C10   C26   A    
C21   C27   A    
O32   H50   S    
C57   O30   S    
C22   C24   A    
C32   C33   A    
C3    H16   S    
Ba1   P1    S    
C56   O28   S    
Ba1   O8    S    
C38   H42   S    
C36   C37   A    
C4    Cl2   S    
Ba2   O9    S    
C52   H7    S    
O22   P2    D    
C50   C58   S    
O28   H48   S    
Ba2   O4    S    
C36   H36   S    
C9    C22   A    
C15   C18   A    
C34   C45   S    
C34   H46   S    
Ba1   Ba2   S    
C5    O11   S    
Ba1   O18   S    
O18   P6    S    
Ba1   O5    S    
C2    C55   S    
C9    C13   A    
C24   C32   A    
Ba2   O6    S    
O12   P1    S    
C25   C37   A    
C14   C15   A    
C6    H23   S    
Ba2   P4    S    
C26   H33   S    
Ba1   O12   S    
C1    H19   S    
C7    C8    S    
C58   O32   S    
C7    H26   S    
C5    H21   S    
C46   C48   A    
C12   C23   S    
O9    P5    S    
C19   C20   A    
C6    H22   S    
C10   Cl3   S    
Ba2   O12   S    
O5    P4    S    
C31   H39   S    
C27   H34   S    
C53   H9    S    
C51   H4    S    
C4    H18   S    
O23   P3    S    
C38   C43   A    
C44   C46   A    
C53   O2    S    
C16   C21   A    
Ba1   O22   S    
O3    P3    S    
Ba1   P2    S    
C40   H41   S    
C4    Cl1   S    
C16   C17   A    
O1    P1    D    
O11   P5    S    
C48   C49   A    
C54   H12   S    
C52   H6    S    
O15   P7    S    
C49   C50   A    
C11   H37   S    
C34   H45   S    
O16   P8    D    
C1    H15   S    
C41   C42   A    
C22   C30   A    
C27   C28   A    
C42   H40   S    
C45   H1    S    
C23   H44   S    
C7    O17   S    
C29   C30   A    
C28   C29   A    
O26   H47   S    
C47   C50   A    
C34   O7    S    
C15   C16   A    
C24   C25   A    
C23   C57   S    
Ba1   O13   S    
C18   P8    S    
O13   P2    S    
C58   O31   D    
C12   O3    S    
C3    O15   S    
C43   P3    S    
C11   C13   A    
C59   O33   D    
C1    H10   S    
C40   C41   A    
O8    P7    S    
C51   H5    S    
C1    C2    S    
O24   P3    D    
C23   C59   S    
C42   C43   A    
C6    H24   S    
O2    P2    S    
C44   Cl5   S    
C8    H30   S    
C20   P4    S    
C20   C21   A    
Ba1   O23   S    
C12   H29   S    
C51   O20   S    
C9    C10   A    
C5    H20   S    
C54   H11   S    
C37   P1    S    
C55   O25   D    
C39   P2    S    
C30   C31   A    
C28   H38   S    
Ba2   O13   S    
C56   O27   D    
O34   H51   S    
C45   H2    S    
C49   P5    S    
C3    C4    S    
C52   H8    S    
C8    H28   S    
C31   C33   A    
O10   P5    D    
O20   P1    S    
O17   P8    S    
C3    H17   S    
C41   N1    S    
O4    P4    D    
C45   H3    S    
O7    P4    S    
C18   C19   A    
C54   H13   S    
C11   C14   A    
C12   Cl4   S    
N1    N2    D    
C14   H32   S    
C35   P6    S    
C7    H25   S    
O30   H49   S    
O19   P6    D    
O14   P7    D    
Ba1   O1    S    
C25   C26   A    
C33   H35   S    
