data_mof_unit_47168.cif
_audit_creation_date              2012-12-10T17:59:43-0500
_audit_creation_method            fapswitch 2.2
_symmetry_space_group_name_H-M    P1
_symmetry_Int_Tables_number       1
_space_group_crystal_system       triclinic
_cell_length_a                    10.831788
_cell_length_b                    9.528718
_cell_length_c                    15.880568
_cell_angle_alpha                 90.005694
_cell_angle_beta                  90.250141
_cell_angle_gamma                 90.299455
_cell_volume                      1639.04389215

loop_
_atom_site_label
_atom_site_type_symbol
_atom_type_description
_atom_site_fract_x
_atom_site_fract_y
_atom_site_fract_z
_atom_type_partial_charge
C1    C     C_R   0.262647 0.499628 0.499696 0.815268
C2    C     C_3   0.633990 0.501767 0.951649 -0.367405
C3    C     C_3   0.633917 0.501751 0.049262 -0.360470
C4    C     C_1   0.499799 0.500000 0.825110 -0.099398
C5    C     C_1   0.499558 0.499988 0.174911 -0.095804
C6    C     C_1   0.499360 0.500012 0.250472 -0.116440
C7    C     C_R   0.065579 0.403770 0.449617 -0.219588
C8    C     C_R   0.067747 0.594106 0.550361 -0.245444
C9    C     C_R   0.937372 0.405502 0.446867 0.406533
C10   C     C_R   0.939798 0.593442 0.553292 0.361524
C11   C     C_R   0.872776 0.500063 0.500015 -0.296760
C12   C     C_R   0.129766 0.498882 0.499940 -0.158059
C13   C     C_R   0.443769 0.073999 0.436675 0.022193
C14   C     C_R   0.444049 0.925334 0.436562 -0.007312
C15   C     C_R   0.499310 0.500010 0.340164 0.858086
C16   C     C_R   0.554376 0.926105 0.564057 0.053367
C17   C     C_R   0.555451 0.074692 0.563671 0.031547
C18   C     C_R   0.738111 0.500209 0.500085 0.931980
C19   C     C_R   0.499460 0.499979 0.659855 0.858402
C20   C     C_3   0.431951 0.631164 0.048589 -0.379703
C21   C     C_3   0.433439 0.367038 0.048582 -0.371033
C22   C     C_3   0.433504 0.367052 0.950990 -0.377969
C23   C     C_3   0.432031 0.631178 0.950999 -0.369182
C24   C     C_1   0.499612 0.499981 0.749547 -0.125028
C25   C     C_3   0.499729 0.499985 0.082752 0.305352
C26   C     C_3   0.499853 0.500000 0.917271 0.307654
Cu1   Cu    Cu3+1 0.500020 0.640660 0.500000 1.012668
Cu2   Cu    Cu3+1 0.500020 0.359340 0.500000 1.014843
H1    H     H_    0.335190 0.632313 0.927268 0.167800
H2    H     H_    0.336685 0.363383 0.927270 0.168608
H3    H     H_    0.597065 0.870847 0.615849 0.182514
H4    H     H_    0.600535 0.130609 0.614559 0.133475
H5    H     H_    0.335070 0.632280 0.071667 0.169233
H6    H     H_    0.336590 0.363350 0.071670 0.170215
H7    H     H_    0.480583 0.271129 0.072137 0.170231
H8    H     H_    0.477996 0.728307 0.072160 0.167898
H9    H     H_    0.480666 0.271138 0.927730 0.168024
H10   H     H_    0.478128 0.728318 0.927755 0.171004
H11   H     H_    0.683610 0.596549 0.072848 0.174122
H12   H     H_    0.684667 0.408274 0.072845 0.181286
H13   H     H_    0.683721 0.596568 0.928401 0.181628
H14   H     H_    0.684771 0.408292 0.928396 0.171769
H15   H     H_    0.116357 0.331493 0.410305 0.200179
H16   H     H_    0.120086 0.666625 0.589305 0.195883
H17   H     H_    0.398045 0.129426 0.386073 0.123468
H18   H     H_    0.398601 0.869377 0.385838 0.127636
N1    N     N_R   0.500030 0.852070 0.500020 -0.176362
N2    N     N_R   0.500030 0.147930 0.500020 -0.163732
O1    O     O_R   0.319660 0.618740 0.500000 -0.587987
O2    O     O_R   0.319660 0.381260 0.500000 -0.590830
O3    O     O_R   0.500020 0.618840 0.379440 -0.597338
O4    O     O_R   0.500020 0.381160 0.379440 -0.558361
O5    O     O_R   0.680370 0.618830 0.500010 -0.522590
O6    O     O_R   0.680370 0.381170 0.500010 -0.527982
O7    O     O_R   0.500010 0.618730 0.620560 -0.568062
O8    O     O_R   0.500010 0.381270 0.620560 -0.604284
S1    S     S_3+6 0.863915 0.293327 0.372453 0.007604
O9    O     O_2   0.805621 0.171332 0.417569 -0.248435
O10   O     O_2   0.766356 0.373110 0.325319 -0.326070
O11   O     O_3   0.967437 0.231774 0.303135 -0.556006
H19   H     H_    0.918882 0.172038 0.263989 0.374231
S2    S     S_3+6 0.870634 0.709767 0.626090 0.001084
O12   O     O_2   0.829262 0.838436 0.579496 -0.243537
O13   O     O_2   0.761622 0.642001 0.668117 -0.343060
O14   O     O_3   0.972962 0.758909 0.700582 -0.519609
H20   H     H_    0.989677 0.672471 0.733269 0.336530

loop_
_geom_bond_atom_site_label_1
_geom_bond_atom_site_label_2
_ccdc_geom_bond_type
C19   O8    A    
C13   N2    A    
C4    C26   S    
Cu1   O5    S    
C11   C18   S    
S2    O12   D    
C21   H7    S    
C7    H15   S    
C23   H10   S    
C9    C11   A    
C1    O2    A    
S2    O13   D    
C15   O3    A    
C18   O5    A    
C20   C23   S    
C8    C12   A    
C17   N2    A    
C19   C24   S    
Cu2   O8    S    
C3    H11   S    
C2    C26   S    
C15   O4    A    
C16   H3    S    
C13   H17   S    
Cu2   O4    S    
S1    O9    D    
C10   S2    S    
C1    C12   S    
C1    O1    A    
C2    H14   S    
C5    C25   S    
C20   H5    S    
C23   H1    S    
C16   N1    A    
C14   N1    A    
Cu1   O3    S    
C3    H12   S    
C2    C3    S    
C9    S1    S    
C22   C26   S    
C5    C6    T    
C4    C24   T    
Cu1   O7    S    
C7    C12   A    
S1    O10   D    
C16   C17   A    
C20   C25   S    
C18   O6    A    
C2    H13   S    
Cu1   N1    S    
C13   C14   A    
C20   H8    S    
Cu1   O1    S    
C3    C25   S    
C8    C10   A    
O14   H20   S    
C10   C11   A    
C23   C26   S    
C19   O7    A    
Cu1   Cu2   S    
C7    C9    A    
C17   H4    S    
Cu2   O6    S    
Cu2   N2    S    
S1    O11   S    
C21   C25   S    
C21   H6    S    
C22   H2    S    
S2    O14   S    
C6    C15   S    
C21   C22   S    
C22   H9    S    
Cu2   O2    S    
C8    H16   S    
O11   H19   S    
C14   H18   S    
