data_mof_unit_57781.cif
_audit_creation_date              2012-12-10T17:37:31-0500
_audit_creation_method            fapswitch 2.2
_symmetry_space_group_name_H-M    P1
_symmetry_Int_Tables_number       1
_space_group_crystal_system       triclinic
_cell_length_a                    11.964076
_cell_length_b                    12.965812
_cell_length_c                    16.778802
_cell_angle_alpha                 90.384381
_cell_angle_beta                  81.970017
_cell_angle_gamma                 92.237866
_cell_volume                      2575.30640303

loop_
_atom_site_label
_atom_site_type_symbol
_atom_type_description
_atom_site_fract_x
_atom_site_fract_y
_atom_site_fract_z
_atom_type_partial_charge
C1    C     C_R   0.521041 0.700043 0.498347 0.903381
C2    C     C_R   0.558427 0.129795 0.520300 0.417324
C3    C     C_R   0.452466 0.975944 0.487109 0.013949
C4    C     C_R   0.547091 0.022637 0.517127 0.002226
C5    C     C_R   0.968299 0.428879 0.409479 -0.345638
C6    C     C_R   0.032017 0.573695 0.589354 -0.334178
C7    C     C_R   0.850132 0.433334 0.419720 0.014557
C8    C     C_R   0.150281 0.569822 0.578823 0.057409
C9    C     C_R   0.851420 0.526992 0.541439 -0.054803
C10   C     C_R   0.148542 0.472727 0.458720 -0.065765
C11   C     C_R   0.970552 0.525612 0.533166 0.090086
C12   C     C_R   0.479104 0.299651 0.502184 0.924030
C13   C     C_R   0.029543 0.475187 0.466503 0.097543
C14   C     C_R   0.485357 0.503181 0.654031 0.871968
C15   C     C_R   0.515316 0.503577 0.346034 0.841246
C16   C     C_R   0.479109 0.523182 0.739851 -0.031670
C17   C     C_R   0.526126 0.535010 0.262107 -0.030015
C18   C     C_R   0.577423 0.522580 0.776358 -0.209936
C19   C     C_R   0.434844 0.581962 0.235071 -0.229256
C20   C     C_R   0.574578 0.553818 0.855685 -0.149275
C21   C     C_R   0.447055 0.625987 0.159511 -0.169406
C22   C     C_R   0.473329 0.586922 0.899179 0.206354
C23   C     C_R   0.469049 0.188730 0.501275 -0.157519
C24   C     C_R   0.548691 0.617759 0.107554 0.210653
C25   C     C_R   0.374605 0.585093 0.863305 -0.180622
C26   C     C_R   0.641311 0.573496 0.134837 -0.174507
C27   C     C_R   0.377325 0.553562 0.783973 -0.195093
C28   C     C_R   0.630353 0.532695 0.212208 -0.201304
C29   C     C_2   0.464227 0.609941 0.984965 -0.228461
C30   C     C_2   0.553505 0.637574 0.021507 -0.244521
C31   C     C_3   0.745959 0.176772 0.486384 0.104518
C32   C     C_3   0.852527 0.205983 0.522604 -0.798501
C33   C     C_3   0.377463 0.815946 0.362765 0.097440
C34   C     C_R   0.531734 0.810317 0.500725 -0.160882
C35   C     C_3   0.268835 0.784715 0.329931 -0.817383
C36   C     C_R   0.629113 0.961544 0.543043 -0.195054
C37   C     C_R   0.364783 0.035890 0.468669 -0.185490
C38   C     C_R   0.622197 0.856063 0.533820 -0.289251
C39   C     C_R   0.372447 0.141601 0.476829 -0.302068
C40   C     C_R   0.446751 0.869724 0.476316 0.412445
H1    H     H_    0.656774 0.498865 0.743517 0.155187
H2    H     H_    0.382878 0.590445 0.019950 0.148243
H3    H     H_    0.295310 0.607908 0.896837 0.125133
H4    H     H_    0.720296 0.566518 0.095189 0.122707
H5    H     H_    0.375518 0.663139 0.140825 0.125482
H6    H     H_    0.650970 0.549053 0.882904 0.124066
H7    H     H_    0.304248 0.186775 0.461372 0.181715
H8    H     H_    0.685983 0.809968 0.554667 0.181678
H9    H     H_    0.698907 0.994652 0.570578 0.190815
H10   H     H_    0.290194 0.001621 0.447633 0.192159
H11   H     H_    0.195001 0.432809 0.408529 0.124105
H12   H     H_    0.354235 0.586763 0.272922 0.164708
H13   H     H_    0.804879 0.566291 0.591929 0.123205
H14   H     H_    0.735694 0.233493 0.438987 0.152930
H15   H     H_    0.758341 0.100431 0.456447 0.114514
H16   H     H_    0.867138 0.147015 0.567335 0.242628
H17   H     H_    0.926394 0.210227 0.474502 0.201720
H18   H     H_    0.843885 0.282115 0.553055 0.271100
H19   H     H_    0.440779 0.756263 0.345555 0.145675
H20   H     H_    0.409730 0.890910 0.334520 0.122767
H21   H     H_    0.205218 0.844384 0.345450 0.247372
H22   H     H_    0.285682 0.777125 0.263443 0.198009
H23   H     H_    0.197314 0.606257 0.622612 0.127655
H24   H     H_    0.234312 0.709783 0.356348 0.261616
H25   H     H_    0.803470 0.399113 0.374849 0.118093
H26   H     H_    0.011275 0.390147 0.357235 0.141096
H27   H     H_    0.989137 0.613525 0.641081 0.141802
H28   H     H_    0.702623 0.498804 0.232679 0.146530
H29   H     H_    0.300351 0.555006 0.756893 0.150122
H30   H     H_    0.635296 0.655990 0.986813 0.144877
N1    N     N_R   0.206400 0.519440 0.514690 -0.097582
N2    N     N_R   0.793600 0.480560 0.485310 -0.094914
O1    O     O_R   0.421320 0.658850 0.503920 -0.565155
O2    O     O_3   0.353955 0.823699 0.447336 -0.597919
O3    O     O_R   0.578680 0.341150 0.496080 -0.587770
O4    O     O_R   0.609840 0.646370 0.494500 -0.630927
O5    O     O_R   0.390160 0.353630 0.505500 -0.626001
O6    O     O_R   0.394600 0.506990 0.621070 -0.633743
O7    O     O_R   0.605400 0.493010 0.378930 -0.633024
O8    O     O_R   0.583120 0.494520 0.611640 -0.620058
O9    O     O_R   0.416880 0.505480 0.388360 -0.629448
O10   O     O_3   0.652020 0.176561 0.548166 -0.597167
Zn1   Zn    Zn3+2 0.374120 0.508330 0.506290 0.959621
Zn2   Zn    Zn3+2 0.625880 0.491670 0.493710 0.951849

loop_
_geom_bond_atom_site_label_1
_geom_bond_atom_site_label_2
_ccdc_geom_bond_type
C4    C36   A    
C22   C29   S    
C29   H2    S    
C9    N2    A    
C32   H18   S    
O8    Zn2   S    
O4    Zn2   S    
C26   H4    S    
C15   O9    A    
C12   C23   S    
C31   O10   S    
C34   C40   A    
C28   H28   S    
C24   C26   A    
O7    Zn2   S    
O1    Zn1   S    
O3    Zn2   S    
O5    Zn1   S    
C30   H30   S    
O6    Zn1   S    
N1    Zn1   S    
C15   O7    A    
C22   C25   A    
C35   H24   S    
C14   O8    A    
C38   H8    S    
C27   H29   S    
C10   N1    A    
C16   C27   A    
C33   H19   S    
C17   C28   A    
C25   H3    S    
C32   H17   S    
C10   H11   S    
C19   H12   S    
O9    Zn1   S    
C1    C34   S    
C21   H5    S    
C18   H1    S    
C6    C11   A    
C5    C7    A    
C17   C19   A    
C6    C8    A    
C2    C4    A    
C29   C30   D    
C7    H25   S    
C31   C32   S    
C12   O5    A    
C35   H21   S    
C9    C11   A    
N2    Zn2   S    
C6    H27   S    
C20   C22   A    
C3    C40   A    
C33   H20   S    
C14   C16   S    
C2    O10   S    
C9    H13   S    
C3    C4    A    
C7    N2    A    
C39   H7    S    
C15   C17   S    
C8    N1    A    
C19   C21   A    
C34   C38   A    
C1    O4    A    
C5    C13   A    
C5    H26   S    
C10   C13   A    
C25   C27   A    
C26   C28   A    
C1    O1    A    
C36   C38   A    
C37   C39   A    
C37   H10   S    
C11   C13   A    
C23   C39   A    
C33   C35   S    
C40   O2    S    
C35   H22   S    
C18   C20   A    
C14   O6    A    
C31   H14   S    
C24   C30   S    
C12   O3    A    
C8    H23   S    
C33   O2    S    
C3    C37   A    
C16   C18   A    
C21   C24   A    
C2    C23   A    
C31   H15   S    
C32   H16   S    
C20   H6    S    
C36   H9    S    
