data_mof_unit_27577.cif
_audit_creation_date              2012-12-11T15:41:19-0500
_audit_creation_method            fapswitch 2.2
_symmetry_space_group_name_H-M    P1
_symmetry_Int_Tables_number       1
_space_group_crystal_system       triclinic
_cell_length_a                    14.976649
_cell_length_b                    15.14796
_cell_length_c                    14.94051
_cell_angle_alpha                 109.049443
_cell_angle_beta                  109.624595
_cell_angle_gamma                 110.397275
_cell_volume                      2587.56603313

loop_
_atom_site_label
_atom_site_type_symbol
_atom_type_description
_atom_site_fract_x
_atom_site_fract_y
_atom_site_fract_z
_atom_type_partial_charge
C1    C     C_R   0.196981 0.997148 0.906346 -0.123821
C2    C     C_R   0.755765 0.941941 0.033705 -0.100881
C3    C     C_R   0.773179 0.323703 0.325529 0.030092
C4    C     C_R   0.131755 0.695917 0.697041 0.050629
C5    C     C_R   0.499086 0.935799 0.301470 0.050128
C6    C     C_R   0.497771 0.961029 0.672710 0.039153
C7    C     C_R   0.501926 0.306002 0.949526 0.052639
C8    C     C_R   0.495567 0.686605 0.035212 0.065907
C9    C     C_R   0.331610 0.173619 0.602246 -0.179014
C10   C     C_R   0.626200 0.744605 0.385842 -0.172269
C11   C     C_R   0.401065 0.261090 0.710142 -0.130542
C12   C     C_R   0.569485 0.678726 0.271706 -0.123865
C13   C     C_R   0.358942 0.315581 0.763274 0.072311
C14   C     C_R   0.628090 0.666354 0.217089 0.074951
C15   C     C_R   0.246427 0.281899 0.705342 -0.265962
C16   C     C_R   0.744160 0.722443 0.277824 -0.271733
C17   C     C_R   0.177460 0.195165 0.596949 0.436112
C18   C     C_R   0.800823 0.790852 0.391838 0.431869
C19   C     C_R   0.219993 0.140699 0.545683 -0.120032
C20   C     C_R   0.741697 0.801566 0.445840 -0.157004
C21   C     C_R   0.426737 0.501416 0.907080 -0.242510
C22   C     C_R   0.575492 0.492456 0.070810 -0.234304
C23   C     C_R   0.747865 0.221812 0.314395 -0.086302
C24   C     C_R   0.195119 0.789489 0.699344 -0.144425
C25   C     C_R   0.493063 0.587737 0.016059 0.055822
C26   C     C_R   0.507016 0.404739 0.962904 0.057069
C27   C     C_R   0.567310 0.583677 0.099162 0.037375
C28   C     C_R   0.431858 0.407707 0.878939 0.048365
C29   C     C_R   0.868475 0.525022 0.429178 -0.155956
C30   C     C_R   0.963640 0.520621 0.622032 -0.155568
C31   C     C_R   0.961157 0.618531 0.522356 -0.151386
C32   C     C_R   0.871350 0.427028 0.528683 -0.147513
C33   C     C_R   0.015678 0.613454 0.615654 0.124171
C34   C     C_R   0.831757 0.426095 0.428839 0.128880
C35   C     C_R   0.598359 0.955180 0.572460 -0.193461
C36   C     C_R   0.398631 0.845323 0.376209 -0.183616
C37   C     C_R   0.599079 0.951014 0.479323 -0.180170
C38   C     C_R   0.397999 0.852227 0.470373 -0.172756
C39   C     C_R   0.498955 0.904985 0.383605 0.143732
C40   C     C_R   0.497838 0.917670 0.570780 0.148957
C41   C     C_R   0.967950 0.848091 0.947779 -0.164652
C42   C     C_R   0.880518 0.951391 0.853359 -0.172510
C43   C     C_R   0.881851 0.856341 0.956050 -0.160146
C44   C     C_R   0.966774 0.943171 0.845080 -0.157784
C45   C     C_R   0.407385 0.906839 0.208735 -0.121887
C46   C     C_R   0.590281 0.039814 0.775140 -0.131123
C47   C     C_R   0.846989 0.919230 0.919961 0.143001
C48   C     C_R   0.018676 0.902608 0.903317 0.137691
C49   C     C_R   0.592854 0.300979 0.001303 -0.166209
C50   C     C_R   0.404821 0.692751 0.985123 -0.149049
C51   C     C_R   0.591242 0.996574 0.299860 -0.146203
C52   C     C_R   0.405954 0.938949 0.684481 -0.119634
C53   C     C_R   0.408459 0.212102 0.914585 -0.100798
C54   C     C_R   0.589768 0.784715 0.080712 -0.123137
C55   C     C_R   0.748165 0.313237 0.222876 -0.119983
C56   C     C_R   0.196700 0.698526 0.790146 -0.118387
C57   C     C_R   0.196625 0.906086 0.997551 -0.121013
C58   C     C_R   0.764352 0.039268 0.948826 -0.122867
C59   C     C_R   0.133084 0.934914 0.935427 0.043712
C60   C     C_R   0.788876 0.962874 0.963373 0.035278
H1    H     H_    0.170446 0.022534 0.847692 0.105840
H2    H     H_    0.767186 0.891437 0.067506 0.094615
H3    H     H_    0.364506 0.131626 0.562283 0.140546
H4    H     H_    0.580355 0.750254 0.427912 0.154056
H5    H     H_    0.487658 0.286348 0.752034 0.122000
H6    H     H_    0.479929 0.633904 0.226473 0.119171
H7    H     H_    0.211953 0.322255 0.744559 0.149817
H8    H     H_    0.790140 0.711808 0.236759 0.149942
H9    H     H_    0.373455 0.508605 0.843182 0.141510
H10   H     H_    0.629023 0.486315 0.135675 0.136557
H11   H     H_    0.834289 0.528956 0.355314 0.117248
H12   H     H_    0.999256 0.515660 0.694899 0.110324
H13   H     H_    0.995133 0.690710 0.516570 0.155170
H14   H     H_    0.839722 0.353652 0.533196 0.117414
H15   H     H_    0.677007 0.997513 0.647194 0.114507
H16   H     H_    0.319990 0.802972 0.301528 0.112689
H17   H     H_    0.678308 0.991677 0.486105 0.137480
H18   H     H_    0.319026 0.815365 0.465278 0.118236
H19   H     H_    0.001085 0.809180 0.986776 0.108616
H20   H     H_    0.848135 0.991907 0.816196 0.108823
H21   H     H_    0.757802 0.199881 0.377367 0.107647
H22   H     H_    0.166383 0.821259 0.648107 0.121281
H23   H     H_    0.851378 0.822530 0.000233 0.112127
H24   H     H_    0.998795 0.978727 0.802708 0.128644
H25   H     H_    0.321904 0.848813 0.176162 0.084416
H26   H     H_    0.673119 0.086840 0.793302 0.087305
H27   H     H_    0.678033 0.357879 0.031061 0.100550
H28   H     H_    0.318564 0.632275 0.946458 0.098319
H29   H     H_    0.675531 0.019788 0.350718 0.120392
H30   H     H_    0.319875 0.885010 0.621712 0.103554
H31   H     H_    0.322938 0.187695 0.866856 0.111590
H32   H     H_    0.674184 0.808754 0.132314 0.111329
H33   H     H_    0.759197 0.376132 0.201611 0.092032
H34   H     H_    0.170359 0.646752 0.822549 0.082499
H35   H     H_    0.169481 0.847474 0.022815 0.084297
H36   H     H_    0.792705 0.084038 0.911668 0.087249
H37   H     H_    0.166771 0.073235 0.461996 0.160374
H38   H     H_    0.785017 0.852871 0.534242 0.146170
N1    N     N_R   0.293810 0.002730 0.945950 -0.041651
N2    N     N_R   0.706190 0.997270 0.054050 -0.040486
N3    N     N_R   0.706160 0.152130 0.208910 -0.041990
N4    N     N_R   0.293840 0.847870 0.791090 -0.040546
N5    N     N_R   0.443140 0.945920 0.152090 -0.040378
N6    N     N_R   0.556860 0.054080 0.847910 -0.039900
N7    N     N_R   0.556830 0.208940 0.002760 -0.039439
N8    N     N_R   0.443170 0.791060 0.997240 -0.039112
N9    N     N_R   0.556790 0.002750 0.208910 -0.042435
N10   N     N_R   0.443210 0.997250 0.791090 -0.039562
N11   N     N_R   0.443180 0.152110 0.945950 -0.043619
N12   N     N_R   0.556820 0.847890 0.054050 -0.042325
N13   N     N_R   0.706170 0.208950 0.152090 -0.044005
N14   N     N_R   0.293830 0.791050 0.847910 -0.040351
N15   N     N_R   0.293800 0.945910 0.002760 -0.041215
N16   N     N_R   0.706200 0.054090 0.997240 -0.042006
Ni1   Ni    Ni4+2 0.369690 0.999990 0.869700 0.225305
Ni2   Ni    Ni4+2 0.630310 0.000010 0.130300 0.240623
Ni3   Ni    Ni4+2 0.369670 0.869670 0.000000 0.204924
Ni4   Ni    Ni4+2 0.630330 0.130330 0.000000 0.214589
Br1   Br    Br    0.025321 0.151775 0.518978 -0.575042
Br2   Br    Br    0.958567 0.866177 0.474243 -0.625083

loop_
_geom_bond_atom_site_label_1
_geom_bond_atom_site_label_2
_ccdc_geom_bond_type
C38   C40   A    
C42   H20   S    
N12   Ni2   S    
C43   H23   S    
C49   H27   S    
N4    N14   A    
N2    Ni2   S    
C55   H33   S    
C1    N1    A    
C19   H37   S    
C56   H34   S    
C35   H15   S    
C7    C26   S    
C21   C25   A    
N13   Ni4   S    
N10   Ni1   S    
C35   C37   A    
N11   Ni1   S    
C1    C59   A    
N1    Ni1   S    
N14   Ni3   S    
C4    C24   A    
C2    C60   A    
C31   H13   S    
C58   C60   A    
C54   N12   A    
C24   H22   S    
C58   H36   S    
N4    Ni1   S    
C45   N5    A    
C47   C60   S    
C3    C23   A    
C9    C19   A    
C10   C20   A    
C53   H31   S    
C31   C33   A    
C13   C28   S    
C16   H8    S    
C14   C27   S    
C36   H16   S    
C18   C20   A    
C50   H28   S    
C2    N2    A    
C4    C56   A    
C46   H26   S    
C8    C25   S    
C41   C43   A    
C6    C46   A    
N5    Ni3   S    
C42   C44   A    
N6    Ni4   S    
N2    N16   A    
C7    C49   A    
C52   H30   S    
C8    C54   A    
C46   N6    A    
C57   N15   A    
C38   H18   S    
C3    C34   S    
C5    C45   A    
C29   C34   A    
C21   H9    S    
C32   C34   A    
C45   H25   S    
C54   H32   S    
C24   N4    A    
C30   H12   S    
C29   C31   A    
C15   H7    S    
C20   H38   S    
C9    C11   A    
N16   Ni4   S    
C10   C12   A    
N15   Ni3   S    
C51   N9    A    
C21   C28   A    
C12   C14   A    
C22   C27   A    
C13   C15   A    
N8    Ni3   S    
C57   H35   S    
C6    C40   S    
N7    Ni4   S    
N3    N13   A    
C7    C53   A    
C18   Br2   S    
N6    N10   A    
C48   C59   S    
C58   N16   A    
C41   H19   S    
N8    N12   A    
C53   N11   A    
C15   C17   A    
N7    N11   A    
C4    C33   S    
C32   H14   S    
C23   H21   S    
C30   C33   A    
C55   N13   A    
C9    H3    S    
C26   C28   A    
C36   C39   A    
C10   H4    S    
C44   H24   S    
C1    H1    S    
N1    N15   A    
C49   N7    A    
C25   C27   A    
C3    C55   A    
C5    C39   S    
C35   C40   A    
C37   C39   A    
C44   C48   A    
C51   H29   S    
C30   C32   A    
C11   C13   A    
C23   N3    A    
C12   H6    S    
C36   C38   A    
C17   C19   A    
C41   C48   A    
C56   N14   A    
C8    C50   A    
C14   C16   A    
C42   C47   A    
N9    Ni2   S    
C57   C59   A    
C17   Br1   S    
C2    H2    S    
C37   H17   S    
C52   N10   A    
C16   C18   A    
C22   C26   A    
C50   N8    A    
N3    Ni2   S    
C5    C51   A    
N5    N9    A    
C6    C52   A    
C43   C47   A    
C22   H10   S    
C11   H5    S    
C29   H11   S    
