data_mof_unit_50948.cif
_audit_creation_date              2013-03-05T16:34:52-0500
_audit_creation_method            fapswitch 2.2
_symmetry_space_group_name_H-M    P1
_symmetry_Int_Tables_number       1
_space_group_crystal_system       triclinic
_cell_length_a                    15.098482
_cell_length_b                    9.083619
_cell_length_c                    7.794678
_cell_angle_alpha                 89.986069
_cell_angle_beta                  89.999821
_cell_angle_gamma                 89.997718
_cell_volume                      1069.03115346

loop_
_atom_site_label
_atom_site_type_symbol
_atom_site_description
_atom_site_fract_x
_atom_site_fract_y
_atom_site_fract_z
_atom_type_partial_charge
O1    O     O_R   0.500000 0.288390 0.642760 -0.577529
O2    O     O_R   0.500000 0.711610 0.357240 -0.577528
O3    O     O_R   0.500000 0.711610 0.642760 -0.565295
O4    O     O_R   0.500000 0.288390 0.357240 -0.565296
C1    C     C_R   0.500001 0.220073 0.500026 0.882627
C2    C     C_R   0.500000 0.779927 0.499974 0.882632
O5    O     O_R   0.370260 0.500000 0.642800 -0.564980
O6    O     O_R   0.629740 0.500000 0.357200 -0.564986
O7    O     O_R   0.629740 0.500000 0.642800 -0.564981
O8    O     O_R   0.370260 0.500000 0.357200 -0.564978
C3    C     C_R   0.328772 0.500002 0.500000 0.879063
C4    C     C_R   0.671228 0.499998 0.500000 0.879105
Cu1   Cu    Cu3+1 0.500000 0.500000 0.669080 1.097477
Cu2   Cu    Cu3+1 0.500000 0.500000 0.330920 1.097477
N1    N     N_1   0.500000 0.500000 0.076820 -0.022119
N2    N     N_1   0.500000 0.500000 0.923180 -0.022119
C5    C     C_R   0.812433 0.628801 0.546389 0.271689
C6    C     C_R   0.187566 0.371203 0.453506 0.271701
C7    C     C_R   0.812442 0.371202 0.453598 0.271688
C8    C     C_R   0.187561 0.628807 0.546483 0.271702
C9    C     C_R   0.767368 0.500001 0.499998 -0.217908
C10   C     C_R   0.232632 0.500004 0.500000 -0.217932
C11   C     C_R   0.905959 0.370238 0.452690 -0.132066
C12   C     C_R   0.094041 0.629772 0.547330 -0.132095
C13   C     C_R   0.905950 0.629768 0.547285 -0.132065
C14   C     C_R   0.094048 0.370239 0.452647 -0.132102
C15   C     C_R   0.952897 0.500004 0.499992 -0.143477
C16   C     C_R   0.047103 0.500004 0.499993 -0.143421
C17   C     C_R   0.954190 0.243668 0.405963 0.621513
C18   C     C_R   0.045804 0.756344 0.594001 0.621472
C19   C     C_R   0.954175 0.756342 0.593973 0.621505
C20   C     C_R   0.045819 0.243668 0.405936 0.621484
C21   C     C_1   0.500001 0.065395 0.500036 -0.060359
C22   C     C_1   0.500000 0.934605 0.499964 -0.060356
F1    F     F_    0.914565 0.116372 0.357612 -0.522973
F2    F     F_    0.085418 0.883662 0.642298 -0.522995
F3    F     F_    0.914543 0.883651 0.642265 -0.522979
F4    F     F_    0.085443 0.116365 0.357584 -0.522982
Br1   Br    Br    0.741582 0.800988 0.602361 -0.309434
Br2   Br    Br    0.258419 0.199006 0.397347 -0.309396
Br3   Br    Br    0.741607 0.199010 0.397642 -0.309393
Br4   Br    Br    0.258410 0.801007 0.602642 -0.309392

loop_
_geom_bond_atom_site_label_1
_geom_bond_atom_site_label_2
_geom_bond_distance
_ccdc_geom_bond_type
C13   C19   1.408826 A    
C8    Br4   1.945014 S    
C14   C20   1.408880 A    
C11   C15   1.424045 A    
C13   C15   1.424034 A    
C12   C16   1.424125 A    
C17   F1    1.355471 S    
C3    C10   1.451576 S    
C14   C16   1.424137 A    
O3    Cu1   1.933052 S    
C18   F2    1.355449 S    
O6    C4    1.277232 A    
O3    C2    1.274158 A    
C5    C13   1.412020 A    
Cu2   N1    1.980627 S    
C21   C22   1.188049 T    
Cu1   Cu2   2.635849 S    
O5    C3    1.277233 A    
O2    C2    1.274061 A    
O1    C1    1.274061 A    
C11   C17   1.408882 A    
C7    C9    1.401035 A    
C8    C10   1.401211 A    
C17   C20   1.383451 A    
C20   F4    1.355474 S    
C1    C21   1.405033 S    
C19   F3    1.355450 S    
O4    Cu2   1.933053 S    
C18   C19   1.383451 A    
O2    Cu2   1.933152 S    
O7    C4    1.277233 A    
C12   C18   1.408834 A    
O1    Cu1   1.933152 S    
O8    C3    1.277233 A    
N1    N2    1.197575 T    
C2    C22   1.405034 S    
O5    Cu1   1.969561 S    
C5    Br1   1.944536 S    
Cu1   N2    1.980627 S    
C15   C16   1.422377 A    
O7    Cu1   1.969558 S    
C7    C11   1.412009 A    
C6    Br2   1.944955 S    
O6    Cu2   1.969559 S    
C6    C10   1.401228 A    
C4    C9    1.451574 S    
C8    C12   1.412042 A    
C5    C9    1.401009 A    
C7    Br3   1.944483 S    
O8    Cu2   1.969559 S    
O4    C1    1.274158 A    
C6    C14   1.412025 A    
