data_mof_unit_5438.cif
_audit_creation_date              2013-03-05T16:10:10-0500
_audit_creation_method            fapswitch 2.2
_symmetry_space_group_name_H-M    P1
_symmetry_Int_Tables_number       1
_space_group_crystal_system       triclinic
_cell_length_a                    15.138784
_cell_length_b                    7.297571
_cell_length_c                    13.221464
_cell_angle_alpha                 90.0
_cell_angle_beta                  100.792206
_cell_angle_gamma                 90.000018
_cell_volume                      1434.82402888

loop_
_atom_site_label
_atom_site_type_symbol
_atom_site_description
_atom_site_fract_x
_atom_site_fract_y
_atom_site_fract_z
_atom_type_partial_charge
O1    O     O_R   0.648180 0.355050 0.151550 -0.566555
O2    O     O_R   0.351820 0.644950 0.848450 -0.512087
O3    O     O_R   0.851820 0.855050 0.348450 -0.566554
O4    O     O_R   0.148180 0.144950 0.651550 -0.512086
O5    O     O_R   0.835240 0.681980 0.154280 -0.574639
O6    O     O_R   0.164760 0.318020 0.845720 -0.578209
O7    O     O_R   0.664760 0.181980 0.345720 -0.574639
O8    O     O_R   0.335240 0.818020 0.654280 -0.578210
C1    C     C_R   0.862442 0.516364 0.131087 0.907710
C2    C     C_R   0.137910 0.484480 0.869150 0.903488
C3    C     C_R   0.637557 0.016364 0.368913 0.907711
C4    C     C_R   0.362090 0.984480 0.630850 0.903486
O9    O     O_R   0.647870 0.684600 0.139630 -0.511933
O10   O     O_R   0.352130 0.315400 0.860370 -0.559189
O11   O     O_R   0.852130 0.184600 0.360370 -0.511934
O12   O     O_R   0.147870 0.815400 0.639630 -0.559190
O13   O     O_R   0.663110 0.857440 0.333700 -0.579519
O14   O     O_R   0.336890 0.142560 0.666300 -0.571671
O15   O     O_R   0.836890 0.357440 0.166300 -0.579520
O16   O     O_R   0.163110 0.642560 0.833700 -0.571672
C5    C     C_R   0.613985 0.516057 0.114914 0.986835
C6    C     C_R   0.386308 0.483357 0.884685 0.980002
C7    C     C_R   0.886015 0.016057 0.385086 0.986832
C8    C     C_R   0.113692 0.983357 0.615315 0.980003
O17   O     O_3   0.755220 0.522230 0.313690 -0.270348
O18   O     O_3   0.244780 0.477770 0.686310 -0.259964
O19   O     O_3   0.744780 0.022230 0.186310 -0.270349
O20   O     O_3   0.255220 0.977770 0.813690 -0.259964
V1    V     V_3+5 0.749030 0.796100 0.238190 1.321629
V2    V     V_3+5 0.250970 0.203900 0.761810 1.337681
V3    V     V_3+5 0.750970 0.296100 0.261810 1.321629
V4    V     V_3+5 0.249030 0.703900 0.738190 1.337680
C9    C     C_1   0.966360 0.004612 0.466352 0.037668
C10   C     C_1   0.033306 0.993484 0.534115 0.033287
C11   C     C_1   0.533640 0.504612 0.033648 0.037667
C12   C     C_1   0.466693 0.493484 0.965885 0.033288
C13   C     C_R   0.551348 0.994897 0.720104 0.310480
C14   C     C_R   0.446425 0.016862 0.279383 0.318596
C15   C     C_R   0.948652 0.494896 0.779897 0.310480
C16   C     C_R   0.053575 0.516862 0.220617 0.318597
C17   C     C_R   0.638448 0.043914 0.768817 -0.194708
C18   C     C_R   0.357464 0.058472 0.232448 -0.200016
C19   C     C_R   0.861552 0.543914 0.731183 -0.194710
C20   C     C_R   0.142536 0.558472 0.267552 -0.200015
C21   C     C_R   0.706469 0.052654 0.710902 -0.187414
C22   C     C_R   0.290745 0.065301 0.292259 -0.198769
C23   C     C_R   0.793531 0.552654 0.789098 -0.187413
C24   C     C_R   0.209255 0.565300 0.207741 -0.198771
C25   C     C_R   0.684998 0.032975 0.602367 -0.123255
C26   C     C_R   0.314102 0.042104 0.400149 -0.130460
C27   C     C_R   0.815002 0.532975 0.897633 -0.123256
C28   C     C_R   0.185898 0.542103 0.099851 -0.130459
C29   C     C_R   0.593246 0.013959 0.548570 0.016586
C30   C     C_R   0.405941 0.016324 0.451835 0.018074
C31   C     C_R   0.906754 0.513958 0.951430 0.016586
C32   C     C_R   0.094059 0.516324 0.048165 0.018074
C33   C     C_R   0.524853 0.999151 0.610017 0.011418
C34   C     C_R   0.474095 0.012463 0.389570 -0.003750
C35   C     C_R   0.975147 0.499150 0.889983 0.011420
C36   C     C_R   0.025905 0.512463 0.110431 -0.003752
C37   C     C_R   0.567824 0.008791 0.437246 -0.249859
C38   C     C_R   0.431512 0.995032 0.562309 -0.244678
C39   C     C_R   0.932176 0.508791 0.062754 -0.249859
C40   C     C_R   0.068488 0.495032 0.937691 -0.244677
C41   C     C_2   0.660501 0.065867 0.883057 0.709211
H1    H     H_    0.725429 0.024192 0.926368 -0.027138
O21   O     O_2   0.607440 0.137322 0.929917 -0.524295
C42   C     C_2   0.332278 0.076879 0.117989 0.716303
H2    H     H_    0.265516 0.040506 0.077607 -0.029168
O22   O     O_2   0.385089 0.137249 0.067171 -0.517238
C43   C     C_2   0.839499 0.565867 0.616943 0.709210
H3    H     H_    0.774572 0.524193 0.573632 -0.027138
O23   O     O_2   0.892560 0.637322 0.570084 -0.524295
C44   C     C_2   0.167722 0.576881 0.382011 0.716306
H4    H     H_    0.234484 0.540509 0.422393 -0.029170
O24   O     O_2   0.114911 0.637250 0.432828 -0.517238
N1    N     N_R   0.499809 0.893508 0.781100 0.221088
O25   O     O_R   0.505427 0.715977 0.781259 -0.393748
O26   O     O_R   0.457953 0.975246 0.845825 -0.301446
N2    N     N_R   0.500510 0.933821 0.214416 0.227972
O27   O     O_R   0.486442 0.762301 0.190892 -0.394838
O28   O     O_R   0.544846 0.034331 0.159758 -0.305384
N3    N     N_R   0.000191 0.393505 0.718900 0.221089
O29   O     O_R   0.994575 0.215975 0.718744 -0.393749
O30   O     O_R   0.042046 0.475241 0.654174 -0.301446
N4    N     N_R   0.999490 0.433823 0.285584 0.227972
O31   O     O_R   0.013560 0.262305 0.309112 -0.394837
O32   O     O_R   0.955154 0.534335 0.340241 -0.305385
C45   C     C_2   0.194813 0.085759 0.239474 0.599734
H5    H     H_    0.176863 0.181863 0.176626 -0.024105
O33   O     O_2   0.135753 0.989312 0.262544 -0.567749
C46   C     C_2   0.801539 0.069214 0.766617 0.627375
H6    H     H_    0.819009 0.165883 0.829314 -0.034346
O34   O     O_2   0.860097 0.968217 0.746433 -0.557559
C47   C     C_2   0.305187 0.585758 0.260526 0.599736
H7    H     H_    0.323137 0.681864 0.323374 -0.024105
O35   O     O_2   0.364246 0.489310 0.237456 -0.567748
C48   C     C_2   0.698461 0.569214 0.733383 0.627376
H8    H     H_    0.680991 0.665883 0.670686 -0.034347
O36   O     O_2   0.639903 0.468217 0.753567 -0.557559
C49   C     C_2   0.761504 0.034588 0.549162 0.561422
H9    H     H_    0.775831 0.913855 0.507822 -0.032207
O37   O     O_2   0.810443 0.168431 0.555078 -0.589284
C50   C     C_2   0.239206 0.049484 0.455439 0.588705
H10   H     H_    0.217929 0.924280 0.486764 -0.045293
O38   O     O_2   0.199335 0.192968 0.461794 -0.574443
C51   C     C_2   0.738496 0.534588 0.950838 0.561423
H11   H     H_    0.724169 0.413855 0.992178 -0.032207
O39   O     O_2   0.689557 0.668430 0.944921 -0.589283
C52   C     C_2   0.260794 0.549482 0.044561 0.588702
H12   H     H_    0.282070 0.424279 0.013235 -0.045291
O40   O     O_2   0.300665 0.692966 0.038207 -0.574445

loop_
_geom_bond_atom_site_label_1
_geom_bond_atom_site_label_2
_geom_bond_distance
_ccdc_geom_bond_type
O17   V3    1.783611 S    
O1    C5    1.337621 A    
C49   H9    1.080026 S    
C16   C36   1.438860 A    
C24   C47   1.496309 S    
C31   C35   1.434826 A    
O19   V1    1.783611 S    
O13   V1    2.025339 S    
O3    C7    1.337621 A    
C47   H7    1.082415 S    
O15   V3    2.025338 S    
C50   O38   1.219331 D    
O4    V2    1.970329 S    
C33   C38   1.435881 A    
C22   C45   1.496309 S    
N1    O25   1.298308 A    
O7    C3    1.331021 A    
C35   C40   1.435881 A    
C26   C30   1.442073 A    
C23   C48   1.493867 S    
C44   O24   1.218951 D    
C36   C39   1.440996 A    
O9    V1    1.989501 S    
C14   C18   1.406436 A    
C25   C49   1.463397 S    
O4    C8    1.341283 A    
N4    O32   1.300914 A    
O1    V3    1.970329 S    
O2    V4    1.970327 S    
C18   C22   1.395404 A    
C16   N4    1.427871 S    
O3    V1    1.970327 S    
C21   C46   1.493866 S    
C52   H12   1.077061 S    
C14   C34   1.438860 A    
C29   C37   1.450452 A    
C1    O15   1.333746 A    
C11   C12   1.223263 T    
C2    O16   1.327774 A    
C42   H2    1.083943 S    
C41   O21   1.219589 D    
C31   C39   1.450452 A    
O2    C6    1.341285 A    
C51   H11   1.080026 S    
C32   C40   1.447646 A    
O14   V2    2.025338 S    
C21   C25   1.418024 A    
C45   O33   1.220625 D    
C16   C20   1.406436 A    
C34   C37   1.440996 A    
O11   C7    1.349056 A    
O12   C8    1.345754 A    
C18   C42   1.495817 S    
C51   O39   1.219555 D    
O10   V2    1.989500 S    
C50   H10   1.077061 S    
O5    V1    2.042037 S    
N1    O26   1.301038 A    
C15   C19   1.401227 A    
O7    V3    2.042038 S    
C44   H4    1.083943 S    
O8    V4    2.042036 S    
N2    O28   1.300915 A    
C43   O23   1.219588 D    
C29   C33   1.434827 A    
N4    O31   1.297685 A    
C17   C41   1.493191 S    
C30   C38   1.447646 A    
C7    C9    1.466786 S    
C13   N1    1.429075 S    
C8    C10   1.466194 S    
C32   C36   1.435687 A    
O5    C1    1.331021 A    
C4    C38   1.512724 S    
N3    O29   1.298301 A    
C28   C52   1.460568 S    
O8    C4    1.335655 A    
C15   C35   1.435859 A    
C46   O34   1.220206 D    
C9    C10   1.223262 T    
O9    C5    1.349056 A    
C20   C44   1.495817 S    
C27   C51   1.463397 S    
N3    O30   1.301036 A    
C48   H8    1.082893 S    
C48   O36   1.220207 D    
C30   C34   1.435687 A    
O16   V4    2.025340 S    
C3    O13   1.333746 A    
C19   C43   1.493192 S    
O6    V2    2.042038 S    
C1    C39   1.513590 S    
C2    C40   1.512724 S    
N2    O27   1.297683 A    
C3    C37   1.513589 S    
O6    C2    1.335654 A    
C23   C27   1.418024 A    
C47   O35   1.220626 D    
O11   V3    1.989500 S    
C5    C11   1.466785 S    
O12   V4    1.989501 S    
C6    C12   1.466193 S    
C22   C26   1.414067 A    
C49   O37   1.219555 D    
O10   C6    1.345754 A    
O20   V2    1.783612 S    
C15   N3    1.429075 S    
C43   H3    1.084325 S    
C14   N2    1.427871 S    
C25   C29   1.443790 A    
C46   H6    1.082893 S    
C27   C31   1.443790 A    
C13   C17   1.401228 A    
C52   O40   1.219330 D    
C28   C32   1.442072 A    
C24   C28   1.414067 A    
C42   O22   1.218952 D    
C41   H1    1.084325 S    
C4    O14   1.327774 A    
C17   C21   1.395019 A    
C45   H5    1.082416 S    
C19   C23   1.395018 A    
O18   V4    1.783612 S    
C13   C33   1.435859 A    
C26   C50   1.460568 S    
C20   C24   1.395404 A    
