data_mof_unit_54497.cif
_audit_creation_date              2013-03-05T15:45:01-0500
_audit_creation_method            fapswitch 2.2
_symmetry_space_group_name_H-M    P1
_symmetry_Int_Tables_number       1
_space_group_crystal_system       triclinic
_cell_length_a                    9.863832
_cell_length_b                    10.87148
_cell_length_c                    12.958695
_cell_angle_alpha                 89.620566
_cell_angle_beta                  75.934936
_cell_angle_gamma                 110.28048
_cell_volume                      1258.07478639

loop_
_atom_site_label
_atom_site_type_symbol
_atom_site_description
_atom_site_fract_x
_atom_site_fract_y
_atom_site_fract_z
_atom_type_partial_charge
O1    O     O_R   0.578710 0.332530 0.490040 -0.568476
O2    O     O_R   0.421290 0.667470 0.509960 -0.567146
O3    O     O_R   0.329810 0.295070 0.521560 -0.516324
O4    O     O_R   0.670190 0.704930 0.478440 -0.528090
C1    C     C_R   0.440406 0.252836 0.512511 0.819395
C2    C     C_R   0.558738 0.746688 0.496169 0.841912
O5    O     O_R   0.604230 0.515670 0.637800 -0.583471
O6    O     O_R   0.395770 0.484330 0.362200 -0.584486
O7    O     O_R   0.355330 0.478200 0.669330 -0.532153
O8    O     O_R   0.644670 0.521800 0.330670 -0.544159
C3    C     C_R   0.472022 0.488478 0.702531 0.907409
C4    C     C_R   0.527430 0.509125 0.297544 0.853146
Cu1   Cu    Cu3+1 0.647370 0.522180 0.481340 1.124111
Cu2   Cu    Cu3+1 0.352630 0.477820 0.518660 1.132134
C5    C     C_R   0.543756 0.524617 0.183181 -0.178039
C6    C     C_R   0.455808 0.470858 0.816966 -0.155089
C7    C     C_R   0.344484 0.342074 0.990541 0.124090
C8    C     C_R   0.656680 0.652372 0.009559 0.121358
C9    C     C_R   0.345646 0.359604 0.882701 0.275142
C10   C     C_R   0.651710 0.636760 0.118172 0.267170
C11   C     C_R   0.557866 0.565873 0.859082 -0.187445
C12   C     C_R   0.444924 0.427475 0.140544 -0.210871
C13   C     C_R   0.554863 0.553562 0.966721 0.013461
C14   C     C_R   0.447810 0.439913 0.032874 0.019327
H1    H     H_    0.364986 0.342939 0.193702 0.195672
H2    H     H_    0.638809 0.650064 0.806039 0.195309
C15   C     C_2   0.411451 0.110578 0.527330 0.115862
C16   C     C_2   0.586084 0.888046 0.499948 0.092557
C17   C     C_2   0.504712 0.068230 0.568401 0.230424
C18   C     C_2   0.489033 0.928601 0.572620 0.195246
N1    N     N_2   0.131210 0.444490 0.546730 -0.115197
N2    N     N_2   0.868790 0.555510 0.453270 -0.134645
C19   C     C_2   0.064309 0.480983 0.483087 0.226923
C20   C     C_2   0.933434 0.528239 0.521953 0.244713
N3    N     N_R   0.750202 0.738290 0.163641 0.143914
O9    O     O_R   0.695622 0.799595 0.239016 -0.310978
O10   O     O_R   0.894582 0.772153 0.127886 -0.264935
N4    N     N_R   0.237628 0.262838 0.840169 0.145878
O11   O     O_R   0.280711 0.205128 0.757730 -0.313117
O12   O     O_R   0.095496 0.227005 0.887280 -0.269526
I1    I     I_    0.194726 0.160482 0.084277 0.017541
I2    I     I_    0.808751 0.833228 0.916493 0.018562
N5    N     N_R   0.378957 0.841880 0.662423 0.141283
O13   O     O_R   0.412669 0.757455 0.713034 -0.366966
O14   O     O_R   0.261038 0.868589 0.708558 -0.249443
N6    N     N_R   0.617447 0.154820 0.614376 0.131330
O15   O     O_R   0.584629 0.234915 0.681692 -0.333361
O16   O     O_R   0.740689 0.132846 0.607707 -0.290061
N7    N     N_R   0.710551 0.980320 0.421008 0.160420
O17   O     O_R   0.839723 0.965889 0.396791 -0.215165
O18   O     O_R   0.692126 0.071273 0.366167 -0.304092
N8    N     N_R   0.289253 0.019686 0.491907 0.131636
O19   O     O_R   0.166878 0.043713 0.500169 -0.240357
O20   O     O_R   0.305821 0.921466 0.440199 -0.332829
I3    I     I_    0.942246 0.649016 0.650981 -0.071642
I4    I     I_    0.090481 0.416834 0.326829 -0.123459
I5    I     I_    0.002100 0.724602 0.349363 0.107458
I6    I     I_    0.002369 0.349127 0.697067 0.098140

loop_
_geom_bond_atom_site_label_1
_geom_bond_atom_site_label_2
_geom_bond_distance
_ccdc_geom_bond_type
N4    O12   1.300845 A    
C11   H2    1.079816 S    
N1    C19   1.309476 D    
C6    C11   1.389934 A    
C9    N4    1.435894 S    
C15   C17   1.367400 D    
C17   C18   1.470782 S    
N5    O14   1.301174 A    
C3    C6    1.456382 S    
C17   N6    1.442705 S    
Cu1   N2    2.024151 S    
C8    C10   1.403481 A    
N3    O9    1.299944 A    
C4    C5    1.453446 S    
O6    C4    1.298719 A    
Cu2   N1    2.024150 S    
O7    Cu2   1.959141 S    
C19   I4    2.131357 S    
C16   C18   1.362935 D    
C19   C20   1.526842 S    
C20   I3    2.132583 S    
Cu1   Cu2   2.694481 S    
C15   N8    1.445414 S    
O5    C3    1.299784 A    
O7    C3    1.294080 A    
O2    C2    1.297111 A    
O3    Cu2   1.919425 S    
O8    C4    1.293132 A    
N2    I5    2.086232 S    
C6    C9    1.412307 A    
O1    C1    1.296418 A    
N1    I6    2.083700 S    
C7    C9    1.405894 A    
N8    O20   1.301201 A    
C12   C14   1.393336 A    
C11   C13   1.392521 A    
N5    O13   1.301048 A    
N4    O11   1.299427 A    
O2    Cu2   1.927206 S    
C7    I1    2.151611 S    
C18   N5    1.443506 S    
C7    C14   1.413861 A    
O1    Cu1   1.927206 S    
C13   C14   1.420569 A    
C8    C13   1.414819 A    
N6    O16   1.301098 A    
O5    Cu1   1.963360 S    
N8    O19   1.301107 A    
O4    C2    1.300777 A    
N7    O17   1.300529 A    
C16   N7    1.443004 S    
N7    O18   1.301475 A    
O4    Cu1   1.919425 S    
N6    O15   1.300835 A    
O6    Cu2   1.963363 S    
C8    I2    2.148279 S    
N3    O10   1.300755 A    
C1    C15   1.474271 S    
C10   N3    1.432760 S    
O8    Cu1   1.959143 S    
C5    C12   1.388081 A    
C2    C16   1.468628 S    
C5    C10   1.407249 A    
O3    C1    1.303998 A    
C12   H1    1.079876 S    
N2    C20   1.300026 D    
