data_mof_unit_60987.cif
_audit_creation_date              2012-12-10T19:36:45-0500
_audit_creation_method            fapswitch 2.2
_symmetry_space_group_name_H-M    P1
_symmetry_Int_Tables_number       1
_space_group_crystal_system       triclinic
_cell_length_a                    11.715934
_cell_length_b                    15.820132
_cell_length_c                    17.13589
_cell_angle_alpha                 96.009853
_cell_angle_beta                  90.284146
_cell_angle_gamma                 92.314788
_cell_volume                      3155.92798614

loop_
_atom_site_label
_atom_site_type_symbol
_atom_type_description
_atom_site_fract_x
_atom_site_fract_y
_atom_site_fract_z
_atom_type_partial_charge
C1    C     C_R   0.501173 0.489922 0.348652 0.821558
C2    C     C_R   0.477506 0.109117 0.483648 0.237790
C3    C     C_R   0.590193 0.848539 0.567130 -0.024438
C4    C     C_R   0.409807 0.151461 0.432870 -0.024438
C5    C     C_R   0.583966 0.758782 0.562578 -0.021501
C6    C     C_R   0.416034 0.241218 0.437422 -0.021500
C7    C     C_R   0.283826 0.500230 0.499978 0.819759
C8    C     C_R   0.716174 0.499769 0.500022 0.819760
C9    C     C_1   0.162255 0.500563 0.500006 -0.172967
C10   C     C_1   0.837745 0.499437 0.499994 -0.172967
C11   C     C_1   0.059856 0.500284 0.500005 0.011005
C12   C     C_R   0.498827 0.510078 0.651348 0.821558
C13   C     C_1   0.940144 0.499716 0.499994 0.011005
C14   C     C_R   0.502593 0.484915 0.262617 -0.075789
C15   C     C_R   0.497406 0.515085 0.737383 -0.075789
C16   C     C_R   0.550002 0.552228 0.223637 0.122945
C17   C     C_R   0.450000 0.447770 0.776363 0.122945
C18   C     C_R   0.544604 0.546408 0.141769 -0.234008
C19   C     C_R   0.455397 0.453591 0.858230 -0.234009
C20   C     C_R   0.493543 0.474126 0.097980 0.343389
C21   C     C_R   0.506453 0.525875 0.902020 0.343389
C22   C     C_R   0.449990 0.406214 0.136868 0.152589
C23   C     C_R   0.454514 0.412096 0.218896 -0.295895
C24   C     C_R   0.550002 0.593788 0.863132 0.152588
C25   C     C_R   0.545481 0.587905 0.781105 -0.295895
C26   C     C_R   0.447647 0.751382 0.459736 -0.030994
C27   C     C_R   0.552353 0.248617 0.540264 -0.030994
C28   C     C_R   0.450262 0.840407 0.461766 0.470899
C29   C     C_R   0.549737 0.159593 0.538234 0.470899
C30   C     C_R   0.522494 0.890883 0.516351 0.237790
Cu1   Cu    Cu3+1 0.494550 0.415220 0.496180 0.961416
Cu2   Cu    Cu3+1 0.505450 0.584780 0.503820 0.961416
F1    F     F_    0.617673 0.124306 0.589292 -0.635138
F2    F     F_    0.382326 0.875694 0.410708 -0.635138
H1    H     H_    0.419005 0.401543 0.887533 0.173180
H2    H     H_    0.371509 0.328457 0.770162 0.223572
H3    H     H_    0.680852 0.605912 0.290659 0.217390
H4    H     H_    0.628501 0.671539 0.229838 0.223572
H5    H     H_    0.464027 0.301398 0.060430 0.227584
H6    H     H_    0.365902 0.289231 0.129645 0.219330
H7    H     H_    0.535957 0.698603 0.939569 0.227585
H8    H     H_    0.634084 0.710773 0.870355 0.219330
H9    H     H_    0.728827 0.926262 0.592502 0.256411
H10   H     H_    0.704496 0.857137 0.658898 0.206858
H11   H     H_    0.271173 0.073738 0.407498 0.256411
H12   H     H_    0.581000 0.598455 0.112467 0.173181
H13   H     H_    0.295505 0.142862 0.341101 0.206858
H14   H     H_    0.418602 0.360209 0.248739 0.163999
H15   H     H_    0.581390 0.639793 0.751262 0.164001
H16   H     H_    0.607854 0.286661 0.582006 0.176646
H17   H     H_    0.392146 0.713338 0.417994 0.176645
H18   H     H_    0.635574 0.726045 0.601442 0.145960
H19   H     H_    0.364426 0.273955 0.398558 0.145960
H20   H     H_    0.319154 0.394082 0.709340 0.217391
N1    N     N_2   0.484523 0.467166 0.014900 -0.231912
N2    N     N_3   0.600990 0.667864 0.907730 -0.565391
N3    N     N_3   0.664261 0.897250 0.623555 -0.506970
N4    N     N_3   0.335739 0.102750 0.376445 -0.506970
N5    N     N_2   0.515473 0.532835 0.985101 -0.231910
N6    N     N_R   0.513630 0.712130 0.509560 -0.212721
N7    N     N_R   0.486370 0.287870 0.490440 -0.212722
N8    N     N_2   0.530558 0.982538 0.523160 -0.109428
N9    N     N_2   0.469442 0.017462 0.476840 -0.109428
N10   N     N_3   0.394915 0.374435 0.732961 -0.543234
N11   N     N_3   0.605092 0.625561 0.267039 -0.543233
N12   N     N_3   0.398997 0.332139 0.092271 -0.565391
O1    O     O_R   0.494910 0.420530 0.382500 -0.591902
O2    O     O_R   0.505090 0.579470 0.617500 -0.591902
O3    O     O_R   0.504100 0.563720 0.388950 -0.552353
O4    O     O_R   0.495900 0.436280 0.611050 -0.552354
O5    O     O_R   0.332600 0.428410 0.496780 -0.575386
O6    O     O_R   0.667400 0.571590 0.503220 -0.575385
O7    O     O_R   0.341800 0.571600 0.503230 -0.572257
O8    O     O_R   0.658200 0.428400 0.496770 -0.572257

loop_
_geom_bond_atom_site_label_1
_geom_bond_atom_site_label_2
_ccdc_geom_bond_type
C14   C23   A    
C3    C30   A    
C2    C4    A    
C12   C15   S    
C5    H18   S    
Cu2   O3    S    
C23   H14   S    
C14   C16   A    
N1    N5    D    
C27   C29   A    
C11   C13   S    
Cu1   N7    S    
C26   C28   A    
Cu1   Cu2   S    
C27   H16   S    
H10   N3    S    
Cu2   O2    S    
C7    C9    S    
C12   O2    A    
C8    O8    A    
C28   F2    S    
C7    O7    A    
C16   C18   A    
H6    N12   S    
C26   H17   S    
C2    N9    S    
H13   N4    S    
Cu1   O1    S    
C9    C11   T    
C1    C14   S    
N8    N9    D    
H20   N10   S    
H4    N11   S    
C20   N1    S    
C18   H12   S    
C6    N7    A    
C28   C30   A    
C17   C19   A    
C20   C22   A    
C19   H1    S    
C21   N5    S    
H7    N2    S    
C18   C20   A    
C2    C29   A    
C30   N8    S    
C7    O5    A    
H5    N12   S    
C25   H15   S    
H11   N4    S    
C15   C25   A    
C4    C6    A    
C24   N2    S    
Cu2   N6    S    
C6    H19   S    
C3    N3    S    
C17   N10   S    
C24   C25   A    
Cu2   O6    S    
C21   C24   A    
C4    N4    S    
Cu2   O7    S    
C15   C17   A    
H9    N3    S    
C22   C23   A    
C22   N12   S    
Cu1   O8    S    
C12   O4    A    
C16   N11   S    
C27   N7    A    
C5    N6    A    
H8    N2    S    
H2    N10   S    
C8    O6    A    
C26   N6    A    
C19   C21   A    
C8    C10   S    
C1    O3    A    
C1    O1    A    
C29   F1    S    
Cu1   O4    S    
Cu1   O5    S    
C3    C5    A    
C10   C13   T    
H3    N11   S    
