data_mof_unit_17147.cif
_audit_creation_date              2012-12-10T20:00:05-0500
_audit_creation_method            fapswitch 2.2
_symmetry_space_group_name_H-M    P1
_symmetry_Int_Tables_number       1
_space_group_crystal_system       triclinic
_cell_length_a                    14.974628
_cell_length_b                    14.164884
_cell_length_c                    8.953034
_cell_angle_alpha                 89.865651
_cell_angle_beta                  90.098249
_cell_angle_gamma                 90.183075
_cell_volume                      1899.04499427

loop_
_atom_site_label
_atom_site_type_symbol
_atom_type_description
_atom_site_fract_x
_atom_site_fract_y
_atom_site_fract_z
_atom_type_partial_charge
C1    C     C_R   0.328051 0.499868 0.499082 0.921990
C2    C     C_R   0.418330 0.894584 0.520468 0.394205
C3    C     C_R   0.499947 0.500065 0.218435 0.931659
C4    C     C_R   0.500007 0.499926 0.781565 0.932731
C5    C     C_R   0.497399 0.053647 0.498607 -0.036613
C6    C     C_R   0.497777 0.946790 0.497045 -0.028314
C7    C     C_1   0.499946 0.500082 0.065258 -0.206479
C8    C     C_1   0.499969 0.499884 0.934746 -0.207167
C9    C     C_R   0.099886 0.556067 0.368657 0.494218
C10   C     C_R   0.904194 0.414326 0.436491 0.484953
C11   C     C_R   0.908290 0.584423 0.486960 0.473792
C12   C     C_R   0.672486 0.500100 0.497727 0.928796
C13   C     C_R   0.092038 0.436574 0.567695 0.495989
C14   C     C_R   0.191542 0.559658 0.386656 -0.315213
C15   C     C_R   0.812435 0.415332 0.454166 -0.318598
C16   C     C_R   0.816054 0.584571 0.497218 -0.322662
C17   C     C_R   0.184176 0.436587 0.575980 -0.313498
C18   C     C_R   0.233009 0.499357 0.488369 -0.170201
C19   C     C_R   0.768460 0.499994 0.484590 -0.171169
C20   C     C_R   0.049451 0.495767 0.462099 -0.111324
C21   C     C_R   0.952601 0.498672 0.457578 -0.100006
C22   C     C_3   0.035353 0.572605 0.139335 0.105433
C23   C     C_R   0.445531 0.205781 0.403141 -0.172843
C24   C     C_3   0.978628 0.638864 0.045417 -0.808575
C25   C     C_3   0.944287 0.302874 0.266109 0.065636
C26   C     C_3   0.972746 0.200337 0.251735 -0.766471
C27   C     C_3   0.973712 0.690107 0.644968 0.084424
C28   C     C_3   0.018541 0.786491 0.652933 -0.766335
C29   C     C_3   0.014720 0.420579 0.785197 0.096497
C30   C     C_3   0.950879 0.356097 0.869183 -0.801363
C31   C     C_3   0.387954 0.096585 0.154966 0.101814
C32   C     C_3   0.354505 0.023572 0.043997 -0.837634
C33   C     C_3   0.672654 0.964723 0.310389 0.095140
C34   C     C_R   0.577498 0.796717 0.480956 -0.142810
C35   C     C_3   0.758070 0.022360 0.295528 -0.787159
C36   C     C_3   0.557230 0.033454 0.827530 0.104947
C37   C     C_3   0.609353 0.961704 0.918745 -0.814067
C38   C     C_3   0.291334 0.911917 0.663999 0.071680
C39   C     C_3   0.218586 0.983056 0.699627 -0.777565
C40   C     C_R   0.553032 0.203785 0.596501 -0.138768
C41   C     C_R   0.421444 0.794503 0.517554 -0.172469
C42   C     C_R   0.444363 0.105465 0.396623 0.393732
C43   C     C_R   0.578191 0.896144 0.476674 0.371766
C44   C     C_R   0.551737 0.104441 0.600279 0.374738
H1    H     H_    0.402821 0.247270 0.331379 0.149161
H2    H     H_    0.994565 0.508561 0.162091 0.108903
H3    H     H_    0.019004 0.700669 0.009278 0.250702
H4    H     H_    0.953242 0.601157 0.945700 0.171384
H5    H     H_    0.920596 0.663781 0.111470 0.274604
H6    H     H_    0.992092 0.347017 0.201691 0.128767
H7    H     H_    0.875983 0.309658 0.217438 0.130876
H8    H     H_    0.926832 0.154219 0.316593 0.258076
H9    H     H_    0.970738 0.178690 0.132671 0.199742
H10   H     H_    0.041827 0.191438 0.294810 0.264883
H11   H     H_    0.021107 0.637404 0.691564 0.116963
H12   H     H_    0.639557 0.758984 0.467459 0.166915
H13   H     H_    0.911889 0.692130 0.713985 0.135918
H14   H     H_    0.973048 0.841489 0.608032 0.262313
H15   H     H_    0.081128 0.786305 0.586469 0.260614
H16   H     H_    0.035100 0.803700 0.770707 0.193993
H17   H     H_    0.977276 0.485749 0.757001 0.106496
H18   H     H_    0.072084 0.438460 0.859203 0.118454
H19   H     H_    0.895272 0.334090 0.794564 0.275218
H20   H     H_    0.922387 0.394348 0.965945 0.176123
H21   H     H_    0.986754 0.292423 0.909359 0.251140
H22   H     H_    0.455821 0.119908 0.119250 0.109383
H23   H     H_    0.595878 0.242240 0.672624 0.164666
H24   H     H_    0.341084 0.157239 0.151714 0.146795
H25   H     H_    0.285664 0.000918 0.073440 0.272819
H26   H     H_    0.353873 0.054845 0.930288 0.196244
H27   H     H_    0.398993 0.961006 0.044776 0.247759
H28   H     H_    0.679900 0.898915 0.243654 0.139253
H29   H     H_    0.616734 0.007667 0.264381 0.132422
H30   H     H_    0.770121 0.040093 0.176400 0.198634
H31   H     H_    0.752165 0.088941 0.360067 0.261112
H32   H     H_    0.815730 0.981322 0.338675 0.263184
H33   H     H_    0.491579 0.000778 0.799052 0.125870
H34   H     H_    0.360647 0.754086 0.528233 0.161587
H35   H     H_    0.546016 0.097403 0.896752 0.131547
H36   H     H_    0.674118 0.992504 0.954794 0.254708
H37   H     H_    0.570201 0.940967 0.018779 0.187651
H38   H     H_    0.622098 0.897736 0.850569 0.266500
H39   H     H_    0.258218 0.842872 0.643144 0.142263
H40   H     H_    0.336313 0.906045 0.762932 0.125798
H41   H     H_    0.169942 0.986627 0.605988 0.267230
H42   H     H_    0.248350 0.054125 0.716725 0.253782
H43   H     H_    0.182843 0.961350 0.802790 0.203660
H44   H     H_    0.230514 0.608014 0.318782 0.178716
H45   H     H_    0.775994 0.349423 0.444114 0.189922
H46   H     H_    0.782188 0.650818 0.517216 0.185502
H47   H     H_    0.217406 0.389482 0.653695 0.175864
H48   H     H_    0.095821 0.552614 0.074727 0.119563
N1    N     N_R   0.500000 0.252470 0.500000 -0.125076
N2    N     N_R   0.500000 0.747530 0.500000 -0.123688
O1    O     O_R   0.369060 0.579480 0.500010 -0.631196
O2    O     O_3   0.947036 0.328742 0.417941 -0.551163
O3    O     O_3   0.953899 0.669404 0.494616 -0.551032
O4    O     O_3   0.044774 0.373723 0.656057 -0.548859
O5    O     O_3   0.389138 0.055886 0.299078 -0.554734
O6    O     O_3   0.658849 0.942876 0.462349 -0.555359
O7    O     O_3   0.606968 0.057673 0.699297 -0.555294
O8    O     O_3   0.338167 0.942661 0.535832 -0.554573
O9    O     O_R   0.630940 0.420520 0.499990 -0.622407
O10   O     O_R   0.630940 0.579480 0.499990 -0.631772
O11   O     O_R   0.369060 0.420520 0.500010 -0.613861
O12   O     O_R   0.500000 0.579460 0.285340 -0.606499
O13   O     O_R   0.500000 0.420540 0.714660 -0.620323
O14   O     O_R   0.500000 0.579460 0.714660 -0.607650
O15   O     O_R   0.500000 0.420540 0.285340 -0.621882
O16   O     O_3   0.060091 0.619479 0.271811 -0.550353
Zn1   Zn    Zn3+2 0.500000 0.606140 0.500000 0.944574
Zn2   Zn    Zn3+2 0.500000 0.393860 0.500000 0.940630

loop_
_geom_bond_atom_site_label_1
_geom_bond_atom_site_label_2
_ccdc_geom_bond_type
C31   H22   S    
C5    C42   A    
C35   H30   S    
C34   H12   S    
C23   H1    S    
C30   H20   S    
C38   H39   S    
O13   Zn2   S    
C14   C18   A    
C17   H47   S    
C39   H43   S    
C40   N1    A    
C4    C8    S    
C36   H33   S    
C7    C8    T    
C15   C19   A    
C4    O14   A    
C35   H31   S    
C1    C18   S    
C23   C42   A    
C29   O4    S    
C16   H46   S    
C36   C37   S    
C12   O10   A    
C3    C7    S    
C10   C15   A    
C38   C39   S    
C27   H11   S    
C2    O8    S    
C2    C41   A    
N2    Zn1   S    
C9    O16   S    
C13   O4    S    
C25   H6    S    
C33   H28   S    
C41   N2    A    
C22   O16   S    
C40   H23   S    
C31   O5    S    
C3    O12   A    
C30   H19   S    
C37   H37   S    
C2    C6    A    
C26   H10   S    
C37   H36   S    
C32   H27   S    
O12   Zn1   S    
C28   H16   S    
C10   C21   A    
C31   H24   S    
C4    O13   A    
C29   H17   S    
C35   H32   S    
C24   H4    S    
C43   O6    S    
C12   O9    A    
C27   H13   S    
O15   Zn2   S    
C41   H34   S    
C32   H26   S    
C25   C26   S    
C11   C21   A    
C23   N1    A    
O9    Zn2   S    
C9    C14   A    
C25   H7    S    
C29   C30   S    
C26   H8    S    
C15   H45   S    
C11   C16   A    
C9    C20   A    
C31   C32   S    
C10   O2    S    
C1    O1    A    
C17   C18   A    
C33   H29   S    
C22   H2    S    
C5    C44   A    
C6    C43   A    
C22   C24   S    
C37   H38   S    
C39   H41   S    
C26   H9    S    
C28   H15   S    
C24   H5    S    
C29   H18   S    
C27   O3    S    
C13   C20   A    
C38   H40   S    
C24   H3    S    
O11   Zn2   S    
C34   C43   A    
C34   N2    A    
C36   H35   S    
O10   Zn1   S    
C44   O7    S    
C32   H25   S    
C28   H14   S    
O14   Zn1   S    
C13   C17   A    
C11   O3    S    
C33   O6    S    
C14   H44   S    
C38   O8    S    
O1    Zn1   S    
C42   O5    S    
C5    C6    S    
C3    O15   A    
C16   C19   A    
C12   C19   S    
C33   C35   S    
C30   H21   S    
N1    Zn2   S    
C40   C44   A    
C20   C21   S    
C25   O2    S    
C27   C28   S    
C22   H48   S    
C36   O7    S    
C39   H42   S    
C1    O11   A    
