data_mof_unit_66458.cif
_audit_creation_date              2012-12-10T19:06:14-0500
_audit_creation_method            fapswitch 2.2
_symmetry_space_group_name_H-M    P1
_symmetry_Int_Tables_number       1
_space_group_crystal_system       triclinic
_cell_length_a                    13.060408
_cell_length_b                    13.626741
_cell_length_c                    15.740013
_cell_angle_alpha                 90.042213
_cell_angle_beta                  92.534453
_cell_angle_gamma                 85.734192
_cell_volume                      2790.76059379

loop_
_atom_site_label
_atom_site_type_symbol
_atom_type_description
_atom_site_fract_x
_atom_site_fract_y
_atom_site_fract_z
_atom_type_partial_charge
C1    C     C_R   0.481227 0.685154 0.499086 0.896219
C2    C     C_R   0.518773 0.314846 0.500914 0.896219
C3    C     C_2   0.544531 0.020499 0.502265 -0.147684
C4    C     C_2   0.455469 0.979501 0.497735 -0.147684
C5    C     C_1   0.457516 0.875751 0.497856 0.028993
C6    C     C_1   0.542484 0.124249 0.502144 0.028993
C7    C     C_2   0.033301 0.472978 0.476030 -0.231740
C8    C     C_2   0.966699 0.527022 0.523970 -0.231740
C9    C     C_1   0.854688 0.519553 0.517286 0.160930
C10   C     C_1   0.145312 0.480447 0.482714 0.160930
C11   C     C_R   0.499255 0.500044 0.662355 0.901989
C12   C     C_R   0.500745 0.499956 0.337645 0.901989
C13   C     C_3   0.444678 0.579187 0.026423 0.342784
C14   C     C_3   0.555322 0.420812 0.973577 0.342784
C15   C     C_3   0.540465 0.581957 0.972816 -0.228700
C16   C     C_3   0.459535 0.418043 0.027184 -0.228700
C17   C     C_1   0.497697 0.500145 0.751153 -0.146471
C18   C     C_1   0.502303 0.499855 0.248847 -0.146471
C19   C     C_3   0.402056 0.498263 0.969325 -0.228059
C20   C     C_3   0.597944 0.501737 0.030675 -0.228059
C21   C     C_3   0.498424 0.500210 0.917199 0.070496
C22   C     C_3   0.501576 0.499790 0.082800 0.070496
C23   C     C_1   0.497432 0.500237 0.826376 0.025031
C24   C     C_1   0.502567 0.499763 0.173624 0.025031
C25   C     C_1   0.533660 0.211672 0.501682 -0.157232
C26   C     C_1   0.466340 0.788328 0.498318 -0.157233
H1    H     H_    0.572730 0.649220 0.948813 0.181460
H2    H     H_    0.427270 0.350780 0.051187 0.181460
H3    H     H_    0.677948 0.502437 0.057483 0.180854
H4    H     H_    0.322052 0.497563 0.942516 0.180854
H5    H     H_    0.382195 0.023078 0.493995 0.166552
H6    H     H_    0.617805 0.976922 0.506005 0.166552
H7    H     H_    0.996223 0.578636 0.569813 0.171206
H8    H     H_    0.003777 0.421364 0.430187 0.171206
N1    N     N_1   0.234530 0.484780 0.486590 -0.088150
N2    N     N_1   0.765470 0.515220 0.513410 -0.088151
O1    O     O_R   0.402510 0.634760 0.495090 -0.604469
O2    O     O_R   0.597490 0.365240 0.504910 -0.604469
O3    O     O_R   0.572960 0.644530 0.503700 -0.605669
O4    O     O_R   0.427040 0.355470 0.496300 -0.605669
O5    O     O_R   0.414790 0.495120 0.618920 -0.610157
O6    O     O_R   0.585210 0.504880 0.381080 -0.610157
O7    O     O_R   0.585240 0.504900 0.627530 -0.601119
O8    O     O_R   0.414760 0.495100 0.372470 -0.601119
Zn1   Zn    Zn3+2 0.386190 0.493480 0.494250 0.999619
Zn2   Zn    Zn3+2 0.613810 0.506520 0.505750 0.999619
Br1   Br    Br    0.364672 0.693908 0.066578 -0.476683
Br2   Br    Br    0.635328 0.306092 0.933422 -0.476683

loop_
_geom_bond_atom_site_label_1
_geom_bond_atom_site_label_2
_ccdc_geom_bond_type
C16   H2    S    
C7    C10   S    
C14   Br2   S    
C11   O7    A    
C10   N1    T    
C2    O4    A    
C9    N2    T    
O4    Zn1   S    
C2    O2    A    
C15   H1    S    
C1    O1    A    
O3    Zn2   S    
C8    H7    S    
C3    C6    S    
C13   C15   S    
C8    C9    S    
C7    C8    D    
C12   O8    A    
N2    Zn2   S    
C17   C23   T    
C16   C19   S    
C18   C24   T    
C14   C21   S    
O7    Zn2   S    
C20   C22   S    
C13   C22   S    
C11   O5    A    
C2    C25   S    
C14   C16   S    
C20   H3    S    
C21   C23   S    
C1    C26   S    
C7    H8    S    
C22   C24   S    
O2    Zn2   S    
C4    H5    S    
C1    O3    A    
O1    Zn1   S    
C3    C4    D    
C6    C25   T    
C14   C20   S    
C15   C21   S    
O8    Zn1   S    
C15   C20   S    
O6    Zn2   S    
C12   C18   S    
C13   Br1   S    
O5    Zn1   S    
C11   C17   S    
C13   C19   S    
C12   O6    A    
C3    H6    S    
C19   C21   S    
C19   H4    S    
C5    C26   T    
C16   C22   S    
C4    C5    S    
N1    Zn1   S    
