data_mof_unit_54400.cif
_audit_creation_date              2012-12-10T20:34:07-0500
_audit_creation_method            fapswitch 2.2
_symmetry_space_group_name_H-M    P1
_symmetry_Int_Tables_number       1
_space_group_crystal_system       triclinic
_cell_length_a                    9.864193
_cell_length_b                    10.675456
_cell_length_c                    13.582933
_cell_angle_alpha                 90.72511
_cell_angle_beta                  83.255096
_cell_angle_gamma                 89.717472
_cell_volume                      1420.30449851

loop_
_atom_site_label
_atom_site_type_symbol
_atom_type_description
_atom_site_fract_x
_atom_site_fract_y
_atom_site_fract_z
_atom_type_partial_charge
C1    C     C_R   0.498618 0.739756 0.504064 0.893132
C2    C     C_1   0.458697 0.523617 0.788941 -0.195948
C3    C     C_R   0.376944 0.936627 0.501594 0.099890
C4    C     C_R   0.492019 0.870681 0.521158 -0.148011
C5    C     C_R   0.598028 0.932718 0.560981 -0.236597
C6    C     C_R   0.601445 0.063175 0.561623 0.171262
C7    C     C_R   0.497495 0.128214 0.518440 -0.143166
C8    C     C_R   0.382316 0.063481 0.496309 0.050467
C9    C     C_3   0.298368 0.066435 0.410685 -0.196390
C10   C     C_3   0.290483 0.924253 0.418632 -0.513934
C11   C     C_R   0.915508 0.539808 0.581816 0.237063
C12   C     C_R   0.475904 0.503437 0.685839 0.892033
C13   C     C_R   0.940816 0.450606 0.422498 -0.151060
C14   C     C_R   0.084746 0.450878 0.422402 -0.148964
C15   C     C_R   0.058018 0.539312 0.581974 0.221674
C16   C     C_3   0.056293 0.666073 0.629211 -0.511227
C17   C     C_3   0.902531 0.667277 0.628185 -0.525259
C18   C     C_R   0.500073 0.259919 0.503509 0.900216
C19   C     C_R   0.524147 0.498540 0.314264 0.910012
C20   C     C_1   0.541269 0.491747 0.210547 -0.171190
C21   C     C_2   0.538613 0.481589 0.019859 -0.236088
C22   C     C_2   0.450767 0.555647 0.979679 0.030342
C23   C     C_1   0.449791 0.541799 0.875963 -0.057886
C24   C     C_1   0.547024 0.485885 0.122917 0.011611
H1    H     H_    0.149236 0.413704 0.358856 0.147538
H2    H     H_    0.087479 0.663085 0.705172 0.206116
H3    H     H_    0.109925 0.737141 0.580053 0.216776
H4    H     H_    0.844798 0.666311 0.703540 0.205309
H5    H     H_    0.867747 0.738321 0.577483 0.210493
H6    H     H_    0.602802 0.414163 0.975038 0.147862
H7    H     H_    0.680670 0.880061 0.586808 0.161974
H8    H     H_    0.197519 0.112564 0.431892 0.154370
H9    H     H_    0.186119 0.890886 0.444967 0.189279
H10   H     H_    0.342138 0.870551 0.353972 0.209317
H11   H     H_    0.897027 0.412674 0.359210 0.149632
N1    N     N_R   0.857130 0.500860 0.500650 -0.104623
N2    N     N_R   0.142770 0.500820 0.500650 -0.104047
O1    O     O_R   0.385310 0.683210 0.499990 -0.613587
O2    O     O_R   0.614650 0.683240 0.500000 -0.622342
O3    O     O_R   0.368820 0.499950 0.640340 -0.610116
O4    O     O_R   0.598170 0.499990 0.640350 -0.614633
O5    O     O_R   0.385350 0.316760 0.500000 -0.616407
O6    O     O_R   0.614690 0.316790 0.500010 -0.614164
O7    O     O_R   0.401830 0.500010 0.359650 -0.614785
O8    O     O_R   0.631180 0.500050 0.359660 -0.614868
Zn1   Zn    Zn3+2 0.346870 0.499980 0.499990 0.943020
Zn2   Zn    Zn3+2 0.653130 0.500020 0.500010 0.936584
C25   C     C_R   0.364038 0.653190 0.035919 0.158464
C26   C     C_R   0.374987 0.779007 0.006997 -0.162964
C27   C     C_R   0.299453 0.872275 0.062528 -0.125577
C28   C     C_R   0.211774 0.840696 0.146833 -0.114129
C29   C     C_R   0.198098 0.715540 0.175072 -0.147702
C30   C     C_R   0.273072 0.621931 0.119593 -0.144974
H12   H     H_    0.444075 0.805162 0.942704 0.129845
H13   H     H_    0.309548 0.969164 0.040510 0.141263
H14   H     H_    0.154281 0.913160 0.190141 0.132748
H15   H     H_    0.129713 0.691044 0.240141 0.139125
H16   H     H_    0.261035 0.525351 0.142328 0.128361
C31   C     C_3   0.717639 0.127337 0.604686 -0.860456
H17   H     H_    0.677169 0.201740 0.658241 0.241665
H18   H     H_    0.776901 0.060658 0.645312 0.219453
H19   H     H_    0.789351 0.168096 0.544606 0.253848
C32   C     C_R   0.371318 0.108573 0.312102 0.188384
C33   C     C_R   0.505332 0.068709 0.277999 -0.154021
C34   C     C_R   0.565832 0.101676 0.183778 -0.148811
C35   C     C_R   0.493464 0.173875 0.122444 -0.111976
C36   C     C_R   0.361023 0.214665 0.155670 -0.153942
C37   C     C_R   0.300162 0.182222 0.249965 -0.165137
H20   H     H_    0.562268 0.010404 0.323418 0.135952
H21   H     H_    0.668399 0.070054 0.157884 0.130690
H22   H     H_    0.539961 0.197985 0.049065 0.124230
H23   H     H_    0.305084 0.270641 0.107987 0.131226
H24   H     H_    0.196302 0.212162 0.273529 0.103756

loop_
_geom_bond_atom_site_label_1
_geom_bond_atom_site_label_2
_ccdc_geom_bond_type
C12   O3    A    
C29   H15   S    
C22   C25   S    
C30   H16   S    
C19   O8    A    
C35   H22   S    
C6    C7    A    
C12   O4    A    
C17   H5    S    
C21   H6    S    
C27   H13   S    
N2    Zn1   S    
C7    C18   S    
C2    C12   S    
C33   C34   A    
C1    C4    S    
C16   H3    S    
C18   O5    A    
C35   C36   A    
O4    Zn2   S    
C33   H20   S    
C31   H17   S    
C10   H10   S    
C3    C10   S    
C15   N2    A    
C13   C14   A    
C29   C30   A    
C14   N2    A    
O3    Zn1   S    
C25   C30   A    
C11   C15   A    
C1    O1    A    
N1    Zn2   S    
C4    C5    A    
C28   H14   S    
C9    C10   S    
C21   C22   D    
C25   C26   A    
O7    Zn1   S    
C13   H11   S    
C10   H9    S    
O8    Zn2   S    
C14   H1    S    
C16   H2    S    
C5    C6    A    
C21   C24   S    
C3    C8    A    
O1    Zn1   S    
C15   C16   S    
C1    O2    A    
C32   C33   A    
C36   C37   A    
C37   H24   S    
C20   C24   T    
C36   H23   S    
C28   C29   A    
C19   O7    A    
C13   N1    A    
O2    Zn2   S    
C34   C35   A    
O5    Zn1   S    
C31   H18   S    
C18   O6    A    
C2    C23   T    
C26   C27   A    
C7    C8    A    
C32   C37   A    
C16   C17   S    
C31   H19   S    
C26   H12   S    
C9    H8    S    
C27   C28   A    
C34   H21   S    
C9    C32   S    
C17   H4    S    
O6    Zn2   S    
C6    C31   S    
C22   C23   S    
C11   C17   S    
C3    C4    A    
C19   C20   S    
C8    C9    S    
C5    H7    S    
C11   N1    A    
