data_mof_unit_20622.cif
_audit_creation_date              2012-12-10T19:11:27-0500
_audit_creation_method            fapswitch 2.2
_symmetry_space_group_name_H-M    P1
_symmetry_Int_Tables_number       1
_space_group_crystal_system       triclinic
_cell_length_a                    10.752659
_cell_length_b                    9.848058
_cell_length_c                    10.511626
_cell_angle_alpha                 90.194958
_cell_angle_beta                  94.267288
_cell_angle_gamma                 88.363878
_cell_volume                      1109.56638193

loop_
_atom_site_label
_atom_site_type_symbol
_atom_type_description
_atom_site_fract_x
_atom_site_fract_y
_atom_site_fract_z
_atom_type_partial_charge
C1    C     C_R   0.257496 0.501394 0.495058 0.977207
C2    C     C_3   0.500652 0.498874 0.123323 -0.271538
C3    C     C_3   0.080579 0.574353 0.615898 -0.447555
C4    C     C_3   0.075806 0.352458 0.495254 -0.453389
C5    C     C_3   0.938070 0.593193 0.608573 0.107924
C6    C     C_3   0.938108 0.348504 0.520534 0.119006
C7    C     C_3   0.053424 0.574177 0.371803 0.350291
C8    C     C_3   0.120122 0.502339 0.493088 -0.209182
C9    C     C_3   0.878780 0.495662 0.503966 -0.298386
C10   C     C_3   0.910685 0.547699 0.369416 0.961473
C11   C     C_3   0.379058 0.084383 0.440412 0.128354
C12   C     C_3   0.381546 0.922503 0.434793 0.131068
C13   C     C_3   0.601074 0.077147 0.424827 -0.273687
C14   C     C_3   0.603069 0.916652 0.426979 -0.224022
C15   C     C_3   0.513740 0.079761 0.629281 0.121514
C16   C     C_3   0.515299 0.918140 0.629014 0.130639
C17   C     C_R   0.499985 0.499673 0.257846 1.047304
C18   C     C_R   0.742409 0.498072 0.505420 1.011035
C19   C     C_R   0.501055 0.500297 0.742285 1.011947
C20   C     C_3   0.392391 0.556739 0.035028 -0.197362
C21   C     C_3   0.511911 0.369799 0.042167 -0.172536
C22   C     C_3   0.404905 0.428943 0.951168 0.201380
C23   C     C_3   0.500811 0.500861 0.877263 -0.364990
C24   C     C_3   0.489844 0.627175 0.960688 0.637812
C25   C     C_3   0.607092 0.444000 0.967537 0.669566
C26   C     C_3   0.598113 0.571773 0.051506 -0.231717
H1    H     H_    0.303496 0.115360 0.502310 0.098438
H2    H     H_    0.302615 0.887263 0.487231 0.135536
H3    H     H_    0.590587 0.113022 0.324358 0.214894
H4    H     H_    0.599129 0.877069 0.327816 0.232884
H5    H     H_    0.432717 0.115186 0.681950 0.127821
H6    H     H_    0.436234 0.884993 0.682814 0.154193
H7    H     H_    0.692874 0.113471 0.464476 0.211712
H8    H     H_    0.695123 0.879099 0.469532 0.230778
H9    H     H_    0.305457 0.607210 0.063485 0.249558
H10   H     H_    0.521949 0.263983 0.078396 0.228868
H11   H     H_    0.677004 0.629980 0.095883 0.254931
H12   H     H_    0.124041 0.674965 0.630010 0.216884
H13   H     H_    0.090279 0.301721 0.402644 0.245985
H14   H     H_    0.113507 0.511810 0.700219 0.268841
H15   H     H_    0.132068 0.291702 0.569009 0.250239
H16   H     H_    0.913718 0.699826 0.579689 0.193434
H17   H     H_    0.891638 0.277837 0.450412 0.189048
N1    N     N_3   0.499750 0.138610 0.497240 -0.147024
N2    N     N_3   0.499750 0.861390 0.497240 -0.168761
O1    O     O_R   0.314910 0.616040 0.499970 -0.615283
O2    O     O_R   0.314910 0.383960 0.499970 -0.621985
O3    O     O_R   0.500080 0.616020 0.313900 -0.584748
O4    O     O_R   0.500080 0.383980 0.313900 -0.599643
O5    O     O_R   0.685320 0.616040 0.499930 -0.584929
O6    O     O_R   0.685320 0.383960 0.499930 -0.610768
O7    O     O_R   0.500150 0.616060 0.686000 -0.581997
O8    O     O_R   0.500150 0.383940 0.686000 -0.583476
Zn1   Zn    Zn3+2 0.500150 0.654960 0.499940 1.039640
Zn2   Zn    Zn3+2 0.500150 0.345040 0.499940 1.029393
Br1   Br    Br    0.267169 0.324411 0.878487 -0.347292
F1    F     F_    0.841855 0.665025 0.334591 -0.637992
F2    F     F_    0.876590 0.450414 0.278324 -0.625390
Br2   Br    Br    0.320738 0.173301 0.279463 -0.324939
Br3   Br    Br    0.348687 0.853432 0.259891 -0.296910
Br4   Br    Br    0.653143 0.153571 0.733275 -0.223640
Br5   Br    Br    0.664409 0.837367 0.722661 -0.269639
F3    F     F_    0.475877 0.759705 0.918265 -0.585220
F4    F     F_    0.717305 0.385773 0.931249 -0.519350
Br6   Br    Br    0.879265 0.578716 0.779311 -0.221520
Br7   Br    Br    0.927965 0.264229 0.686763 -0.243705
Br8   Br    Br    0.077400 0.770868 0.374337 -0.367068
Br9   Br    Br    0.120890 0.507831 0.214598 -0.273955

loop_
_geom_bond_atom_site_label_1
_geom_bond_atom_site_label_2
_ccdc_geom_bond_type
C16   N2    S    
C14   H8    S    
C7    C10   S    
C19   C23   S    
C23   C24   S    
C4    H13   S    
C26   H11   S    
C15   H5    S    
C10   F1    S    
C16   H6    S    
C1    C8    S    
C9    C10   S    
C17   O3    A    
C11   H1    S    
C11   C12   S    
O1    Zn1   S    
C2    C21   S    
O8    Zn2   S    
C15   Br4   S    
O2    Zn2   S    
O7    Zn1   S    
C11   N1    S    
C2    C26   S    
C21   H10   S    
O4    Zn2   S    
C13   C14   S    
C2    C17   S    
C13   H7    S    
N1    Zn2   S    
C19   O8    A    
C5    C9    S    
O5    Zn1   S    
C6    Br7   S    
C16   Br5   S    
C14   H4    S    
C11   Br2   S    
C13   H3    S    
C7    Br9   S    
C10   F2    S    
C12   H2    S    
C18   O6    A    
C14   N2    S    
O6    Zn2   S    
C6    H17   S    
C23   C25   S    
C15   N1    S    
N2    Zn1   S    
C24   F3    S    
C4    C6    S    
C4    H15   S    
C20   C22   S    
C2    C20   S    
C15   C16   S    
C12   Br3   S    
C9    C18   S    
C7    C8    S    
C6    C9    S    
C18   O5    A    
C5    H16   S    
C5    Br6   S    
C3    C8    S    
C17   O4    A    
C4    C8    S    
O3    Zn1   S    
C21   C25   S    
C22   C23   S    
C1    O2    A    
C22   Br1   S    
C3    H14   S    
C1    O1    A    
C25   C26   S    
C21   C22   S    
C20   H9    S    
C7    Br8   S    
C19   O7    A    
C13   N1    S    
C20   C24   S    
C3    H12   S    
C24   C26   S    
C12   N2    S    
C3    C5    S    
C25   F4    S    
