data_mof_unit_14400.cif
_audit_creation_date              2012-10-26T21:12:08-0400
_audit_creation_method            fapswitch 2.2
_symmetry_space_group_name_H-M    P1
_symmetry_Int_Tables_number       1
_space_group_crystal_system       triclinic
_cell_length_a                    19.298069
_cell_length_b                    18.214721
_cell_length_c                    10.917653
_cell_angle_alpha                 90.181476
_cell_angle_beta                  90.721714
_cell_angle_gamma                 90.047055
_cell_volume                      3837.32754176

loop_
_atom_site_label
_atom_site_type_symbol
_atom_type_description
_atom_site_fract_x
_atom_site_fract_y
_atom_site_fract_z
_atom_type_partial_charge
C1    C     C_R   0.367274 0.500155 0.500423 0.605884
C2    C     C_R   0.952125 0.520746 0.465988 0.195173
C3    C     C_R   0.523043 0.721326 0.400617 0.008895
C4    C     C_R   0.476564 0.721168 0.599557 0.005959
C5    C     C_R   0.521493 0.798464 0.397909 -0.133374
C6    C     C_R   0.477481 0.798277 0.602865 -0.138405
C7    C     C_R   0.499083 0.838744 0.500390 0.052844
C8    C     C_R   0.441020 0.961300 0.549512 0.220653
C9    C     C_R   0.553600 0.962983 0.450498 0.215494
C10   C     C_R   0.441942 0.038879 0.552004 -0.108008
C11   C     C_R   0.550753 0.040474 0.447028 -0.079557
C12   C     C_R   0.632623 0.500150 0.506709 0.593317
C13   C     C_R   0.495664 0.079031 0.498900 0.008091
C14   C     C_R   0.500053 0.500006 0.265145 0.544874
C15   C     C_R   0.500826 0.500222 0.734898 0.547282
C16   C     C_R   0.497843 0.921930 0.499978 0.039285
C17   C     C_R   0.444526 0.201259 0.441165 0.178933
C18   C     C_R   0.548442 0.200150 0.568755 0.172811
C19   C     C_R   0.449089 0.279305 0.435587 0.341570
C20   C     C_R   0.549898 0.278378 0.564772 0.364459
C21   C     C_R   0.495941 0.161436 0.504236 -0.042300
C22   C     C_2   0.503523 0.440623 0.933446 -0.168587
C23   C     C_R   0.707614 0.500900 0.536345 -0.022098
C24   C     C_2   0.511737 0.441732 0.066532 -0.171311
C25   C     C_2   0.506596 0.501997 0.866922 -0.117196
C26   C     C_2   0.496071 0.501046 0.133045 -0.122369
C27   C     C_R   0.750576 0.442418 0.500425 0.211477
C28   C     C_R   0.255913 0.444473 0.566111 0.203712
C29   C     C_R   0.821768 0.446109 0.529625 -0.148003
C30   C     C_R   0.183543 0.446550 0.571754 -0.155880
C31   C     C_R   0.850121 0.504512 0.598418 0.012074
C32   C     C_R   0.145514 0.504430 0.520517 0.029970
C33   C     C_R   0.804814 0.556000 0.650604 0.264398
C34   C     C_R   0.290854 0.500816 0.504225 -0.005181
C35   C     C_R   0.179736 0.559452 0.453397 0.283458
C36   C     C_R   0.735124 0.558243 0.609782 0.175072
C37   C     C_R   0.253177 0.559014 0.449621 0.182297
C38   C     C_3   0.324468 0.936428 0.543162 -0.011134
C39   C     C_3   0.267671 0.891444 0.602762 -0.379530
C40   C     C_3   0.668659 0.937863 0.476608 -0.011711
C41   C     C_3   0.729454 0.895718 0.423588 -0.381342
C42   C     C_3   0.329443 0.170661 0.420790 -0.016371
C43   C     C_3   0.279850 0.118981 0.353963 -0.386338
C44   C     C_3   0.582007 0.130065 0.733372 -0.023883
C45   C     C_R   0.973283 0.519308 0.686790 0.232708
C46   C     C_3   0.644384 0.094706 0.795938 -0.381306
C47   C     C_3   0.405185 0.308357 0.244716 0.005935
C48   C     C_3   0.358552 0.363138 0.178486 -0.374578
C49   C     C_3   0.615370 0.310171 0.736932 0.012826
C50   C     C_3   0.656697 0.375553 0.785543 -0.369310
C51   C     C_3   0.747154 0.317591 0.447834 0.047044
C52   C     C_3   0.792499 0.289055 0.343948 -0.280279
C53   C     C_3   0.818240 0.211417 0.370084 -0.495018
C54   C     C_3   0.275818 0.322128 0.618710 0.030959
C55   C     C_3   0.245014 0.289377 0.735104 -0.277653
C56   C     C_R   0.045247 0.509346 0.664857 0.194349
C57   C     C_3   0.238447 0.206064 0.726111 -0.498714
C58   C     C_3   0.798337 0.594808 0.849625 0.026819
C59   C     C_3   0.797884 0.665516 0.924226 -0.386685
C60   C     C_3   0.150337 0.623463 0.277369 0.043000
C61   C     C_3   0.090420 0.666881 0.222642 -0.382945
C62   C     C_3   0.703381 0.678142 0.587265 0.021243
C63   C     C_3   0.662512 0.739819 0.646570 -0.363302
C64   C     C_3   0.292240 0.677736 0.454491 0.005433
C65   C     C_3   0.331297 0.734728 0.380651 -0.371624
C66   C     C_3   0.973661 0.592299 0.859380 0.012625
C67   C     C_R   0.069913 0.508353 0.543483 0.000868
C68   C     C_3   0.971532 0.586376 0.998500 -0.386272
C69   C     C_3   0.084239 0.442626 0.831061 -0.001282
C70   C     C_3   0.147466 0.432928 0.914080 -0.393126
C71   C     C_3   0.030931 0.433461 0.278423 0.024725
C72   C     C_3   0.098464 0.391040 0.260860 -0.282294
C73   C     C_3   0.085205 0.316374 0.201318 -0.494739
C74   C     C_3   0.886912 0.602068 0.355710 0.023222
C75   C     C_3   0.818410 0.606114 0.284475 -0.257237
C76   C     C_3   0.794250 0.685451 0.270049 -0.503393
C77   C     C_R   0.926139 0.517603 0.586484 -0.023682
C78   C     C_R   0.022775 0.510665 0.444703 0.266449
Cu1   Cu    Cu3+1 0.500000 0.573360 0.500000 0.952663
Cu2   Cu    Cu3+1 0.500000 0.426640 0.500000 1.058912
H1    H     H_    0.496278 0.387603 0.889835 0.138122
H2    H     H_    0.156642 0.404004 0.620197 0.123579
H3    H     H_    0.831214 0.716562 0.212765 0.144700
H4    H     H_    0.541851 0.691879 0.321708 0.123574
H5    H     H_    0.458072 0.691602 0.678297 0.124304
H6    H     H_    0.328218 0.919751 0.445189 0.126647
H7    H     H_    0.308857 0.995031 0.549016 0.124868
H8    H     H_    0.259777 0.910769 0.698158 0.153615
H9    H     H_    0.218396 0.897777 0.550250 0.091035
H10   H     H_    0.282015 0.832479 0.604944 0.148394
H11   H     H_    0.658913 0.917335 0.570860 0.121894
H12   H     H_    0.683583 0.996843 0.481799 0.135394
H13   H     H_    0.529233 0.391634 0.110331 0.136031
H14   H     H_    0.743115 0.918735 0.332952 0.153782
H15   H     H_    0.775103 0.900287 0.486092 0.088968
H16   H     H_    0.715866 0.836861 0.411779 0.148760
H17   H     H_    0.309607 0.227204 0.407412 0.159981
H18   H     H_    0.329129 0.157028 0.519849 0.104267
H19   H     H_    0.299354 0.061767 0.358970 0.151445
H20   H     H_    0.227906 0.121689 0.396375 0.084005
H21   H     H_    0.275099 0.135122 0.256191 0.148581
H22   H     H_    0.542899 0.086343 0.718073 0.141262
H23   H     H_    0.559642 0.171534 0.796652 0.099163
H24   H     H_    0.537134 0.826117 0.315181 0.148313
H25   H     H_    0.684937 0.136545 0.815472 0.141839
H26   H     H_    0.628437 0.069338 0.883554 0.101099
H27   H     H_    0.666216 0.051420 0.735806 0.145932
H28   H     H_    0.387601 0.252857 0.216454 0.167825
H29   H     H_    0.459427 0.315770 0.214499 0.128063
H30   H     H_    0.371452 0.420026 0.207336 0.179105
H31   H     H_    0.365335 0.358048 0.077950 0.098296
H32   H     H_    0.303474 0.352104 0.200534 0.133164
H33   H     H_    0.646547 0.260907 0.758964 0.162419
H34   H     H_    0.564889 0.307665 0.784821 0.097408
H35   H     H_    0.461863 0.825684 0.686063 0.149716
H36   H     H_    0.630776 0.427784 0.760943 0.174511
H37   H     H_    0.661494 0.372235 0.886837 0.090904
H38   H     H_    0.709417 0.375478 0.745860 0.135471
H39   H     H_    0.700879 0.281527 0.452573 0.202781
H40   H     H_    0.774225 0.312301 0.538294 0.113749
H41   H     H_    0.761814 0.288725 0.257082 0.170344
H42   H     H_    0.837812 0.325717 0.331360 0.162677
H43   H     H_    0.850426 0.210764 0.455154 0.142518
H44   H     H_    0.850356 0.192023 0.292776 0.142214
H45   H     H_    0.773720 0.173322 0.380517 0.155504
H46   H     H_    0.401461 0.068007 0.599336 0.108997
H47   H     H_    0.324576 0.292434 0.598643 0.163842
H48   H     H_    0.240106 0.312881 0.538879 0.100598
H49   H     H_    0.278599 0.303410 0.815318 0.175012
H50   H     H_    0.192853 0.312762 0.750687 0.143378
H51   H     H_    0.208089 0.190225 0.643001 0.138119
H52   H     H_    0.211455 0.184968 0.808053 0.146469
H53   H     H_    0.290615 0.180533 0.722883 0.134702
H54   H     H_    0.828225 0.552263 0.899637 0.157763
H55   H     H_    0.743902 0.574647 0.845051 0.156930
H56   H     H_    0.771384 0.709569 0.871847 0.164550
H57   H     H_    0.592467 0.070832 0.405124 0.140868
H58   H     H_    0.769476 0.656370 0.010459 0.095480
H59   H     H_    0.851309 0.683609 0.947303 0.130498
H60   H     H_    0.152482 0.568895 0.230957 0.153669
H61   H     H_    0.197963 0.654713 0.256462 0.170198
H62   H     H_    0.041008 0.637758 0.238418 0.190329
H63   H     H_    0.097795 0.673287 0.122532 0.085630
H64   H     H_    0.087951 0.722155 0.265607 0.140669
H65   H     H_    0.684977 0.671516 0.490832 0.140499
H66   H     H_    0.759054 0.694342 0.587150 0.144861
H67   H     H_    0.690060 0.760223 0.729688 0.119271
H68   H     H_    0.516633 0.555120 0.908601 0.103094
H69   H     H_    0.655710 0.785733 0.581414 0.107425
H70   H     H_    0.610722 0.719782 0.673549 0.188450
H71   H     H_    0.320467 0.668822 0.542724 0.147508
H72   H     H_    0.239945 0.700005 0.474594 0.155647
H73   H     H_    0.299049 0.752893 0.301451 0.125161
H74   H     H_    0.344279 0.782921 0.438636 0.116838
H75   H     H_    0.380109 0.710815 0.345831 0.190577
H76   H     H_    0.940967 0.638864 0.829066 0.173379
H77   H     H_    0.027484 0.607460 0.835019 0.167508
H78   H     H_    0.014016 0.550303 0.032001 0.156838
H79   H     H_    0.477448 0.551349 0.091341 0.102793
H80   H     H_    0.921483 0.563461 0.029141 0.159154
H81   H     H_    0.978115 0.641746 0.039636 0.082666
H82   H     H_    0.078434 0.392837 0.772332 0.097052
H83   H     H_    0.038240 0.446713 0.890489 0.181285
H84   H     H_    0.150211 0.478456 0.981915 0.147145
H85   H     H_    0.144077 0.379947 0.963540 0.087441
H86   H     H_    0.195458 0.433253 0.859050 0.187742
H87   H     H_    0.005074 0.440605 0.187737 0.158509
H88   H     H_    0.995010 0.400120 0.335550 0.121552
H89   H     H_    0.133869 0.423404 0.202370 0.158875
H90   H     H_    0.856737 0.406244 0.490681 0.127319
H91   H     H_    0.124240 0.382516 0.351170 0.152692
H92   H     H_    0.052152 0.282085 0.261008 0.142340
H93   H     H_    0.135302 0.287705 0.187726 0.141365
H94   H     H_    0.059092 0.323169 0.110817 0.140956
H95   H     H_    0.927055 0.632882 0.305100 0.140068
H96   H     H_    0.879281 0.629454 0.446210 0.128784
H97   H     H_    0.824698 0.580961 0.192415 0.165054
H98   H     H_    0.778227 0.574724 0.334083 0.171999
H99   H     H_    0.790340 0.712651 0.360832 0.127571
H100  H     H_    0.742325 0.686477 0.225163 0.143954
N1    N     N_R   0.500000 0.683620 0.500000 -0.223756
N2    N     N_R   0.500000 0.316380 0.500000 -0.255760
O1    O     O_R   0.400190 0.561980 0.499980 -0.487576
O2    O     O_3   0.609822 0.927227 0.400343 -0.575693
O3    O     O_3   0.396242 0.162500 0.371413 -0.567530
O4    O     O_3   0.603321 0.162378 0.622109 -0.571111
O5    O     O_3   0.399297 0.319289 0.372376 -0.533474
O6    O     O_3   0.607168 0.316710 0.608842 -0.509412
O7    O     O_3   0.723778 0.389520 0.420449 -0.542688
O8    O     O_3   0.293897 0.396490 0.639421 -0.552398
O9    O     O_3   0.828757 0.607829 0.733699 -0.552709
O10   O     O_3   0.141190 0.617385 0.405536 -0.550700
O11   O     O_3   0.692005 0.612831 0.653410 -0.548190
O12   O     O_R   0.599810 0.561980 0.500020 -0.485532
O13   O     O_3   0.288478 0.612191 0.385081 -0.570242
O14   O     O_3   0.949018 0.525952 0.805235 -0.556887
O15   O     O_3   0.093083 0.507077 0.760920 -0.560866
O16   O     O_3   0.046084 0.504242 0.325878 -0.557876
O17   O     O_3   0.907412 0.527753 0.366408 -0.563682
O18   O     O_R   0.400190 0.438070 0.500040 -0.419160
O19   O     O_R   0.599810 0.438070 0.499960 -0.412510
O20   O     O_R   0.500000 0.561940 0.321950 -0.519361
O21   O     O_R   0.500000 0.561940 0.678050 -0.515064
O22   O     O_R   0.500010 0.438030 0.322010 -0.485288
O23   O     O_R   0.499990 0.438030 0.677990 -0.493451
O24   O     O_3   0.387742 0.923745 0.605892 -0.578123

loop_
_geom_bond_atom_site_label_1
_geom_bond_atom_site_label_2
_ccdc_geom_bond_type
C66   C68   S    
C64   O13   S    
C35   O10   S    
C27   C29   A    
C50   H37   S    
C32   C35   A    
C57   H52   S    
C49   H33   S    
C76   H99   S    
C43   H21   S    
C1    O1    A    
Cu1   O1    S    
Cu2   O22   S    
C68   H81   S    
C58   H54   S    
C12   C23   S    
C62   C63   S    
Cu1   O12   S    
C64   H72   S    
C37   O13   S    
C35   C37   A    
C9    C16   A    
C43   H19   S    
C42   H18   S    
C38   C39   S    
C15   C25   S    
C41   H16   S    
C18   C21   A    
C46   H25   S    
C46   H26   S    
C59   H56   S    
C33   C36   A    
C76   H3    S    
C73   H94   S    
C75   H98   S    
C36   O11   S    
C63   H69   S    
C65   H73   S    
C19   O5    S    
C52   H42   S    
C61   H63   S    
Cu2   O19   S    
C45   C56   A    
C17   O3    S    
C55   H49   S    
C62   H65   S    
C14   O22   A    
C47   C48   S    
C51   H39   S    
C31   C33   A    
Cu2   N2    S    
C4    N1    A    
C38   O24   S    
C39   H10   S    
C18   C20   A    
C51   O7    S    
C55   H50   S    
C45   O14   S    
Cu2   O23   S    
C5    H24   S    
C28   C34   A    
C10   C13   A    
C8    C16   A    
C71   H87   S    
C69   O15   S    
C57   H53   S    
C67   C78   A    
C39   H8    S    
C68   H78   S    
C19   N2    A    
C63   H67   S    
C44   H23   S    
C44   C46   S    
C1    C34   S    
C31   C77   S    
C74   C75   S    
C64   H71   S    
C2    O17   S    
C72   H91   S    
C43   H20   S    
C4    C6    A    
C53   H43   S    
C42   H17   S    
C69   H82   S    
C5    C7    A    
C44   H22   S    
C4    H5    S    
C59   H58   S    
C3    C5    A    
C58   C59   S    
C47   H29   S    
C54   H48   S    
C22   C25   D    
C17   C21   A    
C51   C52   S    
C28   O8    S    
C60   C61   S    
C30   H2    S    
C75   C76   S    
C22   H1    S    
C63   H70   S    
C74   H96   S    
C65   H74   S    
C2    C78   A    
C60   H61   S    
C20   O6    S    
C9    C11   A    
C52   H41   S    
C61   H64   S    
C66   O14   S    
C41   H14   S    
C59   H59   S    
C60   O10   S    
Cu1   O20   S    
C46   H27   S    
C51   H40   S    
C13   C21   S    
C26   H79   S    
C12   O19   A    
C14   C26   S    
C73   H92   S    
C8    O24   S    
C3    N1    A    
C15   O23   A    
C53   H45   S    
C60   H60   S    
C32   C67   S    
C42   O3    S    
C8    C10   A    
C7    C16   S    
C48   H32   S    
C38   H6    S    
C23   C36   A    
C23   C27   A    
C71   H88   S    
C55   C57   S    
C29   H90   S    
C22   C24   S    
C70   H85   S    
C1    O18   A    
C42   C43   S    
C47   O5    S    
C58   O9    S    
C52   C53   S    
C71   O16   S    
C20   N2    A    
C56   O15   S    
C47   H28   S    
C54   C55   S    
C40   C41   S    
C54   O8    S    
C50   H38   S    
C12   O12   A    
C57   H51   S    
C69   H83   S    
C24   C26   D    
C72   C73   S    
C76   H100  S    
C53   H44   S    
C70   H84   S    
C15   O21   A    
C6    C7    A    
C34   C37   A    
C58   H55   S    
C56   C67   A    
C27   O7    S    
C54   H47   S    
Cu1   O21   S    
C38   H7    S    
C33   O9    S    
C64   C65   S    
C28   C30   A    
C66   H76   S    
C11   H57   S    
C71   C72   S    
C29   C31   A    
C9    O2    S    
C10   H46   S    
C24   H13   S    
C72   H89   S    
C30   C32   A    
C11   C13   A    
C41   H15   S    
C49   O6    S    
C14   O20   A    
C17   C19   A    
C18   O4    S    
C49   H34   S    
C25   H68   S    
C50   H36   S    
C40   H11   S    
C73   H93   S    
C69   C70   S    
C75   H97   S    
C6    H35   S    
C40   H12   S    
C70   H86   S    
Cu1   Cu2   S    
Cu1   N1    S    
C61   H62   S    
C74   H95   S    
C48   H31   S    
C74   O17   S    
C65   H75   S    
C49   C50   S    
C62   H66   S    
C3    H4    S    
C2    C77   A    
C45   C77   A    
C78   O16   S    
C62   O11   S    
C48   H30   S    
C68   H80   S    
C39   H9    S    
C66   H77   S    
C44   O4    S    
C40   O2    S    
Cu2   O18   S    
