data_mof_unit_6112.cif
_audit_creation_date              2013-03-05T15:57:37-0500
_audit_creation_method            fapswitch 2.2
_symmetry_space_group_name_H-M    P1
_symmetry_Int_Tables_number       1
_space_group_crystal_system       triclinic
_cell_length_a                    14.952031
_cell_length_b                    13.866005
_cell_length_c                    11.673537
_cell_angle_alpha                 90.300991
_cell_angle_beta                  88.56778
_cell_angle_gamma                 90.848887
_cell_volume                      2419.16481651

loop_
_atom_site_label
_atom_site_type_symbol
_atom_site_description
_atom_site_fract_x
_atom_site_fract_y
_atom_site_fract_z
_atom_type_partial_charge
O1    O     O_R   0.370260 0.582280 0.500020 -0.574191
O2    O     O_R   0.629740 0.417720 0.499980 -0.571440
O3    O     O_R   0.629740 0.582280 0.499980 -0.584818
O4    O     O_R   0.370260 0.417720 0.500020 -0.601340
C1    C     C_R   0.328993 0.499621 0.499241 0.831953
C2    C     C_R   0.670989 0.500736 0.497765 0.826400
O5    O     O_R   0.500010 0.582270 0.337200 -0.573778
O6    O     O_R   0.499990 0.417730 0.662800 -0.577140
O7    O     O_R   0.499990 0.582270 0.662800 -0.570565
O8    O     O_R   0.500010 0.417730 0.337200 -0.581245
C3    C     C_R   0.500151 0.499808 0.284182 0.817583
C4    C     C_R   0.499693 0.500201 0.715821 0.817202
Cu1   Cu    Cu3+1 0.500000 0.597420 0.500000 0.933168
Cu2   Cu    Cu3+1 0.500000 0.402580 0.500000 0.923616
C5    C     C_1   0.500008 0.499515 0.162485 -0.206138
C6    C     C_1   0.499637 0.500509 0.837530 -0.206238
C7    C     C_1   0.499846 0.499759 0.059922 -0.004778
C8    C     C_1   0.499688 0.500265 0.940098 -0.003278
C9    C     C_R   0.815728 0.495193 0.390761 0.088914
C10   C     C_R   0.184576 0.525588 0.600466 0.088947
C11   C     C_R   0.768366 0.504047 0.496270 -0.091220
C12   C     C_R   0.231576 0.501046 0.498677 -0.083612
C13   C     C_R   0.811761 0.528994 0.598144 0.100504
C14   C     C_R   0.188353 0.493676 0.393336 0.087623
C15   C     C_R   0.904695 0.549635 0.593927 0.031916
C16   C     C_R   0.096764 0.516931 0.388568 0.056277
C17   C     C_R   0.953573 0.534109 0.490381 -0.105058
C18   C     C_R   0.047790 0.533545 0.491540 -0.091603
C19   C     C_R   0.908888 0.516817 0.386246 0.052271
C20   C     C_R   0.092658 0.548489 0.595718 0.005371
C21   C     C_R   0.949985 0.590853 0.687975 0.220716
C22   C     C_R   0.053454 0.530560 0.283648 0.190986
C23   C     C_R   0.044380 0.590195 0.689380 0.205764
C24   C     C_R   0.959010 0.526228 0.281485 0.192725
C25   C     C_R   0.468278 0.796968 0.592696 0.297996
C26   C     C_R   0.502747 0.203636 0.399015 0.289436
C27   C     C_R   0.535802 0.794686 0.406712 0.293518
C28   C     C_R   0.484371 0.204903 0.600449 0.296708
N1    N     N_R   0.500000 0.743810 0.500000 -0.182507
N2    N     N_R   0.500000 0.256190 0.500000 -0.188647
C29   C     C_R   0.525020 0.896965 0.399148 -0.038081
C30   C     C_R   0.501598 0.103209 0.605647 -0.036841
C31   C     C_R   0.492055 0.897387 0.603146 -0.034374
C32   C     C_R   0.522639 0.103027 0.398932 -0.031621
C33   C     C_R   0.511962 0.948905 0.501855 -0.063420
C34   C     C_R   0.514120 0.051818 0.502453 -0.058624
C35   C     C_R   0.533121 0.949005 0.294290 0.178917
C36   C     C_R   0.504717 0.050715 0.710557 0.179108
C37   C     C_R   0.496875 0.947779 0.709653 0.175091
C38   C     C_R   0.541409 0.050842 0.296098 0.177781
C39   C     C_3   0.767445 0.455199 0.287118 -0.810514
H1    H     H_    0.811145 0.405346 0.237412 0.241378
H2    H     H_    0.707945 0.410529 0.310812 0.221547
H3    H     H_    0.745014 0.514994 0.232504 0.244516
C40   C     C_3   0.230183 0.512337 0.713892 -0.853495
H4    H     H_    0.284464 0.458732 0.707275 0.211921
H5    H     H_    0.260086 0.581388 0.743662 0.230485
H6    H     H_    0.182393 0.481783 0.778557 0.250645
C41   C     C_3   0.759695 0.522902 0.711651 -0.791513
H7    H     H_    0.802567 0.496743 0.780915 0.231522
H8    H     H_    0.731777 0.594390 0.734546 0.251082
H9    H     H_    0.703788 0.469536 0.708332 0.206789
C42   C     C_3   0.239151 0.452524 0.290344 -0.806285
H10   H     H_    0.281694 0.392559 0.316894 0.211902
H11   H     H_    0.194077 0.419185 0.226907 0.244100
H12   H     H_    0.282075 0.509218 0.249377 0.235940
N3    N     N_2   0.901083 0.645219 0.771875 -0.426037
H13   H     H_    0.920379 0.638168 0.855275 0.269168
C43   C     C_3   0.883954 0.743648 0.739627 -0.665593
H14   H     H_    0.840411 0.777956 0.806124 0.217051
H15   H     H_    0.848999 0.745406 0.656772 0.235118
H16   H     H_    0.947803 0.785409 0.731990 0.235693
N4    N     N_2   0.104634 0.559654 0.184424 -0.431026
H17   H     H_    0.078429 0.543210 0.106204 0.251093
C44   C     C_3   0.144075 0.655614 0.190419 -0.679284
H18   H     H_    0.187194 0.668836 0.113199 0.219676
H19   H     H_    0.186500 0.663491 0.266690 0.242475
H20   H     H_    0.091135 0.710803 0.194861 0.218625
N5    N     N_2   0.089196 0.649983 0.770490 -0.415886
H21   H     H_    0.144787 0.688374 0.741605 0.259061
C45   C     C_3   0.089495 0.619487 0.888897 -0.745232
H22   H     H_    0.159233 0.608755 0.916020 0.232377
H23   H     H_    0.051135 0.550921 0.901897 0.217237
H24   H     H_    0.059676 0.676636 0.943984 0.240660
N6    N     N_2   0.914545 0.538409 0.175975 -0.432041
H25   H     H_    0.939655 0.500416 0.106573 0.236034
C46   C     C_3   0.888788 0.635957 0.150491 -0.699509
H26   H     H_    0.843483 0.634937 0.076567 0.223457
H27   H     H_    0.948525 0.680682 0.127577 0.224171
H28   H     H_    0.852622 0.668660 0.225063 0.238569
C47   C     C_3   0.390744 0.758301 0.665493 -0.805034
H29   H     H_    0.339730 0.724701 0.610484 0.241955
H30   H     H_    0.411549 0.706960 0.731228 0.238426
H31   H     H_    0.355570 0.817691 0.711153 0.202254
C48   C     C_3   0.446625 0.237090 0.301281 -0.771379
H32   H     H_    0.488310 0.270883 0.232212 0.235726
H33   H     H_    0.408215 0.176149 0.263297 0.196109
H34   H     H_    0.394620 0.286823 0.333549 0.246053
C49   C     C_3   0.601576 0.748857 0.322651 -0.769316
H35   H     H_    0.642382 0.693966 0.361942 0.253109
H36   H     H_    0.568041 0.718434 0.246831 0.231979
H37   H     H_    0.652157 0.802922 0.292205 0.190755
C50   C     C_3   0.416959 0.243862 0.687441 -0.775465
H38   H     H_    0.372678 0.296535 0.647788 0.252644
H39   H     H_    0.371343 0.185419 0.719329 0.197327
H40   H     H_    0.449200 0.277511 0.762322 0.230839
C51   C     C_3   0.518865 0.899554 0.179756 -0.882802
H41   H     H_    0.482681 0.947068 0.120919 0.239060
H42   H     H_    0.583867 0.880597 0.138256 0.233806
H43   H     H_    0.475118 0.834691 0.189737 0.235525
C52   C     C_3   0.525570 0.102866 0.821769 -0.869657
H44   H     H_    0.579786 0.067185 0.867755 0.232865
H45   H     H_    0.553356 0.176260 0.806565 0.233631
H46   H     H_    0.464728 0.105936 0.878201 0.233461
C53   C     C_3   0.503794 0.892929 0.821489 -0.869656
H47   H     H_    0.566614 0.912148 0.864977 0.230146
H48   H     H_    0.445637 0.909261 0.878958 0.235413
H49   H     H_    0.508372 0.814104 0.809754 0.239093
C54   C     C_3   0.578377 0.101747 0.190001 -0.880575
H50   H     H_    0.630956 0.057623 0.147199 0.239009
H51   H     H_    0.524465 0.114272 0.128378 0.234537
H52   H     H_    0.611543 0.171242 0.212287 0.234350

loop_
_geom_bond_atom_site_label_1
_geom_bond_atom_site_label_2
_geom_bond_distance
_ccdc_geom_bond_type
C15   C21   1.417627 A    
C40   H4    1.109627 S    
C42   H11   1.108349 S    
C16   C22   1.414533 A    
C17   C19   1.419307 A    
N4    C44   1.449469 S    
N4    H17   1.025814 S    
C25   N1    1.384017 A    
C48   H32   1.108284 S    
C46   H26   1.110220 S    
O3    C2    1.295792 A    
C45   H22   1.109627 S    
C48   H34   1.104799 S    
C10   C20   1.417632 A    
C33   C34   1.426867 A    
C13   C41   1.522015 S    
O1    C1    1.293716 A    
C9    C11   1.411008 A    
C14   C16   1.414041 A    
C28   C30   1.439033 A    
C53   H47   1.107241 S    
C30   C34   1.406300 A    
C43   H15   1.111377 S    
O7    Cu1   1.913119 S    
C50   H38   1.104203 S    
C3    C5    1.420677 S    
C1    C12   1.457183 S    
C4    C6    1.420739 S    
C53   H48   1.110202 S    
C51   H41   1.110141 S    
C21   C23   1.412069 A    
C50   H40   1.106486 S    
C25   C31   1.437291 A    
O3    Cu1   1.954285 S    
N6    C46   1.446293 S    
C42   H12   1.110069 S    
C41   H7    1.110005 S    
C20   C23   1.420295 A    
Cu1   Cu2   2.701651 S    
O4    Cu2   1.954286 S    
C51   H42   1.109547 S    
O2    C2    1.297914 A    
C10   C40   1.517694 S    
C45   H23   1.112159 S    
C32   C34   1.406915 A    
C35   C38   1.415765 A    
C54   H51   1.109900 S    
C41   H8    1.110041 S    
N3    H13   1.027875 S    
C26   N2    1.382699 A    
N5    H21   1.030882 S    
C50   H39   1.111110 S    
O8    Cu2   1.913119 S    
C47   H29   1.105444 S    
N5    C45   1.447729 S    
C31   C37   1.425877 A    
N6    H25   1.030062 S    
C2    C11   1.455691 S    
C19   C24   1.423796 A    
C38   C54   1.516938 S    
C39   H2    1.106709 S    
C24   N6    1.426186 S    
C22   C24   1.413360 A    
C43   H16   1.111105 S    
O5    C3    1.297314 A    
C44   H18   1.109520 S    
C28   C50   1.515996 S    
C47   H30   1.103013 S    
C44   H19   1.110049 S    
C49   H35   1.092414 S    
O6    C4    1.297446 A    
C53   H49   1.103752 S    
C49   H37   1.110338 S    
C7    C8    1.398884 S    
C29   C35   1.425825 A    
C52   H45   1.107012 S    
C30   C36   1.430047 A    
C31   C33   1.407824 A    
C36   C37   1.430386 A    
C37   C53   1.520870 S    
C10   C12   1.408071 A    
C14   C42   1.519201 S    
C35   C51   1.517721 S    
O8    C3    1.298293 A    
C40   H5    1.108605 S    
C51   H43   1.109147 S    
C12   C14   1.405955 A    
C26   C32   1.430684 A    
O1    Cu1   1.948102 S    
C9    C19   1.420232 A    
C27   C49   1.515799 S    
C45   H24   1.109524 S    
C54   H52   1.109871 S    
C32   C38   1.422496 A    
C5    C7    1.197354 T    
C41   H9    1.109430 S    
O6    Cu2   1.910926 S    
C52   H44   1.107475 S    
C49   H36   1.106670 S    
C23   N5    1.428216 S    
O4    C1    1.300626 A    
C54   H50   1.110599 S    
C48   H33   1.111257 S    
C15   C17   1.413972 A    
C16   C18   1.411477 A    
C39   H3    1.109435 S    
C11   C13   1.408026 A    
C39   H1    1.109818 S    
C27   N1    1.392087 A    
C47   H31   1.110439 S    
C28   N2    1.387602 A    
C26   C48   1.511933 S    
C40   H6    1.107853 S    
C18   C20   1.416328 A    
C52   H46   1.110977 S    
C13   C15   1.414260 A    
C27   C29   1.433132 A    
C43   H14   1.110308 S    
O2    Cu2   1.948101 S    
C44   H20   1.109207 S    
Cu1   N1    2.029844 S    
O7    C4    1.298153 A    
C21   N3    1.426495 S    
Cu2   N2    2.029844 S    
C42   H10   1.104648 S    
C9    C39   1.522271 S    
O5    Cu1   1.910926 S    
C36   C52   1.519616 S    
C6    C8    1.197379 T    
C46   H28   1.111492 S    
C17   C18   1.409270 A    
C46   H27   1.107839 S    
C29   C33   1.406302 A    
N3    C43   1.445893 S    
C22   N4    1.428785 S    
C25   C47   1.513511 S    
