data_mof_unit_45257.cif
_audit_creation_date              2012-12-11T14:28:21-0500
_audit_creation_method            fapswitch 2.2
_symmetry_space_group_name_H-M    P1
_symmetry_Int_Tables_number       1
_space_group_crystal_system       triclinic
_cell_length_a                    10.875164
_cell_length_b                    19.369676
_cell_length_c                    18.771516
_cell_angle_alpha                 90.000049
_cell_angle_beta                  89.999205
_cell_angle_gamma                 89.45932
_cell_volume                      3954.01380971

loop_
_atom_site_label
_atom_site_type_symbol
_atom_type_description
_atom_site_fract_x
_atom_site_fract_y
_atom_site_fract_z
_atom_type_partial_charge
C1    C     C_R   0.316709 0.938567 0.637972 0.553491
C2    C     C_3   0.158748 0.726063 0.036988 -0.132763
C3    C     C_3   0.107205 0.196497 0.969170 0.213504
C4    C     C_3   0.495195 0.289816 0.479301 0.232551
C5    C     C_3   0.495173 0.289807 0.020699 0.232586
C6    C     C_3   0.607239 0.696501 0.530830 0.213505
C7    C     C_3   0.607208 0.696496 0.969170 0.213504
C8    C     C_3   0.129168 0.792546 0.504619 -0.123926
C9    C     C_3   0.129151 0.792549 0.995382 -0.123912
C10   C     C_3   0.189991 0.241169 0.484015 -0.075622
C11   C     C_3   0.189977 0.241118 0.015971 -0.075619
C12   C     C_3   0.629166 0.292540 0.504617 -0.123930
C13   C     C_3   0.143546 0.307549 0.520742 -0.093958
C14   C     C_3   0.629142 0.292548 0.995384 -0.123908
C15   C     C_3   0.689992 0.741133 0.484024 -0.075626
C16   C     C_3   0.689982 0.741116 0.015970 -0.075622
C17   C     C_3   0.092429 0.748235 0.569175 0.012445
C18   C     C_3   0.092431 0.748235 0.930826 0.012444
C19   C     C_3   0.085596 0.248434 0.429312 0.014332
C20   C     C_3   0.085612 0.248425 0.070682 0.014318
C21   C     C_3   0.592420 0.248234 0.569176 0.012438
C22   C     C_3   0.592426 0.248234 0.930827 0.012437
C23   C     C_3   0.585615 0.748426 0.429318 0.014325
C24   C     C_3   0.143606 0.307507 0.979242 -0.093956
C25   C     C_3   0.585615 0.748425 0.070682 0.014318
C26   C     C_3   0.958844 0.745932 0.544820 -0.118717
C27   C     C_3   0.958846 0.745923 0.955178 -0.118736
C28   C     C_3   0.002723 0.202169 0.475422 -0.121686
C29   C     C_3   0.002677 0.202194 0.024584 -0.121727
C30   C     C_3   0.458832 0.245938 0.544825 -0.118692
C31   C     C_3   0.458840 0.245920 0.955178 -0.118734
C32   C     C_3   0.502700 0.702184 0.475421 -0.121714
C33   C     C_3   0.502678 0.702194 0.024583 -0.121728
C34   C     C_3   0.989026 0.679101 0.501896 -0.159323
C35   C     C_3   0.658738 0.226044 0.463017 -0.132764
C36   C     C_3   0.989039 0.679095 0.998103 -0.159346
C37   C     C_3   0.955986 0.268431 0.513028 -0.167623
C38   C     C_3   0.956012 0.268467 0.986978 -0.167607
C39   C     C_3   0.488998 0.179101 0.501904 -0.159305
C40   C     C_3   0.489033 0.179092 0.998103 -0.159344
C41   C     C_3   0.456012 0.768454 0.513026 -0.167613
C42   C     C_3   0.456016 0.768468 0.986978 -0.167604
C43   C     C_3   0.123385 0.681683 0.527770 -0.109591
C44   C     C_3   0.123398 0.681687 0.972233 -0.109593
C45   C     C_3   0.038647 0.313942 0.465739 -0.119923
C46   C     C_3   0.658740 0.226061 0.036991 -0.132750
C47   C     C_3   0.038738 0.313943 0.034254 -0.119885
C48   C     C_3   0.623360 0.181676 0.527775 -0.109599
C49   C     C_3   0.623394 0.181684 0.972234 -0.109595
C50   C     C_3   0.538717 0.813942 0.465745 -0.119898
C51   C     C_3   0.538743 0.813944 0.034253 -0.119882
C52   C     C_3   0.643596 0.807520 0.520753 -0.093961
C53   C     C_3   0.643612 0.807507 0.979241 -0.093956
C54   C     C_3   0.025123 0.724186 0.437760 0.053673
C55   C     C_3   0.025115 0.724183 0.062240 0.053685
C56   C     C_3   0.061516 0.261692 0.566930 0.059368
C57   C     C_R   0.316708 0.938570 0.862028 0.553487
C58   C     C_3   0.061513 0.261687 0.933067 0.059381
C59   C     C_3   0.525104 0.224180 0.437764 0.053643
C60   C     C_3   0.525105 0.224179 0.062242 0.053688
C61   C     C_3   0.561523 0.761688 0.566933 0.059380
C62   C     C_3   0.561517 0.761687 0.933066 0.059382
C63   C     C_R   0.320880 0.006690 0.425566 -0.025764
C64   C     C_R   0.320882 0.006695 0.074432 -0.025777
C65   C     C_R   0.322078 0.961511 0.564937 -0.002207
C66   C     C_R   0.322075 0.961519 0.935061 -0.002218
C67   C     C_R   0.820882 0.506690 0.425566 -0.025776
C68   C     C_R   0.318901 0.035190 0.355196 0.540653
C69   C     C_R   0.820881 0.506695 0.074432 -0.025776
C70   C     C_R   0.822079 0.461510 0.564936 -0.002218
C71   C     C_R   0.822075 0.461518 0.935061 -0.002217
C72   C     C_R   0.547340 0.985169 0.420880 -0.090291
C73   C     C_R   0.547342 0.985177 0.079110 -0.090298
C74   C     C_R   0.545596 0.996631 0.567662 -0.073476
C75   C     C_R   0.545591 0.996642 0.932329 -0.073469
C76   C     C_R   0.047341 0.485166 0.420880 -0.090267
C77   C     C_R   0.047341 0.485176 0.079111 -0.090296
C78   C     C_R   0.045597 0.496630 0.567661 -0.073492
C79   C     C_R   0.318902 0.035192 0.144803 0.540644
C80   C     C_R   0.045590 0.496643 0.932330 -0.073470
C81   C     C_R   0.657428 0.991407 0.457384 -0.099204
C82   C     C_R   0.657428 0.991415 0.042603 -0.099215
C83   C     C_R   0.655072 0.002531 0.530329 -0.149925
C84   C     C_R   0.655069 0.002541 0.969658 -0.149911
C85   C     C_R   0.157429 0.491404 0.457384 -0.099205
C86   C     C_R   0.157427 0.491415 0.042604 -0.099211
C87   C     C_R   0.155072 0.502530 0.530328 -0.149948
C88   C     C_R   0.155067 0.502542 0.969659 -0.149910
C89   C     C_R   0.434348 0.981196 0.531768 0.008542
C90   C     C_R   0.816709 0.438566 0.637972 0.553488
C91   C     C_R   0.434345 0.981205 0.968227 0.008520
C92   C     C_R   0.433772 0.988811 0.457885 -0.037346
C93   C     C_R   0.433772 0.988819 0.042109 -0.037353
C94   C     C_R   0.934349 0.481195 0.531767 0.008533
C95   C     C_R   0.934345 0.481204 0.968227 0.008522
C96   C     C_R   0.933773 0.488810 0.457885 -0.037349
C97   C     C_R   0.933771 0.488818 0.042109 -0.037352
C98   C     C_R   0.209173 0.967264 0.527339 0.015087
C99   C     C_R   0.209170 0.967272 0.972661 0.015092
C100  C     C_R   0.208650 0.005276 0.465521 0.051004
C101  C     C_R   0.816708 0.438570 0.862028 0.553486
C102  C     C_R   0.208650 0.005284 0.034479 0.050971
C103  C     C_R   0.709174 0.467263 0.527338 0.015085
C104  C     C_R   0.709169 0.467271 0.972661 0.015090
C105  C     C_R   0.708651 0.505277 0.465521 0.050988
C106  C     C_R   0.708650 0.505283 0.034479 0.050971
C107  C     C_R   0.094150 0.944382 0.553710 -0.038234
C108  C     C_R   0.094145 0.944389 0.946294 -0.038219
C109  C     C_R   0.096320 0.041049 0.448627 -0.015910
C110  C     C_R   0.096323 0.041057 0.051377 -0.015913
C111  C     C_R   0.594151 0.444380 0.553708 -0.038218
C112  C     C_R   0.818901 0.535190 0.355196 0.540651
C113  C     C_R   0.594144 0.444389 0.946294 -0.038220
C114  C     C_R   0.596323 0.541050 0.448627 -0.015907
C115  C     C_R   0.596322 0.541056 0.051377 -0.015913
C116  C     C_R   0.985464 0.975698 0.534409 -0.022622
C117  C     C_R   0.985460 0.975701 0.965605 -0.022595
C118  C     C_R   0.986542 0.026114 0.482967 -0.056384
C119  C     C_R   0.986541 0.026119 0.017045 -0.056349
C120  C     C_R   0.485465 0.475697 0.534406 -0.022588
C121  C     C_R   0.485459 0.475700 0.965605 -0.022593
C122  C     C_R   0.486543 0.526115 0.482966 -0.056351
C123  C     C_R   0.818902 0.535191 0.144804 0.540646
C124  C     C_R   0.486541 0.526119 0.017045 -0.056350
C125  C     C_R   0.137824 0.759030 0.641852 0.541371
C126  C     C_R   0.137826 0.759031 0.858148 0.541376
C127  C     C_R   0.130345 0.242308 0.355459 0.525504
C128  C     C_R   0.130352 0.242305 0.144538 0.525514
C129  C     C_R   0.637822 0.259030 0.641853 0.541369
C130  C     C_R   0.637825 0.259030 0.858149 0.541373
C131  C     C_R   0.630351 0.742305 0.355462 0.525516
C132  C     C_R   0.630353 0.742305 0.144537 0.525516
C133  C     C_R   0.536990 0.772401 0.642571 0.592204
C134  C     C_3   0.158755 0.726057 0.463015 -0.132775
C135  C     C_R   0.536994 0.772399 0.857428 0.592211
C136  C     C_R   0.496271 0.212148 0.362432 0.566202
C137  C     C_R   0.496256 0.212142 0.137571 0.566197
C138  C     C_R   0.036987 0.272402 0.642569 0.592200
C139  C     C_R   0.036992 0.272399 0.857428 0.592214
C140  C     C_R   0.996290 0.712155 0.362428 0.566237
C141  C     C_R   0.996270 0.712147 0.137569 0.566199
C142  C     C_3   0.995200 0.789817 0.479300 0.232570
C143  C     C_3   0.995183 0.789810 0.020698 0.232582
C144  C     C_3   0.107279 0.196513 0.530825 0.213501
Cl1   Cl    Cl    0.905924 0.858473 0.442215 -0.662795
Cl2   Cl    Cl    0.905903 0.858463 0.057783 -0.662794
Cl3   Cl    Cl    0.162384 0.127639 0.585228 -0.616440
Cl4   Cl    Cl    0.162214 0.127616 0.914753 -0.616405
Cl5   Cl    Cl    0.405929 0.358475 0.442212 -0.662808
Cl6   Cl    Cl    0.405895 0.358462 0.057782 -0.662794
Cl7   Cl    Cl    0.662277 0.627621 0.585243 -0.616405
Cl8   Cl    Cl    0.662214 0.627614 0.914752 -0.616400
Cr1   Cr    Cr6+3 0.488160 0.884660 0.750000 1.004490
Cr2   Cr    Cr6+3 0.333410 0.272740 0.250000 1.111598
Cr3   Cr    Cr6+3 0.833410 0.227260 0.750000 1.067758
Cr4   Cr    Cr6+3 0.833410 0.772740 0.250000 1.111599
Cr5   Cr    Cr6+3 0.488160 0.115340 0.250000 0.994599
Cr6   Cr    Cr6+3 0.988160 0.384660 0.750000 1.004492
Cr7   Cr    Cr6+3 0.988160 0.615340 0.250000 0.994601
Cr8   Cr    Cr6+3 0.173480 0.883120 0.750000 1.023759
Cr9   Cr    Cr6+3 0.173480 0.116880 0.250000 1.001200
Cr10  Cr    Cr6+3 0.673480 0.383120 0.750000 1.023769
Cr11  Cr    Cr6+3 0.673480 0.616880 0.250000 1.001205
Cr12  Cr    Cr6+3 0.333410 0.727260 0.750000 1.067773
H1    H     H_    0.192357 0.836396 0.501182 0.098663
H2    H     H_    0.901751 0.958796 0.940867 0.121241
H3    H     H_    0.902685 0.052977 0.469155 0.080771
H4    H     H_    0.902689 0.052988 0.030857 0.080778
H5    H     H_    0.401759 0.458793 0.559149 0.121228
H6    H     H_    0.401750 0.458796 0.940867 0.121244
H7    H     H_    0.402688 0.552982 0.469156 0.080777
H8    H     H_    0.402688 0.552988 0.030857 0.080778
H9    H     H_    0.879949 0.754987 0.581224 0.151005
H10   H     H_    0.879955 0.754966 0.918771 0.150996
H11   H     H_    0.938666 0.163756 0.453677 0.098221
H12   H     H_    0.192333 0.836403 0.998821 0.098666
H13   H     H_    0.938604 0.163792 0.046333 0.098237
H14   H     H_    0.379937 0.255003 0.581228 0.151037
H15   H     H_    0.379948 0.254962 0.918770 0.151002
H16   H     H_    0.438633 0.663777 0.453674 0.098229
H17   H     H_    0.438603 0.663793 0.046332 0.098236
H18   H     H_    0.930775 0.632511 0.499428 0.153729
H19   H     H_    0.930795 0.632503 0.000567 0.153707
H20   H     H_    0.862513 0.280065 0.531918 0.107160
H21   H     H_    0.862560 0.280153 0.968116 0.107119
H22   H     H_    0.430734 0.132515 0.499439 0.153778
H23   H     H_    0.279616 0.225257 0.463163 0.135248
H24   H     H_    0.430793 0.132497 0.000567 0.153708
H25   H     H_    0.362553 0.780122 0.531902 0.107134
H26   H     H_    0.362564 0.780156 0.968113 0.107119
H27   H     H_    0.179824 0.638511 0.548860 0.146068
H28   H     H_    0.179852 0.638520 0.951146 0.146071
H29   H     H_    0.003635 0.357859 0.434492 0.135814
H30   H     H_    0.003807 0.357872 0.065502 0.135864
H31   H     H_    0.679793 0.138503 0.548867 0.146063
H32   H     H_    0.679850 0.138518 0.951148 0.146069
H33   H     H_    0.503758 0.857866 0.434497 0.135846
H34   H     H_    0.279581 0.225166 0.036810 0.135161
H35   H     H_    0.503813 0.857873 0.065501 0.135865
H36   H     H_    0.240012 0.717870 0.428207 0.135378
H37   H     H_    0.240000 0.717890 0.071799 0.135384
H38   H     H_    0.201784 0.349778 0.541430 0.172884
H39   H     H_    0.201876 0.349708 0.958536 0.172881
H40   H     H_    0.739995 0.217845 0.428209 0.135389
H41   H     H_    0.739994 0.217890 0.071801 0.135388
H42   H     H_    0.701858 0.849731 0.541450 0.172880
H43   H     H_    0.701882 0.849707 0.958535 0.172878
H44   H     H_    0.742960 0.990935 0.428222 0.158912
H45   H     H_    0.692361 0.336389 0.501175 0.098671
H46   H     H_    0.742961 0.990941 0.071763 0.158902
H47   H     H_    0.736546 0.017368 0.558636 0.101612
H48   H     H_    0.736543 0.017377 0.941348 0.101623
H49   H     H_    0.242961 0.490933 0.428222 0.158914
H50   H     H_    0.242959 0.490941 0.071764 0.158902
H51   H     H_    0.236547 0.517368 0.558635 0.101621
H52   H     H_    0.236542 0.517379 0.941350 0.101624
H53   H     H_    0.552876 0.976221 0.364192 0.145743
H54   H     H_    0.552882 0.976229 0.135799 0.145749
H55   H     H_    0.550841 0.010251 0.623110 0.165578
H56   H     H_    0.692323 0.336402 0.998822 0.098667
H57   H     H_    0.550832 0.010263 0.876881 0.165575
H58   H     H_    0.052877 0.476219 0.364191 0.145745
H59   H     H_    0.052880 0.476227 0.135799 0.145748
H60   H     H_    0.050842 0.510251 0.623109 0.165579
H61   H     H_    0.050830 0.510264 0.876881 0.165575
H62   H     H_    0.091011 0.084630 0.413591 0.162693
H63   H     H_    0.091020 0.084643 0.086409 0.162695
H64   H     H_    0.085752 0.903518 0.591279 0.155302
H65   H     H_    0.085745 0.903526 0.908723 0.155297
H66   H     H_    0.591016 0.584634 0.413594 0.162689
H67   H     H_    0.779605 0.725196 0.463180 0.135191
H68   H     H_    0.591020 0.584642 0.086409 0.162695
H69   H     H_    0.585753 0.403516 0.591277 0.155298
H70   H     H_    0.585744 0.403525 0.908723 0.155296
H71   H     H_    0.779588 0.725167 0.036811 0.135163
H72   H     H_    0.901758 0.958794 0.559151 0.121231
O1    O     O_R   0.575450 0.828820 0.667950 -0.540917
O2    O     O_R   0.416860 0.942890 0.825320 -0.508194
O3    O     O_R   0.416860 0.057110 0.325320 -0.529619
O4    O     O_R   0.416860 0.057110 0.174680 -0.529628
O5    O     O_R   0.916860 0.442890 0.674680 -0.508195
O6    O     O_R   0.916860 0.442890 0.825320 -0.508195
O7    O     O_R   0.916860 0.557110 0.325320 -0.529615
O8    O     O_R   0.916860 0.557110 0.174680 -0.529622
O9    O     O_R   0.213790 0.953680 0.668330 -0.473831
O10   O     O_R   0.213790 0.953680 0.831670 -0.473826
O11   O     O_R   0.213790 0.046320 0.331670 -0.525225
O12   O     O_R   0.575450 0.828820 0.832050 -0.540917
O13   O     O_R   0.213790 0.046320 0.168330 -0.525226
O14   O     O_R   0.713790 0.453680 0.668330 -0.473820
O15   O     O_R   0.713790 0.453680 0.831670 -0.473823
O16   O     O_R   0.713790 0.546320 0.331670 -0.525223
O17   O     O_R   0.713790 0.546320 0.168330 -0.525227
O18   O     O_R   0.121360 0.817890 0.672660 -0.546715
O19   O     O_R   0.121360 0.817890 0.827340 -0.546707
O20   O     O_R   0.121360 0.182110 0.327340 -0.535386
O21   O     O_R   0.121360 0.182110 0.172660 -0.535402
O22   O     O_R   0.621360 0.317890 0.672660 -0.546712
O23   O     O_R   0.575450 0.171180 0.332050 -0.525034
O24   O     O_R   0.621360 0.317890 0.827340 -0.546704
O25   O     O_R   0.621360 0.682110 0.327340 -0.535390
O26   O     O_R   0.621360 0.682110 0.172660 -0.535400
O27   O     O_R   0.206850 0.711370 0.665820 -0.515275
O28   O     O_R   0.206850 0.711370 0.834180 -0.515272
O29   O     O_R   0.206850 0.288630 0.334180 -0.477142
O30   O     O_R   0.206850 0.288630 0.165820 -0.477121
O31   O     O_R   0.706850 0.211370 0.665820 -0.515283
O32   O     O_R   0.706850 0.211370 0.834180 -0.515269
O33   O     O_R   0.706850 0.788630 0.334180 -0.477133
O34   O     O_R   0.575450 0.171180 0.167950 -0.525035
O35   O     O_R   0.706850 0.788630 0.165820 -0.477122
O36   O     O_R   0.457710 0.733190 0.672630 -0.466083
O37   O     O_R   0.457710 0.733190 0.827370 -0.466069
O38   O     O_R   0.457710 0.266810 0.327370 -0.428988
O39   O     O_R   0.457710 0.266810 0.172630 -0.428986
O40   O     O_R   0.957710 0.233190 0.672630 -0.466108
O41   O     O_R   0.957710 0.233190 0.827370 -0.466069
O42   O     O_R   0.957710 0.766810 0.327370 -0.429010
O43   O     O_R   0.957710 0.766810 0.172630 -0.428990
O44   O     O_3   0.331690 0.831680 0.750000 -0.323984
O45   O     O_R   0.075450 0.328820 0.667950 -0.540907
O46   O     O_3   0.331690 0.168320 0.250000 -0.319153
O47   O     O_3   0.831690 0.331680 0.750000 -0.323983
O48   O     O_3   0.831690 0.668320 0.250000 -0.319140
O49   O     O_R   0.075450 0.328820 0.832050 -0.540914
O50   O     O_R   0.075450 0.671180 0.332050 -0.525053
O51   O     O_R   0.075450 0.671180 0.167950 -0.525038
O52   O     O_R   0.416860 0.942890 0.674680 -0.508190

loop_
_geom_bond_atom_site_label_1
_geom_bond_atom_site_label_2
_ccdc_geom_bond_type
C46   H41   S    
C6    C32   S    
C71   C104  A    
C143  Cl2   S    
C41   C50   S    
C73   C93   A    
C74   C83   A    
C9    C143  S    
C61   C133  S    
C65   C89   A    
C90   O14   A    
C83   H47   S    
C52   C61   S    
C117  C119  A    
C86   C88   A    
C71   C95   A    
C69   C123  S    
C54   C134  S    
C9    H12   S    
C37   C56   S    
C77   H59   S    
C120  C122  A    
C50   C52   S    
C28   C144  S    
C41   C61   S    
C80   H61   S    
C4    C12   S    
C108  H65   S    
C21   C48   S    
Cr10  O24   S    
C100  C109  A    
C29   H13   S    
C22   C130  S    
C7    C33   S    
C14   H56   S    
C109  C118  A    
C113  H70   S    
C11   C20   S    
Cr6   O45   S    
C140  O42   A    
Cr12  O37   S    
C141  O43   A    
Cr4   O43   S    
C70   C103  A    
C67   C105  A    
Cr4   O33   S    
C26   H9    S    
C137  O39   A    
C17   C43   S    
C7    C62   S    
C18   C44   S    
C42   H26   S    
C124  H8    S    
C117  H2    S    
C137  O34   A    
Cr11  O25   S    
Cr7   O48   S    
C94   C96   A    
C22   C49   S    
C6    Cl7   S    
C34   C54   S    
C82   C84   A    
C64   C79   S    
C36   C44   S    
C37   C45   S    
Cr7   O8    S    
C16   C25   S    
C127  O29   A    
C46   C60   S    
C139  O41   A    
Cr3   O40   S    
C130  O24   A    
C95   C97   A    
C28   H11   S    
C8    C17   S    
C41   H25   S    
C106  C115  A    
C2    C55   S    
C80   C88   A    
C36   C55   S    
C1    O9    A    
C76   C96   A    
C13   C45   S    
C78   C94   A    
Cr12  O28   S    
C138  O45   A    
C116  C118  A    
Cr3   O47   S    
C20   C47   S    
C3    C11   S    
C7    Cl8   S    
C67   C112  S    
Cr10  O22   S    
C32   H16   S    
C51   C53   S    
C76   C85   A    
C1    O52   A    
C44   H28   S    
C78   H60   S    
C78   C87   A    
C40   C60   S    
Cr8   O44   S    
C57   C66   S    
Cr4   O35   S    
Cr10  O47   S    
C13   H38   S    
C64   C102  A    
C99   C108  A    
Cr1   O44   S    
C33   C42   S    
C6    C61   S    
C103  C111  A    
Cr11  O16   S    
C12   H45   S    
C75   C84   A    
C40   C49   S    
Cr1   O12   S    
C118  H3    S    
Cr11  O17   S    
Cr6   O6    S    
C3    C29   S    
C2    C44   S    
C29   C38   S    
C1    C65   S    
C32   C41   S    
C77   C97   A    
C42   C62   S    
C75   C91   A    
C13   C56   S    
C121  H6    S    
C133  O1    A    
C79   O4    A    
C144  Cl3   S    
C27   H10   S    
C81   C83   A    
C55   C143  S    
C8    C134  S    
C16   H71   S    
C135  O37   A    
C62   C135  S    
C86   H50   S    
Cr4   O42   S    
Cr10  O15   S    
C19   C28   S    
Cr5   O4    S    
C27   C143  S    
C30   H14   S    
C23   C131  S    
C103  C105  A    
C36   H19   S    
C10   C144  S    
C12   C35   S    
C101  O6    A    
C21   C129  S    
C115  H68   S    
C48   H31   S    
C132  O26   A    
C63   C68   S    
C5    C60   S    
C15   H67   S    
C108  C117  A    
C34   C43   S    
C72   C81   A    
C57   O10   A    
C110  C119  A    
C109  H62   S    
C19   C45   S    
C40   H24   S    
C80   C95   A    
C128  O21   A    
C14   C22   S    
C11   H34   S    
Cr3   O41   S    
C18   C126  S    
Cr9   O13   S    
Cr5   O23   S    
C28   C37   S    
C73   H54   S    
C125  O18   A    
C107  C116  A    
C8    H1    S    
C104  C113  A    
C9    C18   S    
C113  C121  A    
Cr11  O48   S    
C122  H7    S    
C128  O30   A    
C140  O50   A    
C2    C9    S    
C141  O51   A    
Cr9   O20   S    
C25   C33   S    
Cr5   O46   S    
C82   H46   S    
C69   C97   A    
Cr6   O49   S    
C24   H39   S    
C55   C141  S    
Cr8   O9    S    
Cr2   O29   S    
C104  C106  A    
C14   C46   S    
C46   C49   S    
Cr1   O2    S    
C70   C94   A    
C65   C98   A    
Cr9   O11   S    
C72   C92   A    
C35   H40   S    
C31   C40   S    
C35   C59   S    
Cr8   O18   S    
Cr2   O38   S    
C38   C58   S    
C39   H22   S    
Cr3   O32   S    
C130  O32   A    
C71   C101  S    
C142  Cl1   S    
C101  O15   A    
C2    H37   S    
C35   C48   S    
Cr7   O7    S    
C50   H33   S    
C45   H29   S    
Cr7   O50   S    
Cr4   O48   S    
C23   C50   S    
C5    Cl6   S    
C31   H15   S    
C43   C134  S    
C4    Cl5   S    
C91   C93   A    
C10   C19   S    
C39   C59   S    
C116  H72   S    
C136  O23   A    
C126  O28   A    
C15   C52   S    
C5    C14   S    
C81   H44   S    
C7    C16   S    
C54   C142  S    
C98   C100  A    
C33   H17   S    
C102  C110  A    
C73   C82   A    
Cr8   O19   S    
C115  C124  A    
Cr9   O46   S    
C136  O38   A    
C133  O36   A    
C68   O3    A    
C69   C106  A    
C84   H48   S    
C49   H32   S    
C27   C36   S    
C21   C30   S    
C23   C32   S    
Cr11  O26   S    
C111  H69   S    
C120  H5    S    
C123  O17   A    
C98   C107  A    
C56   C144  S    
C3    C58   S    
C99   C102  A    
C24   C58   S    
C87   H51   S    
C8    C142  S    
C119  H4    S    
C39   C48   S    
C58   C139  S    
C59   C136  S    
C47   H30   S    
C132  O35   A    
C134  H36   S    
C72   H53   S    
C52   H42   S    
C17   C26   S    
C74   C89   A    
C64   C93   A    
C20   C128  S    
C110  H63   S    
Cr12  O27   S    
C11   C24   S    
C139  O49   A    
C16   C53   S    
C121  C124  A    
C6    C15   S    
C26   C34   S    
C112  O7    A    
C54   C140  S    
C74   H55   S    
C30   C39   S    
C126  O19   A    
C57   O2    A    
C129  O31   A    
C60   C137  S    
C15   C23   S    
Cr12  O36   S    
C43   H27   S    
C3    Cl4   S    
C79   O13   A    
C125  O27   A    
C70   C90   S    
C123  O8    A    
Cr5   O3    S    
C112  O16   A    
C20   C29   S    
C85   C87   A    
C68   O11   A    
C22   C31   S    
C127  O20   A    
C105  C114  A    
C129  O22   A    
C76   H58   S    
C37   H20   S    
C12   C21   S    
Cr7   O51   S    
C138  O40   A    
C111  C120  A    
Cr6   O5    S    
C66   C99   A    
C63   C92   A    
C25   C51   S    
C63   C100  A    
C85   H49   S    
C56   C138  S    
C53   C62   S    
C131  O33   A    
C107  H64   S    
Cr1   O52   S    
C10   H23   S    
C89   C92   A    
C38   C47   S    
C51   H35   S    
C77   C86   A    
C67   C96   A    
Cr9   O21   S    
Cr6   O47   S    
C88   H52   S    
C24   C47   S    
C135  O12   A    
C18   C27   S    
Cr8   O10   S    
Cr2   O30   S    
C10   C13   S    
C114  H66   S    
C66   C91   A    
C38   H21   S    
C42   C51   S    
Cr1   O1    S    
Cr10  O14   S    
C25   C132  S    
C17   C125  S    
Cr5   O34   S    
C4    C59   S    
C19   C127  S    
C53   H43   S    
C34   H18   S    
Cr2   O39   S    
C4    C30   S    
Cr2   O46   S    
C114  C122  A    
C75   H57   S    
C90   O5    A    
Cr12  O44   S    
C131  O25   A    
C26   C142  S    
Cr3   O31   S    
C5    C31   S    
