data_mof_unit_54925.cif
_audit_creation_date              2012-12-10T18:42:57-0500
_audit_creation_method            fapswitch 2.2
_symmetry_space_group_name_H-M    P1
_symmetry_Int_Tables_number       1
_space_group_crystal_system       triclinic
_cell_length_a                    18.111347
_cell_length_b                    18.120701
_cell_length_c                    18.089119
_cell_angle_alpha                 120.043486
_cell_angle_beta                  90.126857
_cell_angle_gamma                 60.094656
_cell_volume                      4205.7139288

loop_
_atom_site_label
_atom_site_type_symbol
_atom_type_description
_atom_site_fract_x
_atom_site_fract_y
_atom_site_fract_z
_atom_type_partial_charge
C1    C     C_R   0.889304 0.217121 0.608198 0.948190
C2    C     C_3   0.551958 0.896675 0.946213 -0.156335
C3    C     C_3   0.434621 0.032106 0.066381 -0.111545
C4    C     C_3   0.565376 0.967894 0.933630 -0.111536
C5    C     C_3   0.997359 0.417431 0.448602 0.405771
C6    C     C_3   0.002644 0.582568 0.551398 0.405766
C7    C     C_3   0.083479 0.412671 0.460986 0.370708
C8    C     C_3   0.916524 0.587327 0.539013 0.370730
C9    C     C_3   0.050355 0.500857 0.448102 -0.274574
C10   C     C_3   0.949649 0.499140 0.551898 -0.274568
C11   C     C_3   0.963441 0.505711 0.435956 -0.289848
C12   C     C_R   0.110697 0.782879 0.391802 0.948179
C13   C     C_3   0.036563 0.494286 0.564043 -0.289841
C14   C     C_3   0.968768 0.030555 0.445661 -0.184318
C15   C     C_3   0.031234 0.969445 0.554340 -0.184312
C16   C     C_R   0.608721 0.782769 0.889631 0.962785
C17   C     C_R   0.391278 0.217231 0.110373 0.962835
C18   C     C_3   0.955492 0.960155 0.459664 0.455045
C19   C     C_3   0.044511 0.039845 0.540337 0.455058
C20   C     C_3   0.055683 0.896803 0.450166 -0.208840
C21   C     C_3   0.944320 0.103197 0.549834 -0.208840
C22   C     C_3   0.069212 0.967612 0.436747 -0.211840
C23   C     C_3   0.519258 0.404756 0.446297 0.462325
C24   C     C_3   0.930791 0.032388 0.563253 -0.211839
C25   C     C_3   0.918443 0.538217 0.047874 -0.150533
C26   C     C_3   0.081557 0.461782 0.952125 -0.150537
C27   C     C_3   0.963335 0.596399 0.071551 0.535232
C28   C     C_3   0.036666 0.403600 0.928448 0.535230
C29   C     C_3   0.051916 0.499027 0.050965 -0.155195
C30   C     C_3   0.948085 0.500972 0.949034 -0.155197
C31   C     C_3   0.007317 0.439474 0.027269 -0.363824
C32   C     C_3   0.992684 0.560525 0.972730 -0.363814
C33   C     C_3   0.585513 0.433724 0.986381 0.563926
C34   C     C_3   0.480742 0.595244 0.553703 0.462303
C35   C     C_3   0.414487 0.566277 0.013620 0.563916
C36   C     C_3   0.519256 0.402711 0.958512 -0.415210
C37   C     C_3   0.480744 0.597290 0.041489 -0.415209
C38   C     C_3   0.448202 0.501016 0.052084 -0.149174
C39   C     C_3   0.551798 0.498984 0.947917 -0.149181
C40   C     C_R   0.608672 0.499642 0.891274 0.924678
C41   C     C_R   0.391328 0.500358 0.108726 0.924670
C42   C     C_3   0.515135 0.530509 0.079333 -0.132885
C43   C     C_3   0.484865 0.469491 0.920668 -0.132864
C44   C     C_R   0.891919 0.499588 0.608576 0.976206
C45   C     C_3   0.449755 0.965502 0.964167 -0.116192
C46   C     C_R   0.108082 0.500411 0.391423 0.976210
C47   C     C_R   0.891738 0.499815 0.891220 0.945141
C48   C     C_R   0.108262 0.500184 0.108780 0.945142
C49   C     C_R   0.608683 0.499997 0.608340 0.915566
C50   C     C_R   0.391317 0.500004 0.391659 0.915578
C51   C     C_3   0.585675 0.433713 0.446694 0.491503
C52   C     C_3   0.414325 0.566288 0.553305 0.491508
C53   C     C_3   0.515188 0.530384 0.449191 -0.491293
C54   C     C_3   0.484812 0.469616 0.550808 -0.491274
C55   C     C_3   0.448064 0.500820 0.449163 -0.219542
C56   C     C_3   0.550243 0.034497 0.035843 -0.116216
C57   C     C_3   0.551936 0.499180 0.550837 -0.219542
C58   C     C_3   0.821028 0.982343 0.439796 -0.224054
C59   C     C_3   0.178967 0.017670 0.560221 -0.224089
C60   C     C_2   0.936093 0.054086 0.378595 0.984310
C61   C     C_2   0.063903 0.945916 0.621408 0.984273
C62   C     C_2   0.145190 0.934953 0.367755 0.967278
C63   C     C_2   0.854807 0.065047 0.632238 0.967285
C64   C     C_3   0.860194 0.773046 0.143646 -0.173516
C65   C     C_3   0.139797 0.226953 0.856357 -0.173540
C66   C     C_2   0.827219 0.582422 0.102800 0.950724
C67   C     C_3   0.463097 0.036931 0.951807 -0.138670
C68   C     C_2   0.172783 0.417575 0.897198 0.950748
C69   C     C_3   0.690781 0.300230 0.995435 -0.179791
C70   C     C_3   0.309220 0.699769 0.004565 -0.179757
C71   C     C_2   0.533398 0.565221 0.167481 0.937166
C72   C     C_2   0.466603 0.434777 0.832521 0.937132
C73   C     C_3   0.689259 0.328036 0.304693 -0.210432
C74   C     C_3   0.310742 0.671992 0.695315 -0.210433
C75   C     C_3   0.595951 0.235950 0.404039 -0.226121
C76   C     C_3   0.404051 0.764050 0.595958 -0.226108
C77   C     C_2   0.423127 0.076312 0.895895 0.937889
C78   C     C_3   0.536900 0.963068 0.048203 -0.138652
C79   C     C_2   0.576873 0.923688 0.104114 0.937870
C80   C     C_2   0.393987 0.927328 0.921139 0.956310
C81   C     C_2   0.606025 0.072645 0.078874 0.956520
C82   C     C_2   0.364164 0.062826 0.139521 0.995599
C83   C     C_2   0.635832 0.937177 0.860492 0.995622
C84   C     C_3   0.188870 0.260362 0.446603 -0.211098
C85   C     C_3   0.811129 0.739622 0.553379 -0.211152
C86   C     C_3   0.048254 0.262778 0.310497 -0.124504
C87   C     C_3   0.951772 0.737214 0.689499 -0.124421
C88   C     C_2   0.921638 0.510247 0.365255 0.951696
C89   C     C_3   0.448040 0.103326 0.053796 -0.156390
C90   C     C_2   0.078374 0.489734 0.634737 0.951651
H1    H     H_    0.525848 0.554865 0.407312 0.183574
H2    H     H_    0.212958 0.006297 0.500847 0.182309
H3    H     H_    0.198926 0.941154 0.544402 0.130068
H4    H     H_    0.204033 0.050072 0.615610 0.193814
H5    H     H_    0.848746 0.158943 0.355825 0.352112
H6    H     H_    0.151235 0.841057 0.644184 0.352105
H7    H     H_    0.265108 0.818737 0.267680 0.351678
H8    H     H_    0.734875 0.181262 0.732293 0.351674
H9    H     H_    0.807778 0.759071 0.124331 0.138694
H10   H     H_    0.889435 0.778865 0.094465 0.165586
H11   H     H_    0.826419 0.849290 0.210326 0.191494
H12   H     H_    0.474152 0.445134 0.592686 0.183582
H13   H     H_    0.110542 0.221135 0.905530 0.165577
H14   H     H_    0.192209 0.240928 0.875684 0.138702
H15   H     H_    0.173577 0.150706 0.789674 0.191495
H16   H     H_    0.700433 0.623037 0.108367 0.374167
H17   H     H_    0.299570 0.376956 0.891631 0.374172
H18   H     H_    0.679194 0.241569 0.946664 0.172007
H19   H     H_    0.646947 0.343885 0.065558 0.148518
H20   H     H_    0.761821 0.257361 0.992993 0.202363
H21   H     H_    0.353053 0.656113 0.934441 0.148533
H22   H     H_    0.320809 0.758428 0.053334 0.172027
H23   H     H_    0.013843 0.390904 0.050525 0.193142
H24   H     H_    0.238180 0.742640 0.007008 0.202363
H25   H     H_    0.503205 0.601663 0.293393 0.332243
H26   H     H_    0.496786 0.398357 0.706619 0.332253
H27   H     H_    0.671590 0.391481 0.297057 0.180088
H28   H     H_    0.648972 0.296560 0.276872 0.172444
H29   H     H_    0.761280 0.264005 0.263852 0.187731
H30   H     H_    0.351013 0.703496 0.723126 0.172456
H31   H     H_    0.328432 0.608557 0.702974 0.180074
H32   H     H_    0.238719 0.736011 0.736150 0.187722
H33   H     H_    0.564205 0.257949 0.470664 0.160874
H34   H     H_    0.986157 0.609096 0.949475 0.193152
H35   H     H_    0.660256 0.229806 0.401549 0.179871
H36   H     H_    0.612811 0.157508 0.351756 0.213485
H37   H     H_    0.339742 0.770203 0.598460 0.179856
H38   H     H_    0.435793 0.742041 0.529328 0.160864
H39   H     H_    0.387198 0.842491 0.648232 0.213519
H40   H     H_    0.344674 0.199576 0.890724 0.346215
H41   H     H_    0.655314 0.800425 0.109287 0.346219
H42   H     H_    0.374791 0.846667 0.805905 0.345887
H43   H     H_    0.625149 0.153417 0.194112 0.345927
H44   H     H_    0.251901 0.177167 0.247890 0.357658
H45   H     H_    0.533593 0.324150 0.925734 0.193021
H46   H     H_    0.748048 0.822839 0.752081 0.357682
H47   H     H_    0.129963 0.259281 0.461701 0.174806
H48   H     H_    0.209992 0.286334 0.507171 0.201419
H49   H     H_    0.245548 0.178950 0.393251 0.199202
H50   H     H_    0.790016 0.713634 0.492806 0.201423
H51   H     H_    0.870032 0.740711 0.538283 0.174822
H52   H     H_    0.754444 0.821033 0.606722 0.199197
H53   H     H_    0.114551 0.204307 0.306681 0.172323
H54   H     H_    0.057333 0.300334 0.281344 0.147512
H55   H     H_    0.020636 0.220336 0.267475 0.191605
H56   H     H_    0.466407 0.675851 0.074267 0.193028
H57   H     H_    0.942854 0.699631 0.718708 0.147515
H58   H     H_    0.885413 0.795566 0.693304 0.172270
H59   H     H_    0.979303 0.779800 0.732475 0.191615
H60   H     H_    0.922341 0.522515 0.260531 0.371903
H61   H     H_    0.077670 0.477464 0.739459 0.371908
H62   H     H_    0.801058 0.058906 0.455718 0.130049
H63   H     H_    0.787045 0.993619 0.499115 0.182365
H64   H     H_    0.795964 0.949998 0.384373 0.193768
O1    O     O_3   0.750010 0.499980 0.749990 -0.558159
O2    O     O_R   0.305750 0.265450 0.132730 -0.592734
O3    O     O_R   0.867280 0.265410 0.571220 -0.608809
O4    O     O_R   0.132720 0.734590 0.428780 -0.608807
O5    O     O_R   0.571230 0.734580 0.867270 -0.633904
O6    O     O_R   0.428770 0.265420 0.132730 -0.633846
O7    O     O_R   0.694200 0.438470 0.867270 -0.576176
O8    O     O_R   0.305800 0.561530 0.132730 -0.576169
O9    O     O_R   0.867340 0.561470 0.694210 -0.607444
O10   O     O_R   0.132660 0.438530 0.305790 -0.607463
O11   O     O_R   0.867310 0.438430 0.867270 -0.584462
O12   O     O_3   0.249990 0.500020 0.250010 -0.558159
O13   O     O_R   0.132690 0.561570 0.132730 -0.584462
O14   O     O_R   0.694200 0.438520 0.571220 -0.589595
O15   O     O_R   0.305800 0.561480 0.428780 -0.589600
O16   O     O_R   0.867340 0.561440 0.867270 -0.642724
O17   O     O_R   0.132660 0.438560 0.132730 -0.642725
O18   O     O_R   0.571190 0.561530 0.694210 -0.626142
O19   O     O_R   0.428810 0.438470 0.305790 -0.626117
O20   O     O_3   0.915079 0.909703 0.411390 -0.575379
O21   O     O_3   0.084918 0.090306 0.588612 -0.575373
O22   O     O_2   0.971183 0.983606 0.297898 -0.585104
O23   O     O_R   0.571190 0.561490 0.867270 -0.640095
O24   O     O_R   0.864671 0.154246 0.407776 -0.769143
O25   O     O_2   0.028814 0.016397 0.702105 -0.585117
O26   O     O_R   0.135316 0.845753 0.592230 -0.769133
O27   O     O_2   0.142677 0.000555 0.362089 -0.608790
O28   O     O_R   0.218556 0.830612 0.311149 -0.791946
O29   O     O_2   0.857322 0.999446 0.637909 -0.608783
O30   O     O_R   0.781434 0.169387 0.688833 -0.791974
O31   O     O_3   0.928452 0.695704 0.151485 -0.576109
O32   O     O_3   0.071549 0.304296 0.848513 -0.576111
O33   O     O_2   0.813074 0.610607 0.181412 -0.588546
O34   O     O_R   0.428810 0.438510 0.132730 -0.640127
O35   O     O_R   0.758850 0.591666 0.064340 -0.806486
O36   O     O_2   0.186929 0.389388 0.818587 -0.588549
O37   O     O_R   0.241151 0.408329 0.935658 -0.806491
O38   O     O_3   0.678156 0.367021 0.970682 -0.565674
O39   O     O_3   0.321844 0.632980 0.029318 -0.565694
O40   O     O_2   0.590772 0.583061 0.177747 -0.590270
O41   O     O_R   0.484820 0.577542 0.237428 -0.824991
O42   O     O_2   0.409245 0.416907 0.822249 -0.590264
O43   O     O_R   0.515169 0.422478 0.762582 -0.825003
O44   O     O_3   0.678419 0.362840 0.395662 -0.575118
O45   O     O_R   0.867310 0.438490 0.571220 -0.591904
O46   O     O_3   0.321581 0.637156 0.604337 -0.575104
O47   O     O_3   0.535876 0.306257 0.384909 -0.576940
O48   O     O_3   0.464124 0.693743 0.615090 -0.576952
O49   O     O_2   0.441641 0.014133 0.815136 -0.584322
O50   O     O_R   0.365987 0.183269 0.935796 -0.817081
O51   O     O_2   0.558374 0.985866 0.184869 -0.584443
O52   O     O_R   0.633999 0.816732 0.064217 -0.817046
O53   O     O_2   0.328186 0.949386 0.968159 -0.622075
O54   O     O_R   0.417640 0.867016 0.827010 -0.738442
O55   O     O_2   0.671942 0.050382 0.031866 -0.622181
O56   O     O_R   0.132690 0.561510 0.428780 -0.591888
O57   O     O_R   0.582265 0.133138 0.172996 -0.738442
O58   O     O_2   0.365911 0.995228 0.140905 -0.602299
O59   O     O_R   0.297038 0.167665 0.205268 -0.767833
O60   O     O_2   0.634116 0.004776 0.859139 -0.602410
O61   O     O_R   0.702918 0.832340 0.794707 -0.767803
O62   O     O_3   0.172900 0.322506 0.415175 -0.603570
O63   O     O_3   0.827102 0.677489 0.584819 -0.603594
O64   O     O_3   0.988566 0.333910 0.400207 -0.562921
O65   O     O_3   0.011444 0.666084 0.599781 -0.562935
O66   O     O_2   0.857070 0.504670 0.360947 -0.557253
O67   O     O_R   0.867280 0.265380 0.694210 -0.583595
O68   O     O_R   0.955826 0.521502 0.305341 -0.802279
O69   O     O_2   0.142956 0.495287 0.639032 -0.557241
O70   O     O_R   0.044177 0.478493 0.694657 -0.802277
O71   O     O_R   0.132720 0.734620 0.305790 -0.583589
O72   O     O_R   0.694250 0.734550 0.867270 -0.592730
Zn1   Zn    Zn3+2 0.618190 0.587870 0.793920 1.039475
Zn2   Zn    Zn3+2 0.381810 0.412130 0.206080 1.039467
Zn3   Zn    Zn3+2 0.793940 0.412090 0.793920 1.111350
Zn4   Zn    Zn3+2 0.206060 0.587910 0.206080 1.111352
Zn5   Zn    Zn3+2 0.793970 0.587840 0.793920 1.061537
Zn6   Zn    Zn3+2 0.206030 0.412160 0.206080 1.061519
Zn7   Zn    Zn3+2 0.793940 0.412130 0.618200 1.089430
Zn8   Zn    Zn3+2 0.206060 0.587870 0.381800 1.089434

loop_
_geom_bond_atom_site_label_1
_geom_bond_atom_site_label_2
_ccdc_geom_bond_type
C25   C31   S    
C81   O55   D    
C77   O50   S    
O12   Zn8   S    
C43   C72   S    
C73   H29   S    
C90   O69   D    
C13   C90   S    
C27   C29   S    
C14   C18   S    
C2    C4    S    
H42   O54   S    
C67   C77   S    
C54   C57   S    
C47   O16   A    
C6    C9    S    
C6    C8    S    
C75   O47   S    
C49   C57   S    
H7    O28   S    
C70   H24   S    
C1    C21   S    
C48   O13   A    
C16   O72   A    
C33   C39   S    
H44   O59   S    
C87   H57   S    
C23   O47   S    
C50   O19   A    
C75   H33   S    
C33   C42   S    
C14   C21   S    
C35   C37   S    
C5    C11   S    
C59   O21   S    
C23   C54   S    
O45   Zn7   S    
C86   O64   S    
C47   O11   A    
O18   Zn1   S    
C76   O48   S    
C22   C62   S    
C80   O53   D    
O1    Zn7   S    
C60   O24   S    
O72   Zn5   S    
C82   O59   S    
C66   O35   S    
C67   C89   S    
C33   C36   S    
C56   C78   S    
H61   O70   S    
C1    O67   A    
C38   C41   S    
C27   O31   S    
O1    Zn5   S    
C37   C42   S    
C17   O6    A    
C32   H34   S    
C85   O63   S    
C8    O63   S    
C58   H64   S    
C5    C10   S    
C72   O43   S    
C65   O32   S    
C69   H19   S    
C64   H9    S    
C84   H49   S    
C52   C54   S    
C45   C67   S    
C34   C57   S    
C26   C29   S    
C52   O46   S    
C44   O9    A    
O5    Zn1   S    
C37   H56   S    
C50   O15   A    
C35   C43   S    
C64   O31   S    
C52   C55   S    
C71   O41   S    
H46   O61   S    
O56   Zn8   S    
C84   H48   S    
C9    C46   S    
O12   Zn4   S    
C46   O10   A    
C41   O8    A    
C4    C56   S    
C16   O5    A    
O11   Zn3   S    
H60   O68   S    
C58   O20   S    
C3    C82   S    
C77   O49   D    
C69   O38   S    
C65   H15   S    
C69   H18   S    
C58   H62   S    
C86   H53   S    
C82   O58   D    
C53   C55   S    
C2    C45   S    
C64   H11   S    
C37   C39   S    
C63   O29   D    
O15   Zn8   S    
C8    C11   S    
C29   C48   S    
C10   C44   S    
C30   C47   S    
C56   C81   S    
C19   C22   S    
C73   H27   S    
C49   O14   A    
C87   H58   S    
C85   H51   S    
C39   C40   S    
C5    C7    S    
C26   C32   S    
C81   O57   S    
C71   O40   D    
C39   C43   S    
C68   O37   S    
C79   O51   D    
O1    Zn3   S    
O6    Zn2   S    
C41   O34   A    
C15   C20   S    
C75   H35   S    
C7    C9    S    
C85   H52   S    
C15   C19   S    
C53   H1    S    
C2    C78   S    
C58   H63   S    
C28   O32   S    
C62   O28   S    
C48   O17   A    
C76   H39   S    
O2    Zn6   S    
H5    O24   S    
C23   C51   S    
C5    O64   S    
C74   H32   S    
C68   O36   D    
C11   C88   S    
C50   C55   S    
O1    Zn1   S    
O16   Zn5   S    
C12   C20   S    
C51   O44   S    
C15   C61   S    
C17   C89   S    
C1    O3    A    
C73   O44   S    
H6    O26   S    
C9    C11   S    
C85   H50   S    
O8    Zn4   S    
C70   H22   S    
C61   O26   S    
O7    Zn3   S    
C18   O20   S    
C8    C10   S    
C56   C89   S    
C59   H4    S    
C69   H20   S    
C20   C22   S    
C84   H47   S    
C61   O25   D    
C24   C63   S    
C87   O65   S    
C33   O38   S    
C60   O22   D    
C88   O68   S    
C18   C24   S    
C65   H13   S    
O67   Zn3   S    
C86   H55   S    
C83   O60   D    
H40   O50   S    
O13   Zn4   S    
C25   C30   S    
C36   H45   S    
H25   O41   S    
O17   Zn6   S    
C15   C24   S    
O12   Zn6   S    
C63   O30   S    
C19   C21   S    
C27   C32   S    
C78   C79   S    
C73   H28   S    
C34   C52   S    
C54   H12   S    
C28   C31   S    
C25   C66   S    
C7    O62   S    
C74   O46   S    
O34   Zn2   S    
C10   C13   S    
C90   O70   S    
C72   O42   D    
C49   O18   A    
C83   O61   S    
O19   Zn2   S    
C23   C55   S    
C44   O45   A    
C2    C16   S    
C25   C27   S    
C79   O52   S    
C74   H30   S    
C26   C28   S    
O71   Zn4   S    
H16   O35   S    
C3    C89   S    
C14   C60   S    
O10   Zn6   S    
C75   H36   S    
C26   C68   S    
C14   C22   S    
C28   C30   S    
H41   O52   S    
C64   H10   S    
C40   O7    A    
C29   C31   S    
C46   O56   A    
O4    Zn8   S    
C6    C13   S    
C30   C32   S    
H26   O43   S    
C3    C78   S    
O3    Zn7   S    
C12   O71   A    
C4    C83   S    
O23   Zn1   S    
C34   O48   S    
C70   O39   S    
H43   O57   S    
C36   C38   S    
C42   C71   S    
C3    C45   S    
C86   H54   S    
C45   C80   S    
C18   C20   S    
C59   H2    S    
C80   O54   S    
H8    O30   S    
C12   O4    A    
C19   O21   S    
C70   H21   S    
C35   O39   S    
O9    Zn5   S    
C40   O23   A    
C38   C42   S    
C88   O66   D    
C51   C57   S    
C7    C13   S    
C74   H31   S    
C6    O65   S    
C34   C53   S    
O12   Zn2   S    
C87   H59   S    
C21   C24   S    
H17   O37   S    
C76   H37   S    
C35   C38   S    
C36   C43   S    
C59   H3    S    
C65   H14   S    
C51   C53   S    
C66   O33   D    
C17   O2    A    
C31   H23   S    
C4    C67   S    
C84   O62   S    
O14   Zn7   S    
C62   O27   D    
C76   H38   S    
