data_mof_unit_56489.cif
_audit_creation_date              2012-12-11T15:07:03-0500
_audit_creation_method            fapswitch 2.2
_symmetry_space_group_name_H-M    P1
_symmetry_Int_Tables_number       1
_space_group_crystal_system       triclinic
_cell_length_a                    19.647183
_cell_length_b                    11.362714
_cell_length_c                    18.719965
_cell_angle_alpha                 89.938801
_cell_angle_beta                  90.141565
_cell_angle_gamma                 89.996827
_cell_volume                      4179.12945453

loop_
_atom_site_label
_atom_site_type_symbol
_atom_type_description
_atom_site_fract_x
_atom_site_fract_y
_atom_site_fract_z
_atom_type_partial_charge
C1    C     C_R   0.761440 0.523269 0.638958 0.536356
C2    C     C_3   0.252641 0.056799 0.563319 0.066205
C3    C     C_R   0.738946 0.031166 0.150334 0.528437
C4    C     C_R   0.773644 0.130653 0.858035 0.509604
C5    C     C_R   0.226329 0.130809 0.141919 0.509258
C6    C     C_R   0.273644 0.630653 0.858035 0.509189
C7    C     C_R   0.726329 0.630809 0.141918 0.508558
C8    C     C_R   0.967710 0.353323 0.854259 0.541271
C9    C     C_R   0.032268 0.353384 0.145766 0.541428
C10   C     C_R   0.467709 0.853323 0.854260 0.541663
C11   C     C_R   0.532269 0.853384 0.145766 0.540761
C12   C     C_3   0.692091 0.145971 0.462862 -0.243719
C13   C     C_3   0.246661 0.555712 0.436902 0.066099
C14   C     C_3   0.312196 0.132379 0.534770 -0.234662
C15   C     C_3   0.187432 0.632448 0.465075 -0.233306
C16   C     C_3   0.815124 0.626712 0.533096 -0.233636
C17   C     C_3   0.694201 0.150110 0.544719 -0.232675
C18   C     C_3   0.307245 0.144374 0.453586 -0.231468
C19   C     C_3   0.192493 0.645314 0.546261 -0.230715
C20   C     C_3   0.812811 0.630573 0.451119 -0.238300
C21   C     C_3   0.745335 0.945086 0.480726 -0.224393
C22   C     C_3   0.243104 0.939695 0.519576 -0.216704
C23   C     C_3   0.255957 0.438762 0.481102 -0.217413
C24   C     C_3   0.753515 0.556055 0.562709 0.066149
C25   C     C_3   0.740084 0.439806 0.519945 -0.216284
C26   C     C_3   0.761062 0.092806 0.573527 0.067236
C27   C     C_3   0.239450 0.090666 0.425909 0.066743
C28   C     C_3   0.259887 0.590508 0.574197 0.066334
C29   C     C_3   0.741839 0.588380 0.424724 0.064523
C30   C     C_3   0.753907 0.961645 0.561608 -0.259797
C31   C     C_3   0.245207 0.958565 0.438261 -0.261487
C32   C     C_3   0.253039 0.458378 0.562305 -0.261813
C33   C     C_R   0.238462 0.522762 0.361012 0.536856
C34   C     C_3   0.737465 0.457437 0.438837 -0.256803
C35   C     C_3   0.825112 0.130942 0.530101 -0.213865
C36   C     C_3   0.176531 0.133815 0.470019 -0.214826
C37   C     C_3   0.322795 0.632851 0.529821 -0.216118
C38   C     C_3   0.686082 0.650533 0.468821 -0.218834
C39   C     C_3   0.003229 0.205467 0.459043 -0.232098
C40   C     C_3   0.996682 0.205548 0.541087 -0.231961
C41   C     C_3   0.494619 0.705260 0.457052 -0.239972
C42   C     C_3   0.492441 0.705267 0.539594 -0.232845
C43   C     C_3   0.065554 0.404909 0.474749 -0.212325
C44   C     C_R   0.261232 0.023643 0.639238 0.536433
C45   C     C_3   0.936011 0.405899 0.525407 -0.213082
C46   C     C_3   0.567166 0.886610 0.473503 -0.218034
C47   C     C_3   0.435957 0.910620 0.525668 -0.210527
C48   C     C_3   0.943127 0.392244 0.444354 -0.263105
C49   C     C_3   0.058946 0.389984 0.555847 -0.262142
C50   C     C_3   0.443949 0.902906 0.444655 -0.254789
C51   C     C_3   0.557251 0.887822 0.554670 -0.261331
C52   C     C_3   0.011240 0.333104 0.431111 0.064729
C53   C     C_3   0.989855 0.333234 0.569156 0.065035
C54   C     C_3   0.507908 0.832314 0.429882 0.063244
C55   C     C_R   0.739208 0.025596 0.360094 0.535223
C56   C     C_3   0.488112 0.833501 0.568406 0.065628
C57   C     C_3   0.812564 0.004770 0.044345 -0.151512
C58   C     C_3   0.187474 0.004748 0.955727 -0.151768
C59   C     C_3   0.312564 0.504771 0.044345 -0.151570
C60   C     C_3   0.687475 0.504748 0.955728 -0.151810
C61   C     C_R   0.774570 0.122302 0.648992 0.534043
C62   C     C_R   0.225766 0.121258 0.350595 0.532628
C63   C     C_R   0.274109 0.621255 0.649430 0.532464
C64   C     C_R   0.727012 0.618888 0.349390 0.529257
C65   C     C_3   0.822017 0.027833 0.965899 0.129552
C66   C     C_3   0.816094 0.119014 0.449230 -0.251690
C67   C     C_3   0.177994 0.028010 0.034130 0.129923
C68   C     C_3   0.322017 0.527833 0.965899 0.129626
C69   C     C_3   0.677994 0.528010 0.034131 0.130000
C70   C     C_3   0.683486 0.023325 0.029820 -0.228035
C71   C     C_3   0.316522 0.023383 0.970262 -0.228118
C72   C     C_3   0.183486 0.523325 0.029820 -0.228072
C73   C     C_3   0.816522 0.523383 0.970262 -0.228145
C74   C     C_3   0.755706 0.194092 0.059985 -0.280383
C75   C     C_3   0.244264 0.194065 0.939767 -0.279788
C76   C     C_3   0.255705 0.694092 0.059984 -0.280355
C77   C     C_3   0.188775 0.130378 0.551020 -0.260675
C78   C     C_3   0.744265 0.694064 0.939767 -0.279780
C79   C     C_3   0.747283 0.063398 0.073367 0.006133
C80   C     C_3   0.252725 0.063355 0.926615 0.005780
C81   C     C_3   0.247283 0.563398 0.073367 0.005911
C82   C     C_3   0.752726 0.563355 0.926616 0.005648
C83   C     C_3   0.759785 0.098166 0.934577 0.031960
C84   C     C_3   0.240216 0.098368 0.065377 0.031577
C85   C     C_3   0.259785 0.598165 0.934577 0.032083
C86   C     C_3   0.740216 0.598368 0.065377 0.031782
C87   C     C_3   0.696591 0.022345 0.947903 -0.269498
C88   C     C_3   0.310742 0.628076 0.448866 -0.261546
C89   C     C_3   0.303415 0.022545 0.052179 -0.269492
C90   C     C_3   0.196591 0.522345 0.947902 -0.269501
C91   C     C_3   0.803415 0.522545 0.052180 -0.269520
C92   C     C_3   0.748589 0.213887 0.978427 -0.238826
C93   C     C_3   0.251397 0.214028 0.021299 -0.238831
C94   C     C_3   0.248588 0.713886 0.978427 -0.238793
C95   C     C_3   0.751397 0.714028 0.021300 -0.238778
C96   C     C_3   0.004685 0.478291 0.039994 -0.282776
C97   C     C_3   0.995284 0.478239 0.959887 -0.282566
C98   C     C_3   0.504685 0.978291 0.039994 -0.282734
C99   C     C_3   0.691610 0.633115 0.549986 -0.259294
C100  C     C_3   0.495284 0.978239 0.959887 -0.282612
C101  C     C_3   0.063709 0.275357 0.026332 -0.149042
C102  C     C_3   0.936251 0.275297 0.973830 -0.149189
C103  C     C_3   0.563708 0.775357 0.026333 -0.148997
C104  C     C_3   0.436251 0.775297 0.973830 -0.149250
C105  C     C_3   0.941122 0.294578 0.055753 0.057552
C106  C     C_3   0.058828 0.294488 0.944376 0.057465
C107  C     C_3   0.441122 0.794579 0.055754 0.057559
C108  C     C_3   0.558827 0.794487 0.944377 0.057424
C109  C     C_R   0.969048 0.342230 0.645038 0.530434
C110  C     C_3   0.747783 0.060305 0.435913 0.064215
C111  C     C_R   0.031436 0.342173 0.355164 0.530567
C112  C     C_R   0.468398 0.842319 0.644629 0.531228
C113  C     C_R   0.529347 0.841904 0.353988 0.527786
C114  C     C_3   0.010828 0.350844 0.069338 0.054192
C115  C     C_3   0.989129 0.350744 0.930709 0.054252
C116  C     C_3   0.510828 0.850844 0.069338 0.054405
C117  C     C_3   0.489129 0.850743 0.930710 0.054125
C118  C     C_R   0.761072 0.531054 0.849683 0.529171
C119  C     C_R   0.238946 0.531166 0.150334 0.529096
C120  C     C_R   0.261072 0.031054 0.849683 0.528843
Cr1   Cr    Cr6+3 0.885690 0.492860 0.745310 1.002106
Cr2   Cr    Cr6+3 0.111880 0.178590 0.246990 1.023547
Cr3   Cr    Cr6+3 0.388120 0.678590 0.753010 1.023693
Cr4   Cr    Cr6+3 0.611880 0.678590 0.246990 1.023453
Cr5   Cr    Cr6+3 0.114310 0.492860 0.254690 1.001891
Cr6   Cr    Cr6+3 0.385690 0.992860 0.745310 1.002189
Cr7   Cr    Cr6+3 0.614310 0.992860 0.254690 1.001849
Cr8   Cr    Cr6+3 0.729880 0.332270 0.748190 1.001676
Cr9   Cr    Cr6+3 0.270120 0.332270 0.251810 1.001092
Cr10  Cr    Cr6+3 0.229880 0.832270 0.748190 1.001272
Cr11  Cr    Cr6+3 0.770120 0.832270 0.251810 1.001087
Cr12  Cr    Cr6+3 0.888120 0.178590 0.753010 1.023507
H1    H     H_    0.640459 0.123229 0.444706 0.129060
H2    H     H_    0.190792 0.909097 0.531050 0.125928
H3    H     H_    0.538796 0.024242 0.934407 0.124446
H4    H     H_    0.615168 0.782634 0.046701 0.059439
H5    H     H_    0.384801 0.782541 0.953428 0.059355
H6    H     H_    0.115168 0.282634 0.046701 0.059380
H7    H     H_    0.884801 0.282541 0.953427 0.059367
H8    H     H_    0.600182 0.853941 0.926740 0.099147
H9    H     H_    0.399771 0.854083 0.073259 0.099055
H10   H     H_    0.100182 0.353943 0.926739 0.099076
H11   H     H_    0.899771 0.354082 0.073258 0.099060
H12   H     H_    0.950741 0.182936 0.963462 0.214226
H13   H     H_    0.308307 0.407665 0.470339 0.124207
H14   H     H_    0.049222 0.183015 0.036901 0.214422
H15   H     H_    0.450741 0.682936 0.963463 0.214229
H16   H     H_    0.549222 0.683015 0.036902 0.214433
H17   H     H_    0.649634 0.101954 0.566212 0.108283
H18   H     H_    0.350960 0.099252 0.428254 0.108048
H19   H     H_    0.148365 0.601987 0.571877 0.107413
H20   H     H_    0.851939 0.572961 0.428518 0.109321
H21   H     H_    0.694737 0.914947 0.472936 0.109031
H22   H     H_    0.277831 0.869882 0.536201 0.108148
H23   H     H_    0.221927 0.368374 0.464332 0.107896
H24   H     H_    0.688244 0.410808 0.534714 0.128141
H25   H     H_    0.776008 0.369840 0.534125 0.108890
H26   H     H_    0.709432 0.926384 0.591343 0.099433
H27   H     H_    0.292677 0.923344 0.414979 0.101958
H28   H     H_    0.204731 0.424877 0.584913 0.103950
H29   H     H_    0.779892 0.409944 0.412327 0.099527
H30   H     H_    0.857963 0.064602 0.426824 0.131034
H31   H     H_    0.144607 0.089676 0.578422 0.123717
H32   H     H_    0.353876 0.583556 0.422056 0.124941
H33   H     H_    0.645010 0.589917 0.570866 0.123239
H34   H     H_    0.817708 0.206290 0.422839 0.097797
H35   H     H_    0.799615 0.913593 0.581140 0.123342
H36   H     H_    0.195156 0.220258 0.572833 0.103800
H37   H     H_    0.306081 0.717790 0.425941 0.104398
H38   H     H_    0.696887 0.718777 0.577897 0.101192
H39   H     H_    0.842169 0.219320 0.544698 0.110658
H40   H     H_    0.158006 0.219535 0.452228 0.112471
H41   H     H_    0.341341 0.719405 0.546716 0.112175
H42   H     H_    0.694930 0.741063 0.456296 0.109966
H43   H     H_    0.813246 0.915198 0.885571 0.339828
H44   H     H_    0.186989 0.915210 0.114502 0.339514
H45   H     H_    0.313246 0.415198 0.885570 0.339721
H46   H     H_    0.202239 0.911727 0.412044 0.121450
H47   H     H_    0.686989 0.415210 0.114502 0.339390
H48   H     H_    0.919322 0.204330 0.140952 0.325954
H49   H     H_    0.080527 0.204080 0.859330 0.326031
H50   H     H_    0.419324 0.704332 0.140954 0.325873
H51   H     H_    0.580527 0.704077 0.859332 0.326247
H52   H     H_    0.295171 0.410489 0.589355 0.120975
H53   H     H_    0.688730 0.422676 0.417006 0.129057
H54   H     H_    0.044692 0.149272 0.441549 0.130385
H55   H     H_    0.954913 0.150788 0.558689 0.130602
H56   H     H_    0.531879 0.640803 0.437592 0.127803
H57   H     H_    0.361295 0.097108 0.550228 0.131338
H58   H     H_    0.452084 0.650066 0.560305 0.132649
H59   H     H_    0.957437 0.164536 0.435063 0.109193
H60   H     H_    0.041761 0.162667 0.565100 0.107396
H61   H     H_    0.446030 0.674212 0.435333 0.110339
H62   H     H_    0.539154 0.662439 0.560300 0.108593
H63   H     H_    0.607901 0.828451 0.461437 0.108542
H64   H     H_    0.383562 0.893233 0.541864 0.110620
H65   H     H_    0.117295 0.390019 0.456245 0.111285
H66   H     H_    0.883698 0.390547 0.543073 0.111443
H67   H     H_    0.598098 0.837705 0.582295 0.100181
H68   H     H_    0.138069 0.597878 0.449670 0.131076
H69   H     H_    0.399286 0.859422 0.419927 0.098540
H70   H     H_    0.100578 0.334911 0.577572 0.103385
H71   H     H_    0.900278 0.341442 0.421418 0.102514
H72   H     H_    0.943314 0.479824 0.418263 0.123928
H73   H     H_    0.062112 0.476931 0.582652 0.121903
H74   H     H_    0.448136 0.992823 0.421589 0.129847
H75   H     H_    0.559307 0.979536 0.575083 0.123328
H76   H     H_    0.948457 0.499146 0.536224 0.130552
H77   H     H_    0.053958 0.498626 0.464364 0.129041
H78   H     H_    0.447991 0.003126 0.539228 0.132427
H79   H     H_    0.863459 0.593663 0.552373 0.133323
H80   H     H_    0.577972 0.976833 0.455782 0.139392
H81   H     H_    0.811390 0.911098 0.054933 0.167270
H82   H     H_    0.188701 0.911095 0.945358 0.166862
H83   H     H_    0.311390 0.411099 0.054933 0.167231
H84   H     H_    0.688701 0.411095 0.945358 0.166838
H85   H     H_    0.701377 0.234017 0.440530 0.111461
H86   H     H_    0.311272 0.220789 0.559571 0.107258
H87   H     H_    0.188999 0.720589 0.439847 0.107935
H88   H     H_    0.813686 0.718005 0.553969 0.107628
H89   H     H_    0.857912 0.034858 0.074107 0.181090
H90   H     H_    0.865599 0.067554 0.544564 0.128527
H91   H     H_    0.142125 0.034682 0.925867 0.181108
H92   H     H_    0.357912 0.534859 0.074106 0.181097
H93   H     H_    0.642125 0.534682 0.925867 0.181140
H94   H     H_    0.866846 0.082015 0.960623 0.181518
H95   H     H_    0.133208 0.082304 0.039215 0.181827
H96   H     H_    0.366846 0.582014 0.960622 0.181533
H97   H     H_    0.633208 0.582303 0.039215 0.181849
H98   H     H_    0.662866 0.941427 0.049758 0.110308
H99   H     H_    0.337146 0.941425 0.950531 0.110178
H100  H     H_    0.162866 0.441427 0.049758 0.110264
H101  H     H_    0.135561 0.069195 0.459539 0.126444
H102  H     H_    0.837146 0.441425 0.950532 0.110171
H103  H     H_    0.704828 0.931537 0.928824 0.122000
H104  H     H_    0.295196 0.931756 0.071422 0.121390
H105  H     H_    0.204828 0.431537 0.928823 0.121937
H106  H     H_    0.795196 0.431756 0.071423 0.121327
H107  H     H_    0.715363 0.239194 0.089666 0.169610
H108  H     H_    0.284565 0.239136 0.909949 0.169547
H109  H     H_    0.215363 0.739194 0.089666 0.169685
H110  H     H_    0.784565 0.739136 0.909950 0.169612
H111  H     H_    0.805272 0.226276 0.080079 0.128379
H112  H     H_    0.363266 0.567451 0.540690 0.127377
H113  H     H_    0.194681 0.226176 0.919624 0.128262
H114  H     H_    0.305271 0.726276 0.080079 0.128445
H115  H     H_    0.694682 0.726175 0.919624 0.128327
H116  H     H_    0.779792 0.286664 0.960127 0.110437
H117  H     H_    0.220159 0.286797 0.039434 0.110428
H118  H     H_    0.279792 0.786664 0.960126 0.110472
H119  H     H_    0.720159 0.786797 0.039434 0.110462
H120  H     H_    0.694965 0.239058 0.969021 0.165409
H121  H     H_    0.305008 0.239302 0.030627 0.166083
H122  H     H_    0.194965 0.739058 0.969020 0.165406
H123  H     H_    0.635467 0.621766 0.451303 0.134856
H124  H     H_    0.805008 0.739302 0.030627 0.166088
H125  H     H_    0.644317 0.090965 0.039595 0.141530
H126  H     H_    0.355689 0.091007 0.960363 0.141632
H127  H     H_    0.144317 0.590965 0.039595 0.141524
H128  H     H_    0.855689 0.591007 0.960364 0.141632
H129  H     H_    0.686892 0.239351 0.564032 0.139635
H130  H     H_    0.313060 0.236199 0.437744 0.138315
H131  H     H_    0.187570 0.737244 0.561671 0.137827
H132  H     H_    0.826619 0.719479 0.432464 0.135063
H133  H     H_    0.652192 0.059029 0.918622 0.109643
H134  H     H_    0.783247 0.881343 0.461769 0.132359
H135  H     H_    0.347810 0.059283 0.081391 0.109711
H136  H     H_    0.152192 0.559029 0.918621 0.109539
H137  H     H_    0.847810 0.559283 0.081392 0.109677
H138  H     H_    0.048370 0.532412 0.053890 0.151726
H139  H     H_    0.951602 0.532377 0.945913 0.151855
H140  H     H_    0.548370 0.032412 0.053890 0.151760
H141  H     H_    0.451602 0.032377 0.945914 0.151833
H142  H     H_    0.961175 0.524324 0.065403 0.124330
H143  H     H_    0.038796 0.524243 0.934407 0.124387
H144  H     H_    0.461175 0.024325 0.065403 0.124325
O1    O     O_R   0.957210 0.449410 0.665480 -0.533844
O2    O     O_R   0.167480 0.095300 0.164000 -0.515364
O3    O     O_R   0.332520 0.595300 0.836000 -0.515913
O4    O     O_R   0.667480 0.595300 0.164000 -0.515671
O5    O     O_R   0.946380 0.253940 0.826940 -0.481579
O6    O     O_R   0.053620 0.253940 0.173060 -0.481430
O7    O     O_R   0.446380 0.753940 0.826940 -0.481328
O8    O     O_R   0.553620 0.753940 0.173060 -0.481862
O9    O     O_3   0.834560 0.334570 0.748840 -0.282187
O10   O     O_3   0.165440 0.334570 0.251160 -0.282335
O11   O     O_3   0.334560 0.834570 0.748840 -0.282091
O12   O     O_R   0.042790 0.449410 0.334520 -0.534497
O13   O     O_3   0.665440 0.834570 0.251160 -0.279520
O14   O     O_R   0.820730 0.541240 0.668250 -0.514901
O15   O     O_R   0.179270 0.541240 0.331750 -0.514866
O16   O     O_R   0.320730 0.041240 0.668250 -0.515002
O17   O     O_R   0.679270 0.041240 0.331750 -0.514289
O18   O     O_R   0.714240 0.455060 0.663710 -0.531186
O19   O     O_R   0.285760 0.455060 0.336290 -0.531771
O20   O     O_R   0.214240 0.955060 0.663710 -0.531253
O21   O     O_R   0.785760 0.955060 0.336290 -0.531259
O22   O     O_R   0.736780 0.204870 0.675910 -0.516954
O23   O     O_R   0.457210 0.949410 0.665480 -0.533576
O24   O     O_R   0.263220 0.204870 0.324090 -0.516446
O25   O     O_R   0.236780 0.704870 0.675910 -0.516216
O26   O     O_R   0.763220 0.704870 0.324090 -0.515659
O27   O     O_R   0.833070 0.087590 0.673490 -0.530586
O28   O     O_R   0.166930 0.087590 0.326510 -0.530336
O29   O     O_R   0.333070 0.587590 0.673490 -0.530510
O30   O     O_R   0.666930 0.587590 0.326510 -0.530839
O31   O     O_R   0.946890 0.246800 0.676300 -0.514265
O32   O     O_R   0.053110 0.246800 0.323700 -0.514000
O33   O     O_R   0.446890 0.746800 0.676300 -0.514291
O34   O     O_R   0.542790 0.949410 0.334520 -0.533969
O35   O     O_R   0.553110 0.746800 0.323700 -0.513056
O36   O     O_R   0.956650 0.457120 0.827980 -0.535765
O37   O     O_R   0.043350 0.457120 0.172020 -0.535628
O38   O     O_R   0.456650 0.957120 0.827980 -0.535479
O39   O     O_R   0.543350 0.957120 0.172020 -0.535997
O40   O     O_R   0.820220 0.548390 0.818890 -0.501542
O41   O     O_R   0.179780 0.548390 0.181110 -0.501505
O42   O     O_R   0.320220 0.048390 0.818890 -0.501776
O43   O     O_R   0.679780 0.048390 0.181110 -0.501997
O44   O     O_R   0.713680 0.462770 0.826210 -0.532018
O45   O     O_R   0.736260 0.212010 0.826560 -0.509251
O46   O     O_R   0.286320 0.462770 0.173790 -0.532197
O47   O     O_R   0.213680 0.962770 0.826210 -0.532293
O48   O     O_R   0.786320 0.962770 0.173790 -0.532558
O49   O     O_3   0.837470 0.920685 0.931759 -0.729689
O50   O     O_3   0.162414 0.921005 0.068518 -0.728944
O51   O     O_3   0.337470 0.420685 0.931759 -0.729689
O52   O     O_3   0.662414 0.421005 0.068518 -0.728961
O53   O     O_3   0.935844 0.186809 0.092007 -0.746623
O54   O     O_3   0.064080 0.186649 0.908338 -0.746801
O55   O     O_3   0.435844 0.686810 0.092008 -0.746621
O56   O     O_R   0.263740 0.212010 0.173440 -0.509516
O57   O     O_3   0.564079 0.686647 0.908339 -0.746760
O58   O     O_R   0.236260 0.712010 0.826560 -0.509485
O59   O     O_R   0.763740 0.712010 0.173440 -0.510024
O60   O     O_R   0.832520 0.095300 0.836000 -0.515698

loop_
_geom_bond_atom_site_label_1
_geom_bond_atom_site_label_2
_ccdc_geom_bond_type
C23   H23   S    
C73   C82   S    
Cr11  O26   S    
C34   H29   S    
C3    C79   S    
C21   C110  S    
Cr7   O13   S    
C40   H55   S    
C57   H89   S    
C77   H36   S    
Cr8   O18   S    
C48   H71   S    
C6    C85   S    
C1    O18   A    
Cr2   O28   S    
C9    C114  S    
C89   H104  S    
Cr1   O1    S    
C18   H130  S    
C94   H122  S    
Cr3   O3    S    
C45   C48   S    
Cr10  O20   S    
C87   H103  S    
C74   C92   S    
C41   H61   S    
C76   C94   S    
C14   H57   S    
C2    C22   S    
C3    O43   A    
C97   C115  S    
C64   O30   A    
C100  H3    S    
C25   C34   S    
Cr4   O8    S    
Cr12  O5    S    
C29   C64   S    
C37   H112  S    
C104  H15   S    
C96   C114  S    
C75   H108  S    
C11   O8    A    
C68   O51   S    
C106  H10   S    
C112  O23   A    
C27   C31   S    
C28   C32   S    
C38   C99   S    
C35   C66   S    
C118  O44   A    
C119  O41   A    
C108  O57   S    
C71   H126  S    
C13   C33   S    
C94   H118  S    
C39   H59   S    
C78   C82   S    
C40   H60   S    
C85   C90   S    
C119  O46   A    
C43   H65   S    
C66   C110  S    
C97   H143  S    
C73   H102  S    
C33   O19   A    
C98   H144  S    
C58   H82   S    
C74   C79   S    
Cr10  O25   S    
C82   C118  S    
Cr12  O31   S    
Cr6   O38   S    
C75   C93   S    
Cr6   O42   S    
C104  C117  S    
C53   C109  S    
C88   H37   S    
C70   C79   S    
C58   H91   S    
C68   H96   S    
C81   C119  S    
C105  O53   S    
C61   O27   A    
C106  C115  S    
C36   C77   S    
C76   H109  S    
C36   H101  S    
C20   H132  S    
Cr1   O36   S    
C49   C53   S    
C103  C116  S    
C59   H83   S    
C84   C93   S    
C2    C14   S    
C86   C95   S    
C28   C63   S    
C26   C35   S    
C48   C52   S    
C44   O20   A    
C71   H99   S    
C14   H86   S    
C100  C117  S    
C18   H18   S    
C104  C107  S    
H44   O50   S    
C99   H33   S    
Cr7   O39   S    
C112  O33   A    
C96   H142  S    
Cr4   O30   S    
C12   C110  S    
C92   H116  S    
Cr8   O45   S    
C113  O35   A    
C30   H35   S    
C51   H75   S    
C43   C52   S    
C38   H42   S    
C7    C86   S    
Cr9   O19   S    
H50   O55   S    
C13   C23   S    
Cr4   O35   S    
H45   O51   S    
C70   H125  S    
C2    C44   S    
Cr12  O27   S    
C29   C38   S    
C1    O14   A    
C19   H19   S    
C111  O12   A    
C107  H9    S    
H49   O54   S    
Cr7   O17   S    
C45   C53   S    
C25   H24   S    
Cr2   O32   S    
C68   C85   S    
C102  H12   S    
C65   O49   S    
C70   C87   S    
Cr2   O2    S    
C47   C50   S    
C9    O37   A    
C92   H120  S    
C36   H40   S    
Cr11  O13   S    
C31   H46   S    
C59   H92   S    
C39   C40   S    
C5    C84   S    
H43   O49   S    
Cr6   O23   S    
C88   H32   S    
C46   C51   S    
C103  H4    S    
C27   C62   S    
C69   H97   S    
C72   C90   S    
C58   C67   S    
Cr12  O9    S    
C67   H95   S    
C8    O36   A    
C19   C28   S    
Cr5   O15   S    
C21   H134  S    
Cr6   O16   S    
C50   H74   S    
C57   H81   S    
C26   C30   S    
C45   H76   S    
C4    O45   A    
C15   H87   S    
C101  C106  S    
C118  O40   A    
C21   H21   S    
C72   H100  S    
C108  C117  S    
C16   H79   S    
C5    O2    A    
C109  O1    A    
C63   O25   A    
C48   H72   S    
C62   O28   A    
C60   H84   S    
C10   C117  S    
C15   H68   S    
C60   C69   S    
C9    O6    A    
C16   H88   S    
C107  C116  S    
C55   O17   A    
C72   H127  S    
Cr9   O56   S    
C95   H124  S    
C47   C56   S    
C83   C87   S    
C35   H39   S    
C41   C42   S    
C37   C88   S    
C99   H38   S    
Cr1   O40   S    
C15   C19   S    
C50   C54   S    
Cr1   O14   S    
C26   C61   S    
Cr8   O9    S    
C86   C91   S    
C93   H121  S    
C104  H5    S    
C66   H30   S    
C102  C105  S    
C14   C18   S    
Cr5   O41   S    
C102  C115  S    
C42   C56   S    
C39   H54   S    
C55   O21   A    
Cr7   O43   S    
Cr8   O44   S    
C12   C17   S    
Cr12  O60   S    
C72   C81   S    
C58   C80   S    
C38   H123  S    
C101  C114  S    
C6    O3    A    
Cr4   O4    S    
H51   O57   S    
C17   H17   S    
C64   O26   A    
C47   H64   S    
Cr4   O13   S    
C35   H90   S    
C95   H119  S    
C97   H139  S    
C98   H140  S    
C29   C34   S    
C20   H20   S    
C41   H56   S    
C89   H135  S    
C10   O7    A    
C34   H53   S    
C90   H136  S    
C78   C95   S    
C46   C54   S    
Cr3   O33   S    
Cr1   O9    S    
C11   C116  S    
Cr2   O6    S    
Cr3   O11   S    
C87   H133  S    
C74   H111  S    
C10   O38   A    
C49   H73   S    
C98   C100  S    
C7    O4    A    
C12   H85   S    
Cr10  O47   S    
C50   H69   S    
Cr7   O34   S    
C109  O31   A    
Cr5   O10   S    
C90   H105  S    
C59   C81   S    
C57   C65   S    
Cr10  O11   S    
C101  H6    S    
C27   C36   S    
C106  O54   S    
C21   C30   S    
C113  O34   A    
C23   C32   S    
C2    C77   S    
C4    C83   S    
C91   H106  S    
C65   H94   S    
H48   O53   S    
C17   H129  S    
H47   O52   S    
C19   H131  S    
Cr11  O21   S    
C77   H31   S    
C69   O52   S    
C80   C120  S    
C24   C99   S    
C62   O24   A    
C57   C79   S    
C63   O29   A    
C73   H128  S    
C46   H63   S    
C83   C92   S    
C23   H13   S    
C78   H110  S    
C22   H2    S    
C17   C26   S    
C28   C37   S    
Cr9   O10   S    
C51   C56   S    
C46   H80   S    
C65   C83   S    
C120  O47   A    
C96   H138  S    
C54   C113  S    
C7    O59   A    
C60   H93   S    
C74   H107  S    
C42   H62   S    
C42   H58   S    
C8    C115  S    
C60   C82   S    
C107  O55   S    
C103  C108  S    
C120  O42   A    
C75   C80   S    
C75   H113  S    
C16   C20   S    
C67   O50   S    
Cr11  O59   S    
C5    O56   A    
C39   C52   S    
Cr5   O12   S    
C67   C84   S    
C16   C24   S    
Cr6   O11   S    
C71   C80   S    
C33   O15   A    
C93   H117  S    
C103  H16   S    
C20   C29   S    
C111  O32   A    
C41   C54   S    
C101  H14   S    
C22   C31   S    
C66   H34   S    
C105  C114  S    
C24   C25   S    
C73   C91   S    
Cr5   O37   S    
C43   H77   S    
C108  H8    S    
C43   C49   S    
C52   C111  S    
C45   H66   S    
C70   H98   S    
C59   C68   S    
C85   C94   S    
C98   C116  S    
C3    O48   A    
C71   C89   S    
C96   C97   S    
C78   H115  S    
C51   H67   S    
C1    C24   S    
C4    O60   A    
C12   H1    S    
C13   C15   S    
C55   C110  S    
C25   H25   S    
C6    O58   A    
C84   C89   S    
C22   H22   S    
C30   H26   S    
C49   H70   S    
C61   O22   A    
C44   O16   A    
C32   H52   S    
C76   H114  S    
C18   C27   S    
Cr11  O48   S    
C91   H137  S    
C76   C81   S    
C105  H11   S    
Cr8   O22   S    
Cr10  O58   S    
Cr9   O24   S    
C100  H141  S    
Cr3   O29   S    
Cr9   O46   S    
Cr2   O10   S    
Cr3   O7    S    
C8    O5    A    
C11   O39   A    
C13   C88   S    
C102  H7    S    
C37   H41   S    
C40   C53   S    
C47   H78   S    
C56   C112  S    
C31   H27   S    
C69   C86   S    
C32   H28   S    
