data_mof_unit_39542.cif
_audit_creation_date              2012-12-10T16:58:59-0500
_audit_creation_method            fapswitch 2.2
_symmetry_space_group_name_H-M    P1
_symmetry_Int_Tables_number       1
_space_group_crystal_system       triclinic
_cell_length_a                    9.70597
_cell_length_b                    10.931481
_cell_length_c                    17.396786
_cell_angle_alpha                 90.280621
_cell_angle_beta                  85.800437
_cell_angle_gamma                 89.679212
_cell_volume                      1840.79903963

loop_
_atom_site_label
_atom_site_type_symbol
_atom_type_description
_atom_site_fract_x
_atom_site_fract_y
_atom_site_fract_z
_atom_type_partial_charge
C1    C     C_R   0.499618 0.734593 0.500606 0.860314
C2    C     C_R   0.361918 0.438960 0.774322 -0.206472
C3    C     C_R   0.419814 0.455327 0.146267 -0.186546
C4    C     C_R   0.416153 0.442552 0.226005 -0.017323
C5    C     C_R   0.639885 0.543824 0.224947 -0.218383
C6    C     C_R   0.643137 0.553681 0.145249 -0.172220
C7    C     C_R   0.533273 0.509865 0.105578 0.175765
C8    C     C_2   0.472351 0.449249 0.976188 -0.232038
C9    C     C_2   0.537752 0.525361 0.021791 -0.223209
C10   C     C_R   0.525988 0.490768 0.266113 -0.072158
C11   C     C_2   0.613001 0.066493 0.501834 -0.157049
C12   C     C_R   0.482050 0.499455 0.649573 0.796667
C13   C     C_2   0.498613 0.133555 0.495270 -0.325604
C14   C     C_2   0.613088 0.932416 0.499313 -0.161028
C15   C     C_2   0.496641 0.866655 0.503053 -0.313857
C16   C     C_2   0.069721 0.573509 0.542952 0.051001
C17   C     C_2   0.915945 0.580773 0.536582 -0.114094
C18   C     C_R   0.500287 0.265455 0.498976 0.843654
C19   C     C_R   0.517896 0.495692 0.350370 0.784405
C20   C     C_R   0.474671 0.493682 0.733325 -0.012255
C21   C     C_R   0.587113 0.534711 0.772299 -0.202343
C22   C     C_R   0.587448 0.520731 0.851367 -0.149525
C23   C     C_R   0.474226 0.466754 0.892743 0.191950
C24   C     C_R   0.361914 0.425379 0.853806 -0.182018
Cu1   Cu    Cu3+1 0.361370 0.499980 0.499980 0.956023
Cu2   Cu    Cu3+1 0.638630 0.500020 0.500020 0.934556
H1    H     H_    0.676030 0.575880 0.741439 0.148581
H2    H     H_    0.731079 0.596536 0.114503 0.125643
H3    H     H_    0.711333 0.110716 0.508742 0.162387
H4    H     H_    0.399701 0.093411 0.485888 0.136903
H5    H     H_    0.713264 0.887053 0.495485 0.161866
H6    H     H_    0.395160 0.908060 0.509304 0.140492
H7    H     H_    0.112240 0.451301 0.457986 0.202775
H8    H     H_    0.859188 0.654591 0.566763 0.158379
H9    H     H_    0.898307 0.426657 0.476710 0.192488
H10   H     H_    0.724548 0.581349 0.254624 0.154124
H11   H     H_    0.597092 0.601582 0.997482 0.143325
H12   H     H_    0.274596 0.382188 0.884921 0.123768
H13   H     H_    0.332520 0.423471 0.116605 0.124846
H14   H     H_    0.276161 0.403522 0.744791 0.141380
H15   H     H_    0.413252 0.372746 0.000220 0.145819
H16   H     H_    0.678034 0.549280 0.879263 0.122108
N1    N     N_2   0.152990 0.501340 0.500850 -0.301443
N2    N     N_2   0.846850 0.501370 0.500880 -0.289703
O1    O     O_R   0.382960 0.678040 0.499990 -0.575000
O2    O     O_R   0.617100 0.678080 0.500010 -0.580163
O3    O     O_R   0.369350 0.500000 0.613580 -0.575539
O4    O     O_R   0.603500 0.500040 0.613610 -0.581156
O5    O     O_R   0.382900 0.321920 0.499990 -0.581169
O6    O     O_R   0.617040 0.321960 0.500010 -0.580770
O7    O     O_R   0.396500 0.499960 0.386390 -0.567858
O8    O     O_R   0.630650 0.500000 0.386420 -0.584186
C25   C     C_R   0.121551 0.655873 0.601505 0.207452
C26   C     C_R   0.122941 0.616806 0.678157 -0.136253
C27   C     C_R   0.161720 0.697335 0.735328 -0.153292
C28   C     C_R   0.194741 0.818421 0.716747 -0.110129
C29   C     C_R   0.186515 0.859654 0.641294 -0.165515
C30   C     C_R   0.147772 0.779208 0.584055 -0.154043
H17   H     H_    0.094076 0.524048 0.693422 0.115362
H18   H     H_    0.165141 0.666117 0.794108 0.139029
H19   H     H_    0.224602 0.880743 0.761027 0.128234
H20   H     H_    0.209269 0.954109 0.627256 0.129752
H21   H     H_    0.139093 0.812659 0.526086 0.119538
C31   C     C_R   0.297271 0.376919 0.264993 0.127230
C32   C     C_R   0.161766 0.420162 0.259202 -0.143152
C33   C     C_R   0.050019 0.359303 0.296850 -0.158170
C34   C     C_R   0.072590 0.254613 0.340100 -0.148836
C35   C     C_R   0.206901 0.210407 0.345625 -0.116355
C36   C     C_R   0.318967 0.270972 0.308093 -0.103443
H22   H     H_    0.142948 0.501700 0.226341 0.122266
H23   H     H_    0.945955 0.393566 0.292740 0.141806
H24   H     H_    0.986022 0.207877 0.369416 0.125203
H25   H     H_    0.224198 0.129280 0.379089 0.116226
H26   H     H_    0.422554 0.235889 0.312928 0.100980

loop_
_geom_bond_atom_site_label_1
_geom_bond_atom_site_label_2
_ccdc_geom_bond_type
C24   H12   S    
C23   C24   A    
Cu1   O7    S    
C6    C7    A    
C1    C15   S    
C25   C30   A    
Cu2   O8    S    
Cu1   O3    S    
C33   H23   S    
C14   C15   D    
C12   O3    A    
Cu2   O4    S    
C10   C19   S    
C27   C28   A    
C27   H18   S    
C31   C32   A    
Cu1   N1    S    
C9    H11   S    
C33   C34   A    
C21   H1    S    
C17   N2    D    
Cu2   N2    S    
C5    C10   A    
C28   H19   S    
C31   C36   A    
C8    H15   S    
C11   H3    S    
H9    N2    S    
C11   C13   D    
C16   N1    D    
C12   C20   S    
C29   C30   A    
C22   H16   S    
C13   C18   S    
C19   O7    A    
C21   C22   A    
Cu1   Cu2   S    
C12   O4    A    
C34   H24   S    
C3    C7    A    
C26   H17   S    
Cu2   O6    S    
C2    C24   A    
C5    C6    A    
C11   C14   S    
Cu1   O5    S    
C1    O2    A    
C16   C17   S    
C17   H8    S    
Cu2   O2    S    
Cu1   O1    S    
C4    C10   A    
C32   H22   S    
H7    N1    S    
C5    H10   S    
C2    H14   S    
C13   H4    S    
C36   H26   S    
C8    C23   S    
C20   C21   A    
C18   O6    A    
C7    C9    S    
C32   C33   A    
C1    O1    A    
C30   H21   S    
C28   C29   A    
C14   H5    S    
C4    C31   S    
C26   C27   A    
C35   C36   A    
C29   H20   S    
C35   H25   S    
C25   C26   A    
C2    C20   A    
C19   O8    A    
C22   C23   A    
C6    H2    S    
C3    H13   S    
C34   C35   A    
C18   O5    A    
C8    C9    D    
C16   C25   S    
C3    C4    A    
C15   H6    S    
