data_mof_unit_37753.cif
_audit_creation_date              2012-12-11T16:26:34-0500
_audit_creation_method            fapswitch 2.2
_symmetry_space_group_name_H-M    P1
_symmetry_Int_Tables_number       1
_space_group_crystal_system       triclinic
_cell_length_a                    6.935663
_cell_length_b                    17.554051
_cell_length_c                    19.441681
_cell_angle_alpha                 108.562367
_cell_angle_beta                  89.537661
_cell_angle_gamma                 90.647461
_cell_volume                      2243.6996074

loop_
_atom_site_label
_atom_site_type_symbol
_atom_type_description
_atom_site_fract_x
_atom_site_fract_y
_atom_site_fract_z
_atom_type_partial_charge
O1    O     O_R   0.494330 0.415720 0.413720 -0.537085
O2    O     O_R   0.819330 0.430070 0.560210 -0.542162
O3    O     O_R   0.994320 0.584280 0.586280 -0.536413
C1    C     C_R   0.650119 0.415379 0.582166 0.705015
O4    O     O_R   0.823730 0.406300 0.412670 -0.537796
O5    O     O_R   0.998760 0.560340 0.437690 -0.545346
C2    C     C_R   0.654882 0.383397 0.385075 0.695299
O6    O     O_R   0.489890 0.439660 0.562310 -0.545014
O7    O     O_3   0.662340 0.550560 0.508380 -0.368308
V1    V     V_3+5 0.935370 0.490620 0.498450 1.409654
O8    O     O_R   0.328750 0.569930 0.439790 -0.540739
C3    C     C_R   0.160866 0.585117 0.418231 0.701174
O9    O     O_R   0.324340 0.593700 0.587330 -0.537353
C4    C     C_R   0.155471 0.616569 0.614951 0.696638
V2    V     V_3+5 0.435940 0.509380 0.501550 1.411025
O10   O     O_3   0.159100 0.449440 0.491620 -0.368970
H1    H     H_    0.874802 0.851722 0.569994 0.113747
C5    C     C_R   0.290226 0.601927 0.750732 -0.146044
C6    C     C_R   0.354563 0.592615 0.815260 -0.123096
C7    C     C_R   0.342097 0.655983 0.879794 -0.120093
C8    C     C_R   0.265203 0.729152 0.880303 -0.131888
C9    C     C_R   0.200279 0.740753 0.815516 0.070885
C10   C     C_R   0.213082 0.675782 0.749327 0.068534
C11   C     C_R   0.119985 0.814982 0.816179 -0.185715
C12   C     C_R   0.052535 0.824191 0.750579 0.068537
C13   C     C_R   0.065354 0.759222 0.684390 0.070719
C14   C     C_R   0.145581 0.684983 0.683734 -0.185748
C15   C     C_R   0.975429 0.898050 0.749170 -0.145874
C16   C     C_R   0.911191 0.907374 0.684632 -0.123669
C17   C     C_R   0.923695 0.844010 0.620095 -0.120240
C18   C     C_R   0.000516 0.770832 0.619594 -0.131471
H2    H     H_    0.300574 0.550339 0.702281 0.109278
H3    H     H_    0.413265 0.535697 0.815216 0.118194
H4    H     H_    0.391074 0.648281 0.929887 0.112929
H5    H     H_    0.255873 0.776047 0.932162 0.101172
H6    H     H_    0.965056 0.949634 0.797624 0.109007
H7    H     H_    0.852536 0.964297 0.684670 0.117881
H8    H     H_    0.009877 0.723937 0.567736 0.101323
C19   C     C_R   0.307496 0.634230 0.321436 -0.219217
C20   C     C_R   0.153652 0.634863 0.369274 -0.086891
C21   C     C_R   0.992000 0.682725 0.369680 -0.208587
C22   C     C_R   0.984103 0.730158 0.323617 0.053627
C23   C     C_R   0.137275 0.728242 0.274991 0.043749
C24   C     C_R   0.299232 0.679702 0.273684 0.101857
C25   C     C_R   0.826607 0.780323 0.326234 -0.259977
C26   C     C_R   0.818911 0.828724 0.281017 0.291078
C27   C     C_R   0.967689 0.824270 0.229542 0.052291
C28   C     C_R   0.128640 0.774783 0.227592 -0.015013
C29   C     C_R   0.281817 0.771937 0.178461 0.118268
C30   C     C_R   0.441091 0.722845 0.177195 -0.173025
C31   C     C_R   0.449916 0.677312 0.224473 -0.199224
C32   C     C_R   0.959381 0.867873 0.179930 -0.200844
C33   C     C_R   0.112121 0.865879 0.131409 -0.108310
C34   C     C_R   0.273773 0.818334 0.131580 -0.201419
H9    H     H_    0.432128 0.597123 0.320404 0.123692
H10   H     H_    0.873615 0.684135 0.406834 0.125165
H11   H     H_    0.710499 0.783231 0.364645 0.133710
H12   H     H_    0.835229 0.904454 0.179305 0.161171
H13   H     H_    0.392137 0.816406 0.094294 0.123166
H14   H     H_    0.559953 0.720194 0.140003 0.128421
H15   H     H_    0.575193 0.640378 0.222693 0.132974
C35   C     C_R   0.784551 0.181650 0.866093 -0.233401
C36   C     C_R   0.623103 0.133028 0.867758 -0.083848
C37   C     C_R   0.466473 0.131050 0.821503 -0.215434
C38   C     C_R   0.470145 0.176704 0.773948 0.086550
C39   C     C_R   0.630936 0.226439 0.773483 0.051259
C40   C     C_R   0.788371 0.229144 0.819919 0.092567
C41   C     C_R   0.315634 0.173594 0.726884 -0.185666
C42   C     C_R   0.318879 0.220292 0.680414 -0.188958
C43   C     C_R   0.476747 0.270900 0.680118 0.092736
C44   C     C_R   0.634191 0.273599 0.726548 0.051239
C45   C     C_R   0.794983 0.323335 0.726086 0.086219
C46   C     C_R   0.949517 0.326428 0.773134 -0.185162
C47   C     C_R   0.946264 0.279734 0.819607 -0.187905
C48   C     C_R   0.480533 0.318422 0.633968 -0.234133
C49   C     C_R   0.641967 0.367060 0.632318 -0.083931
C50   C     C_R   0.798631 0.369010 0.678550 -0.215547
H16   H     H_    0.905281 0.183778 0.901771 0.124471
H17   H     H_    0.342127 0.093185 0.821959 0.123999
H18   H     H_    0.191378 0.135421 0.726374 0.132746
H19   H     H_    0.197190 0.217150 0.644970 0.132473
H20   H     H_    0.359795 0.316302 0.598295 0.124240
H21   H     H_    0.922985 0.406872 0.678092 0.124126
H22   H     H_    0.073784 0.364592 0.773638 0.132975
H23   H     H_    0.067958 0.282871 0.855048 0.133037
H24   H     H_    0.288324 0.159464 0.423810 0.111082
C51   C     C_R   0.828082 0.393317 0.252011 -0.144864
C52   C     C_R   0.912168 0.400203 0.188945 -0.125132
C53   C     C_R   0.900080 0.336846 0.124449 -0.120888
C54   C     C_R   0.803856 0.266133 0.122546 -0.131354
C55   C     C_R   0.719545 0.256710 0.186019 0.071178
C56   C     C_R   0.731918 0.321701 0.252186 0.069655
C57   C     C_R   0.619012 0.185076 0.183838 -0.188734
C58   C     C_R   0.528048 0.179025 0.247659 0.068504
C59   C     C_R   0.542134 0.243707 0.313983 0.071341
C60   C     C_R   0.644290 0.315026 0.316304 -0.189198
C61   C     C_R   0.425508 0.108598 0.247322 -0.155652
C62   C     C_R   0.337664 0.102480 0.310053 -0.133592
C63   C     C_R   0.353872 0.165066 0.374899 -0.125711
C64   C     C_R   0.456076 0.234615 0.377310 -0.128379
H25   H     H_    0.837784 0.445280 0.300130 0.114627
H26   H     H_    0.985332 0.455388 0.190014 0.119196
H27   H     H_    0.963753 0.342798 0.075365 0.112940
H28   H     H_    0.794361 0.219715 0.070448 0.108036
H29   H     H_    0.413614 0.056871 0.199127 0.122125
H30   H     H_    0.259726 0.048170 0.308562 0.122507
H31   H     H_    0.467735 0.280589 0.429592 0.107058
O11   O     O_R   0.775200 0.060470 0.937800 -0.545039
O12   O     O_R   0.441110 0.093720 0.087350 -0.537825
O13   O     O_R   0.266330 0.939630 0.062280 -0.543611
C65   C     C_R   0.609663 0.116507 0.115141 0.695099
O14   O     O_R   0.445750 0.069950 0.939820 -0.542038
O15   O     O_R   0.271000 0.915700 0.913700 -0.536572
C66   C     C_R   0.614961 0.084703 0.917908 0.705399
O16   O     O_R   0.770530 0.084400 0.086380 -0.537591
O17   O     O_3   0.602830 0.949510 0.991680 -0.368102
V3    V     V_3+5 0.329710 0.009370 0.001550 1.411353
O18   O     O_R   0.940990 0.906170 0.912570 -0.537574
C67   C     C_R   0.109926 0.883373 0.884977 0.696304
O19   O     O_R   0.936350 0.929940 0.060100 -0.542100
C68   C     C_R   0.104370 0.914819 0.081726 0.701687
V4    V     V_3+5 0.829160 0.990450 0.998310 1.410975
O20   O     O_3   0.105910 0.050480 0.008320 -0.368997
N1    N     N_2   0.662395 0.882731 0.288775 -0.523028
H32   H     H_    0.535527 0.865171 0.307671 0.265617
C69   C     C_3   0.709028 0.967057 0.323047 -0.556674
H33   H     H_    0.626372 0.991236 0.374488 0.193111
H34   H     H_    0.669700 0.000942 0.286012 0.210495
H35   H     H_    0.865349 0.977217 0.335574 0.195063

loop_
_geom_bond_atom_site_label_1
_geom_bond_atom_site_label_2
_ccdc_geom_bond_type
C41   H18   S    
C51   C52   A    
C57   C58   A    
C21   C22   A    
C59   C60   A    
C31   H15   S    
C48   C49   A    
O14   C66   A    
C61   C62   A    
O12   V3    S    
C33   C34   A    
O19   C68   A    
C12   C15   A    
C2    C60   S    
C25   H11   S    
C13   C14   A    
C35   C36   A    
O17   V4    S    
C35   C40   A    
C8    C9    A    
C15   C16   A    
O12   C65   A    
O13   C68   A    
O5    C3    A    
C17   C18   A    
C50   H21   S    
C29   C34   A    
C62   C63   A    
C56   C60   A    
O17   V3    S    
C5    C6    A    
C46   C47   A    
O11   C66   A    
O18   C67   A    
C45   C50   A    
C51   H25   S    
C36   C66   S    
O8    V2    S    
C19   H9    S    
C63   C64   A    
C41   C42   A    
C11   C67   S    
C43   C44   A    
O1    V2    S    
C10   C14   A    
C4    C14   S    
C23   C28   A    
C46   H22   S    
C1    O6    A    
C7    H4    S    
C52   C53   A    
C39   C40   A    
C13   C18   A    
O16   V4    S    
O15   C67   A    
O9    C4    A    
C53   H27   S    
H1    C17   S    
C26   N1    S    
C42   C43   A    
O13   V3    S    
O19   V4    S    
C34   H13   S    
C5    C10   A    
C11   C12   A    
C6    H3    S    
C53   C54   A    
C19   C20   A    
O4    C2    A    
C59   C64   A    
C58   C61   A    
C12   C13   A    
C25   C26   A    
C22   C25   A    
C3    C20   S    
O2    C1    A    
C23   C24   A    
C21   H10   S    
C16   C17   A    
C55   C57   A    
C65   O16   A    
C27   C28   A    
C38   C41   A    
C30   C31   A    
C40   C47   A    
C49   C50   A    
H24   C63   S    
C54   H28   S    
C27   C32   A    
O3    C4    A    
C32   H12   S    
C39   C44   A    
C57   C65   S    
O15   V3    S    
C24   C31   A    
C28   C29   A    
C38   C39   A    
O6    V2    S    
O9    V2    S    
C37   H17   S    
C9    C11   A    
C5    H2    S    
C22   C23   A    
O2    V1    S    
C55   C56   A    
C32   C33   A    
N1    C69   S    
O7    V1    S    
C26   C27   A    
C20   C21   A    
C64   H31   S    
C69   H34   S    
O1    C2    A    
C35   H16   S    
O11   V4    S    
C45   C46   A    
C62   H30   S    
O5    V1    S    
C52   H26   S    
O8    C3    A    
C48   H20   S    
C19   C24   A    
C8    H5    S    
C69   H35   S    
C18   H8    S    
C30   H14   S    
C37   C38   A    
C6    C7    A    
V3    O20   S    
C61   H29   S    
O4    V1    S    
O3    V1    S    
C33   C68   S    
C54   C55   A    
O14   V3    S    
C69   H33   S    
O18   V4    S    
C47   H23   S    
O7    V2    S    
C58   C59   A    
C1    C49   S    
C42   H19   S    
C36   C37   A    
C44   C45   A    
C7    C8    A    
C15   H6    S    
C29   C30   A    
C16   H7    S    
C43   C48   A    
C9    C10   A    
V1    O10   S    
V4    O20   S    
C51   C56   A    
V2    O10   S    
N1    H32   S    
