data_mof_unit_20754.cif
_audit_creation_date              2012-12-11T14:36:24-0500
_audit_creation_method            fapswitch 2.2
_symmetry_space_group_name_H-M    P1
_symmetry_Int_Tables_number       1
_space_group_crystal_system       triclinic
_cell_length_a                    13.507277
_cell_length_b                    13.518119
_cell_length_c                    27.47563
_cell_angle_alpha                 90.374494
_cell_angle_beta                  89.889908
_cell_angle_gamma                 60.043246
_cell_volume                      4346.44709065

loop_
_atom_site_label
_atom_site_type_symbol
_atom_type_description
_atom_site_fract_x
_atom_site_fract_y
_atom_site_fract_z
_atom_type_partial_charge
C1    C     C_R   0.619712 0.100513 0.570469 0.545309
C2    C     C_1   0.647035 0.708061 0.659261 -0.035144
C3    C     C_3   0.068287 0.241946 0.736308 -0.082758
C4    C     C_R   0.599426 0.779689 0.568877 0.547708
C5    C     C_3   0.073518 0.146623 0.769178 -0.081654
C6    C     C_1   0.094650 0.203230 0.901298 0.014986
C7    C     C_1   0.230370 0.137013 0.617404 -0.007094
C8    C     C_3   0.138288 0.266254 0.774243 -0.081276
C9    C     C_3   0.144038 0.170783 0.806344 0.063262
C10   C     C_3   0.250478 0.177447 0.748914 -0.089927
C11   C     C_3   0.179935 0.153421 0.711805 0.035996
C12   C     C_1   0.629847 0.733504 0.616910 -0.002416
C13   C     C_3   0.255709 0.082285 0.781691 -0.096552
C14   C     C_3   0.185809 0.057814 0.743719 -0.117475
C15   C     C_1   0.121345 0.184552 0.858902 -0.015988
C16   C     C_R   0.277775 0.121658 0.569562 0.545930
C17   C     C_1   0.202928 0.145405 0.659542 -0.053437
C18   C     C_3   0.706923 0.219753 0.737603 -0.085213
C19   C     C_3   0.604553 0.282184 0.773282 -0.088364
C20   C     C_1   0.692284 0.208070 0.903074 0.026605
C21   C     C_1   0.633109 0.129600 0.619290 -0.003732
C22   C     C_3   0.766870 0.119854 0.773856 -0.109176
C23   C     C_3   0.722204 0.568459 0.771454 0.119390
C24   C     C_3   0.664468 0.182193 0.808761 0.068391
C25   C     C_3   0.707612 0.059061 0.750025 -0.095837
C26   C     C_3   0.647735 0.159515 0.714506 0.022008
C27   C     C_3   0.605655 0.121973 0.785642 0.105071
C28   C     C_R   0.621317 0.099378 0.430682 0.567372
C29   C     C_3   0.544939 0.221652 0.749420 -0.093674
C30   C     C_1   0.676332 0.195673 0.860955 0.007538
C31   C     C_1   0.640424 0.145904 0.661946 -0.047145
C32   C     C_R   0.746942 0.688941 0.362227 0.038825
C33   C     C_R   0.755160 0.674235 0.311348 0.017348
C34   C     C_3   0.671526 0.669194 0.808081 0.066019
C35   C     C_R   0.765009 0.656986 0.209000 0.021975
C36   C     C_R   0.854834 0.655051 0.234730 -0.136795
C37   C     C_R   0.849511 0.664919 0.285202 -0.109546
C38   C     C_R   0.773596 0.638735 0.158595 -0.130442
C39   C     C_R   0.685437 0.634623 0.133501 -0.002469
C40   C     C_R   0.604561 0.772093 0.431395 0.582532
C41   C     C_R   0.575105 0.672740 0.362166 0.084168
C42   C     C_R   0.572976 0.671718 0.310801 0.022972
C43   C     C_R   0.664489 0.673496 0.285591 0.002410
C44   C     C_R   0.482755 0.673000 0.283252 0.086759
C45   C     C_3   0.611053 0.629071 0.742241 0.169039
C46   C     C_R   0.484244 0.679069 0.232781 -0.101684
C47   C     C_R   0.577033 0.673549 0.208316 -0.010488
C48   C     C_R   0.668316 0.669265 0.234358 0.060988
C49   C     C_R   0.583475 0.662551 0.157955 -0.122884
C50   C     C_R   0.648047 0.703048 0.386200 0.045969
C51   C     C_R   0.202954 0.064139 0.359702 -0.127924
C52   C     C_R   0.277580 0.121283 0.431167 0.545582
C53   C     C_R   0.175697 0.077934 0.310166 -0.011314
C54   C     C_R   0.137937 0.098788 0.209064 0.021312
C55   C     C_R   0.144437 0.004810 0.234129 0.094563
C56   C     C_3   0.659281 0.690125 0.711983 0.025278
C57   C     C_R   0.163194 0.995342 0.284340 -0.089216
C58   C     C_R   0.114667 0.114339 0.159155 -0.113735
C59   C     C_R   0.103685 0.211301 0.135804 -0.011576
C60   C     C_R   0.195272 0.247670 0.360962 -0.115958
C61   C     C_R   0.174192 0.259631 0.311456 0.017541
C62   C     C_R   0.166103 0.173585 0.285612 0.055106
C63   C     C_R   0.167038 0.353632 0.287124 -0.123261
C64   C     C_3   0.772190 0.630157 0.740998 -0.123451
C65   C     C_R   0.153429 0.361775 0.236986 -0.117189
C66   C     C_R   0.144599 0.277154 0.210937 0.015803
C67   C     C_3   0.561357 0.727358 0.778700 0.117428
C68   C     C_R   0.149873 0.182830 0.235155 0.041849
C69   C     C_R   0.125076 0.288662 0.161300 -0.123060
C70   C     C_R   0.217877 0.146669 0.384565 -0.001425
C71   C     C_R   0.553255 0.234594 0.359813 0.084365
C72   C     C_R   0.553486 0.247396 0.308773 -0.003128
C73   C     C_R   0.563165 0.273539 0.207284 0.048917
C74   C     C_R   0.471741 0.358502 0.234748 0.105971
C75   C     C_R   0.468016 0.345073 0.285229 -0.107272
C76   C     C_3   0.720922 0.731303 0.778310 -0.137772
C77   C     C_R   0.580523 0.290817 0.158365 -0.117472
C78   C     C_3   0.607592 0.791676 0.748614 -0.123817
C79   C     C_R   0.674794 0.206001 0.132716 -0.017564
C80   C     C_R   0.723167 0.045950 0.352519 -0.152343
C81   C     C_R   0.723847 0.057410 0.302519 0.005296
C82   C     C_R   0.639536 0.158406 0.280423 0.033730
C83   C     C_R   0.806120 0.967159 0.274179 -0.104863
C84   C     C_R   0.807984 0.978332 0.224082 -0.106107
C85   C     C_R   0.729568 0.080932 0.202083 0.013948
C86   C     C_R   0.643156 0.170686 0.229887 0.036962
C87   C     C_R   0.741795 0.097879 0.153315 -0.120026
C88   C     C_1   0.692853 0.617327 0.902131 0.025851
C89   C     C_1   0.680967 0.648312 0.860529 0.011684
C90   C     C_R   0.636636 0.131330 0.381328 0.036242
C91   C     C_R   0.048548 0.236813 0.949568 0.554254
C92   C     C_R   0.710693 0.565007 0.948826 0.553971
C93   C     C_R   0.722421 0.225690 0.950941 0.551794
C94   C     C_R   0.047819 0.245279 0.088499 0.547852
C95   C     C_R   0.707746 0.574782 0.086577 0.544643
C96   C     C_R   0.717491 0.232680 0.088596 0.547010
Cr1   Cr    Cr6+3 0.417550 0.169090 0.500530 1.057908
Cr2   Cr    Cr6+3 0.669180 0.913420 0.499920 1.069729
Cr3   Cr    Cr6+3 0.413260 0.917540 0.499520 1.044180
Cr4   Cr    Cr6+3 0.909170 0.177380 0.020380 1.045242
Cr5   Cr    Cr6+3 0.912710 0.429210 0.018220 1.039698
Cr6   Cr    Cr6+3 0.657170 0.432570 0.019030 1.044344
H1    H     H_    0.766021 0.773941 0.793766 0.142170
H2    H     H_    0.852110 0.618889 0.139776 0.126141
H3    H     H_    0.859484 0.589136 0.725032 0.124666
H4    H     H_    0.929645 0.645553 0.215818 0.114477
H5    H     H_    0.920505 0.665108 0.303041 0.152680
H6    H     H_    0.513743 0.662043 0.138644 0.142781
H7    H     H_    0.413838 0.683642 0.212157 0.158717
H8    H     H_    0.098343 0.055387 0.138757 0.169606
H9    H     H_    0.219013 0.986688 0.377976 0.140995
H10   H     H_    0.559125 0.883271 0.738652 0.140789
H11   H     H_    0.167696 0.923399 0.303285 0.177347
H12   H     H_    0.331617 0.017672 0.801261 0.142765
H13   H     H_    0.117473 0.363414 0.143402 0.138896
H14   H     H_    0.148393 0.434905 0.218657 0.122677
H15   H     H_    0.174024 0.419710 0.306738 0.121511
H16   H     H_    0.203965 0.313354 0.380074 0.143251
H17   H     H_    0.526752 0.372533 0.141366 0.153298
H18   H     H_    0.397923 0.411930 0.305742 0.138256
H19   H     H_    0.811728 0.029865 0.132875 0.149321
H20   H     H_    0.873304 0.908327 0.202767 0.143903
H21   H     H_    0.869535 0.888279 0.290803 0.136698
H22   H     H_    0.786847 0.966310 0.368578 0.162349
H23   H     H_    0.323769 0.189453 0.739790 0.126276
H24   H     H_    0.000986 0.133353 0.778172 0.130094
H25   H     H_    0.992491 0.306994 0.716342 0.142440
H26   H     H_    0.205138 0.972262 0.730412 0.109306
H27   H     H_    0.518906 0.561918 0.378426 0.254170
H28   H     H_    0.424146 0.704071 0.392664 0.283239
H29   H     H_    0.387821 0.339452 0.379905 0.233177
H30   H     H_    0.473379 0.398466 0.384646 0.237340
H31   H     H_    0.413835 0.511598 0.203259 0.241933
H32   H     H_    0.312341 0.501517 0.234657 0.258958
H33   H     H_    0.389069 0.822427 0.772674 0.219029
H34   H     H_    0.118646 0.352081 0.787325 0.127302
H35   H     H_    0.440550 0.832686 0.827229 0.247918
H36   H     H_    0.515865 0.552796 0.751443 0.244685
H37   H     H_    0.481938 0.635457 0.702201 0.230467
H38   H     H_    0.562089 0.373472 0.784124 0.140492
H39   H     H_    0.748427 0.259440 0.716804 0.156681
H40   H     H_    0.453806 0.264002 0.738670 0.113644
H41   H     H_    0.749329 0.967213 0.739887 0.119898
H42   H     H_    0.857912 0.077440 0.784736 0.115382
I1    I     I_    0.531145 0.045276 0.828707 -0.510269
I2    I     I_    0.887323 0.679207 0.403140 -0.383558
I3    I     I_    0.334031 0.671831 0.309072 -0.524103
I4    I     I_    0.128190 0.872741 0.199293 -0.465949
I5    I     I_    0.803206 0.396510 0.796012 -0.506567
N1    N     N_3   0.509336 0.638982 0.391526 -0.593027
N2    N     N_3   0.468754 0.324391 0.389999 -0.594908
N3    N     N_3   0.382149 0.457142 0.211178 -0.628310
N4    N     N_3   0.447569 0.775616 0.799825 -0.627130
N5    N     N_3   0.550819 0.574066 0.722165 -0.604104
O1    O     O_R   0.301710 0.195650 0.554160 -0.502368
O2    O     O_R   0.635520 0.542770 0.964420 -0.498328
O3    O     O_R   0.665950 0.325030 0.970100 -0.490710
O4    O     O_R   0.522390 0.158990 0.550460 -0.493528
O5    O     O_R   0.816620 0.158530 0.074540 -0.513655
O6    O     O_R   0.004460 0.188870 0.069750 -0.498057
O7    O     O_R   0.025800 0.341780 0.072300 -0.519439
O8    O     O_R   0.807650 0.528950 0.067500 -0.502775
O9    O     O_R   0.633420 0.550490 0.071810 -0.518998
O10   O     O_R   0.664000 0.332180 0.069640 -0.501514
O11   O     O_3   0.826350 0.346390 0.019210 -0.252346
O12   O     O_R   0.658900 0.818120 0.449760 -0.473975
O13   O     O_R   0.694390 0.003530 0.554040 -0.502413
O14   O     O_R   0.657700 0.819660 0.549320 -0.489652
O15   O     O_R   0.501930 0.803280 0.552920 -0.502990
O16   O     O_R   0.318170 0.023580 0.549580 -0.496640
O17   O     O_R   0.303010 0.193990 0.446760 -0.513258
O18   O     O_R   0.523600 0.157450 0.450900 -0.459384
O19   O     O_R   0.695690 0.001860 0.446640 -0.510828
O20   O     O_R   0.503220 0.801620 0.445520 -0.493032
O21   O     O_R   0.319370 0.022040 0.450020 -0.501659
O22   O     O_3   0.499990 0.000010 0.499990 -0.267697
O23   O     O_R   0.818720 0.150820 0.967160 -0.505663
O24   O     O_R   0.006410 0.181720 0.970200 -0.494082
O25   O     O_R   0.027890 0.334070 0.964920 -0.499167
O26   O     O_R   0.809600 0.521790 0.967960 -0.492626

loop_
_geom_bond_atom_site_label_1
_geom_bond_atom_site_label_2
_ccdc_geom_bond_type
C1    O4    A    
C66   C68   A    
C20   C93   S    
C63   C65   A    
C1    C21   S    
C23   C45   S    
C27   C29   S    
C41   C42   A    
H29   N2    S    
C35   C36   A    
C18   C26   S    
C24   C27   S    
C2    C12   T    
C79   C87   A    
C81   C82   A    
C14   H26   S    
C64   H3    S    
C47   C49   A    
Cr3   O16   S    
C20   C30   T    
C85   C86   A    
C8    H34   S    
C67   C78   S    
Cr1   O18   S    
C83   C84   A    
C36   C37   A    
C76   C78   S    
C37   H5    S    
C80   H22   S    
C38   C39   A    
C63   H15   S    
C11   C14   S    
C3    H25   S    
C28   O19   A    
C66   C69   A    
C54   C68   A    
C1    O13   A    
C84   H20   S    
C6    C91   S    
C91   O24   A    
C44   I3    S    
C56   C78   S    
C52   O17   A    
C18   C19   S    
C73   C74   A    
C61   C63   A    
C9    C13   S    
C38   H2    S    
C92   O26   A    
C6    C15   T    
C54   C55   A    
C28   O18   A    
C71   N2    S    
Cr3   O22   S    
C88   C92   S    
C45   C56   S    
C4    O14   A    
C8    C9    S    
C7    C17   T    
C22   C25   S    
C91   O25   A    
C5    H24   S    
C45   C67   S    
C51   H9    S    
C56   C64   S    
C60   H16   S    
C59   C94   S    
C4    C12   S    
C10   H23   S    
C43   C48   A    
C40   O12   A    
C13   H12   S    
C3    C5    S    
H36   N5    S    
C76   H1    S    
C85   C87   A    
C23   I5    S    
Cr4   O24   S    
C26   C31   S    
Cr1   O22   S    
C18   C22   S    
C13   C14   S    
C74   N3    S    
C25   H41   S    
H31   N3    S    
C42   C44   A    
C72   C75   A    
C35   C48   A    
Cr6   O3    S    
C81   C83   A    
C44   C46   A    
C49   H6    S    
C24   C30   S    
C77   C79   A    
C74   C75   A    
C36   H4    S    
C33   C43   A    
C35   C38   A    
C3    C11   S    
C84   C85   A    
C3    C8    S    
C4    O15   A    
C95   O8    A    
C87   H19   S    
Cr2   O19   S    
C53   C57   A    
Cr6   O9    S    
C57   H11   S    
C41   N1    S    
H37   N5    S    
C69   H13   S    
C25   C26   S    
C82   C86   A    
C33   C37   A    
C96   O10   A    
Cr4   O11   S    
C51   C53   A    
Cr5   O11   S    
C5    C9    S    
Cr5   O25   S    
Cr2   O14   S    
C95   O9    A    
H28   N1    S    
Cr2   O22   S    
C53   C62   A    
Cr4   O6    S    
C47   C48   A    
C52   O21   A    
C60   C70   A    
C27   I1    S    
C23   C34   S    
H32   N3    S    
C21   C31   T    
C16   O1    A    
C64   C76   S    
H35   N4    S    
C92   O2    A    
C93   O3    A    
C94   O7    A    
C39   C95   S    
C5    C14   S    
Cr2   O12   S    
C59   C69   A    
C8    C10   S    
C23   C64   S    
C51   C70   A    
Cr6   O11   S    
C55   C57   A    
C65   H14   S    
C22   C24   S    
C42   C43   A    
C19   C29   S    
Cr6   O2    S    
C41   C50   A    
C54   C58   A    
C46   C47   A    
C11   C17   S    
C94   O6    A    
C39   C49   A    
C58   H8    S    
C18   H39   S    
C7    C16   S    
C75   H18   S    
Cr2   O13   S    
C80   C81   A    
C77   H17   S    
C10   C13   S    
H33   N4    S    
C34   C67   S    
C28   C90   S    
Cr3   O15   S    
C79   C96   S    
C25   C27   S    
Cr1   O17   S    
C62   C68   A    
C67   N4    S    
C83   H21   S    
Cr1   O4    S    
Cr5   O7    S    
C19   C24   S    
C58   C59   A    
C34   C89   S    
H27   N1    S    
Cr5   O26   S    
C2    C56   S    
C32   C33   A    
C40   O20   A    
Cr4   O5    S    
C19   H38   S    
C55   I4    S    
Cr3   O20   S    
C40   C50   S    
C29   H40   S    
C71   C90   A    
C32   C50   A    
Cr1   O1    S    
C80   C90   A    
C61   C62   A    
Cr4   O23   S    
C73   C86   A    
Cr3   O21   S    
C52   C70   S    
C10   C11   S    
C16   O16   A    
C71   C72   A    
C96   O5    A    
C32   I2    S    
C88   C89   T    
Cr5   O8    S    
C26   C29   S    
Cr6   O10   S    
C65   C66   A    
C46   H7    S    
C22   H42   S    
H30   N2    S    
C73   C77   A    
C60   C61   A    
C78   H10   S    
C45   N5    S    
C93   O23   A    
C72   C82   A    
C9    C15   S    
C34   C76   S    
