data_mof_unit_17816.cif
_audit_creation_date              2012-12-11T15:28:42-0500
_audit_creation_method            fapswitch 2.2
_symmetry_space_group_name_H-M    P1
_symmetry_Int_Tables_number       1
_space_group_crystal_system       triclinic
_cell_length_a                    6.955065
_cell_length_b                    19.603074
_cell_length_c                    23.409784
_cell_angle_alpha                 96.197996
_cell_angle_beta                  91.076242
_cell_angle_gamma                 88.757524
_cell_volume                      3171.86879609

loop_
_atom_site_label
_atom_site_type_symbol
_atom_type_description
_atom_site_fract_x
_atom_site_fract_y
_atom_site_fract_z
_atom_type_partial_charge
O1    O     O_R   0.617180 0.809390 0.808140 -0.517754
O2    O     O_R   0.382820 0.190610 0.191860 -0.517765
O3    O     O_R   0.293300 0.672410 0.795490 -0.531897
O4    O     O_R   0.706700 0.327590 0.204510 -0.531898
O5    O     O_R   0.117220 0.690610 0.691850 -0.521993
O6    O     O_R   0.882780 0.309390 0.308150 -0.521990
C1    C     C_R   0.464516 0.648137 0.805563 0.794801
C2    C     C_R   0.535484 0.351862 0.194436 0.794802
O7    O     O_R   0.287840 0.807750 0.814460 -0.525234
O8    O     O_R   0.712160 0.192250 0.185540 -0.525232
O9    O     O_R   0.111720 0.826910 0.710960 -0.531443
O10   O     O_R   0.888280 0.173090 0.289040 -0.531432
C3    C     C_R   0.456460 0.830869 0.833105 0.746065
C4    C     C_R   0.543540 0.169131 0.166895 0.746046
O11   O     O_R   0.622680 0.673080 0.789040 -0.527665
O12   O     O_R   0.377320 0.326920 0.210960 -0.527665
O13   O     O_3   0.448820 0.756130 0.716020 -0.360177
O14   O     O_3   0.551180 0.243870 0.283980 -0.360172
V1    V     V_3+5 0.176220 0.748860 0.756300 1.528155
V2    V     V_3+5 0.823780 0.251140 0.243700 1.528162
O15   O     O_R   0.781670 0.827580 0.704500 -0.528069
O16   O     O_R   0.218330 0.172420 0.295500 -0.528071
C5    C     C_R   0.948084 0.851803 0.694280 0.779491
C6    C     C_R   0.051915 0.148199 0.305723 0.779489
O17   O     O_R   0.787130 0.692240 0.685530 -0.521265
O18   O     O_R   0.212870 0.307760 0.314470 -0.521260
C7    C     C_R   0.956112 0.669090 0.666892 0.744364
C8    C     C_R   0.043888 0.330911 0.333108 0.744387
V3    V     V_3+5 0.675510 0.751130 0.743690 1.539177
V4    V     V_3+5 0.324490 0.248870 0.256310 1.539178
O19   O     O_3   0.952780 0.743870 0.783980 -0.359310
O20   O     O_3   0.047220 0.256130 0.216020 -0.359315
C9    C     C_1   0.966680 0.617023 0.614852 -0.130337
C10   C     C_1   0.033320 0.382978 0.385147 -0.130313
C11   C     C_1   0.978240 0.573547 0.572005 0.068776
C12   C     C_1   0.021760 0.426454 0.427994 0.068788
C13   C     C_1   0.993437 0.521826 0.521346 0.058579
C14   C     C_1   0.006563 0.478175 0.478653 0.058582
C15   C     C_R   0.947860 0.913175 0.662749 -0.128633
C16   C     C_R   0.052139 0.086843 0.337277 -0.128627
C17   C     C_R   0.858302 0.033022 0.662234 -0.114682
C18   C     C_R   0.141795 0.967010 0.337833 -0.114623
C19   C     C_R   0.897326 0.976837 0.692391 0.102190
C20   C     C_R   0.102643 0.023168 0.307653 0.102205
C21   C     C_R   0.974449 0.907709 0.602495 0.053320
C22   C     C_R   0.025612 0.092340 0.397537 0.053307
C23   C     C_R   0.965546 0.968343 0.573033 0.041876
C24   C     C_R   0.034599 0.031725 0.427024 0.041903
C25   C     C_R   0.883422 0.028859 0.602616 0.009371
C26   C     C_R   0.116812 0.971214 0.397459 0.009409
C27   C     C_R   0.026263 0.971240 0.515028 0.036565
C28   C     C_R   0.973933 0.028841 0.485037 0.036546
C29   C     C_R   0.852382 0.079419 0.512777 -0.145177
C30   C     C_R   0.147949 0.920688 0.487310 -0.145132
C31   C     C_R   0.819317 0.082742 0.571422 0.171692
C32   C     C_R   0.181156 0.917382 0.428674 0.171718
C33   C     C_R   0.481755 0.586182 0.836223 -0.163393
C34   C     C_R   0.518245 0.413818 0.163777 -0.163390
C35   C     C_R   0.558194 0.463962 0.832170 0.165665
C36   C     C_R   0.441809 0.536037 0.167829 0.165663
C37   C     C_R   0.508699 0.521984 0.804038 0.080822
C38   C     C_R   0.491303 0.478016 0.195961 0.080822
C39   C     C_R   0.486918 0.591650 0.896952 0.044308
C40   C     C_R   0.513083 0.408349 0.103048 0.044307
C41   C     C_R   0.502467 0.530964 0.925743 0.027033
C42   C     C_R   0.497534 0.469035 0.074256 0.027032
C43   C     C_R   0.562899 0.469224 0.892970 0.004916
C44   C     C_R   0.437103 0.530775 0.107030 0.004920
C45   C     C_R   0.469746 0.529161 0.986021 0.085520
C46   C     C_R   0.530255 0.470838 0.013978 0.085520
C47   C     C_R   0.632566 0.418370 0.981477 -0.138609
C48   C     C_R   0.367435 0.581629 0.018523 -0.138609
C49   C     C_R   0.636655 0.415084 0.921983 -0.115208
C50   C     C_R   0.363347 0.584916 0.078016 -0.115205
C51   C     C_1   0.467165 0.882928 0.885155 -0.133458
C52   C     C_1   0.532835 0.117072 0.114845 -0.133480
C53   C     C_1   0.478633 0.926415 0.928002 0.060540
C54   C     C_1   0.521368 0.073585 0.071998 0.060525
C55   C     C_1   0.493568 0.978163 0.978656 0.047380
C56   C     C_1   0.506433 0.021838 0.021344 0.047377
I1    I     I_    0.654441 0.168874 0.607803 -0.242172
I2    I     I_    0.346843 0.831420 0.392352 -0.242346
H1    H     H_    0.711732 0.379286 0.001625 0.170163
H2    H     H_    0.288269 0.620713 0.998374 0.170163
I3    I     I_    0.045325 0.194078 0.442070 -0.369141
I4    I     I_    0.954719 0.806000 0.557915 -0.369039
I5    I     I_    0.143804 0.010304 0.217319 -0.360268
I6    I     I_    0.855977 0.989647 0.782716 -0.360345
H3    H     H_    0.807211 0.079894 0.686191 0.187600
H4    H     H_    0.192866 0.920125 0.313889 0.187602
H5    H     H_    0.779753 0.116835 0.489115 0.178774
H6    H     H_    0.220615 0.883293 0.510989 0.178738
H7    H     H_    0.706510 0.370635 0.899433 0.173929
H8    H     H_    0.293492 0.629364 0.100567 0.173931
I7    I     I_    0.459021 0.307711 0.059789 -0.409160
I8    I     I_    0.540981 0.692289 0.940210 -0.409155
I9    I     I_    0.511577 0.484626 0.287986 -0.305474
I10   I     I_    0.488426 0.515374 0.712014 -0.305446
I11   I     I_    0.618967 0.367826 0.782131 -0.220567
I12   I     I_    0.381042 0.632174 0.217867 -0.220601

loop_
_geom_bond_atom_site_label_1
_geom_bond_atom_site_label_2
_ccdc_geom_bond_type
C34   C38   A    
C17   H3    S    
C39   C41   A    
O13   V3    S    
C50   H8    S    
C42   C44   A    
C37   I10   S    
C49   H7    S    
O4    C2    A    
V1    O19   S    
C23   C25   A    
C7    C9    S    
C16   C22   A    
O9    V1    S    
C19   I6    S    
C11   C13   S    
C52   C54   T    
O3    C1    A    
C9    C11   T    
C54   C56   S    
O12   V4    S    
C35   I11   S    
C36   C38   A    
C21   C23   A    
O7    C3    A    
C35   C43   A    
O5    C7    A    
O7    V1    S    
O6    C8    A    
C3    C51   S    
O8    V2    S    
C41   C43   A    
C29   H5    S    
O3    V1    S    
C46   C47   A    
O14   V4    S    
C31   I1    S    
C20   I5    S    
C10   C12   T    
C15   C21   A    
C22   I3    S    
C2    C34   S    
C24   C26   A    
C8    C10   S    
C2    O12   A    
C34   C40   A    
C17   C19   A    
C18   C20   A    
C17   C25   A    
O11   V3    S    
C47   H1    S    
C29   C31   A    
O17   V3    S    
C22   C24   A    
C35   C37   A    
C27   C28   A    
C40   I7    S    
C48   C50   A    
O8    C4    A    
C47   C49   A    
C15   C19   A    
C1    O11   A    
C25   C31   A    
O15   V3    S    
C39   I8    S    
C26   C32   A    
C18   H4    S    
C40   C42   A    
C45   C48   A    
C30   H6    S    
C13   C14   T    
C38   I9    S    
C16   C20   A    
O10   V2    S    
O1    V3    S    
C53   C55   S    
C33   C37   A    
C51   C53   T    
C48   H2    S    
C18   C26   A    
C43   C49   A    
O18   V4    S    
O15   C5    A    
O16   C6    A    
O1    C3    A    
C28   C29   A    
V2    O20   S    
C6    C16   S    
O16   V4    S    
C33   C39   A    
C36   I12   S    
C23   C27   A    
C30   C32   A    
C32   I2    S    
O5    V1    S    
O17   C7    A    
O6    V2    S    
O10   C6    A    
O18   C8    A    
O2    V4    S    
C27   C30   A    
C12   C14   S    
C21   I4    S    
V3    O19   S    
V4    O20   S    
C42   C46   A    
C41   C45   A    
O9    C5    A    
O13   V1    S    
C1    C33   S    
O14   V2    S    
C45   C46   A    
O2    C4    A    
C55   C56   T    
O4    V2    S    
C24   C28   A    
C36   C44   A    
C44   C50   A    
C5    C15   S    
C4    C52   S    
