data_mof_unit_9843.cif
_audit_creation_date              2012-12-10T17:50:13-0500
_audit_creation_method            fapswitch 2.2
_symmetry_space_group_name_H-M    P1
_symmetry_Int_Tables_number       1
_space_group_crystal_system       triclinic
_cell_length_a                    10.703008
_cell_length_b                    14.857581
_cell_length_c                    14.66608
_cell_angle_alpha                 64.755709
_cell_angle_beta                  105.129984
_cell_angle_gamma                 99.824042
_cell_volume                      2031.65446497

loop_
_atom_site_label
_atom_site_type_symbol
_atom_type_description
_atom_site_fract_x
_atom_site_fract_y
_atom_site_fract_z
_atom_type_partial_charge
C1    C     C_R   0.477581 0.119094 0.311128 0.834313
C2    C     C_R   0.522745 0.880884 0.688895 0.871405
C3    C     C_R   0.504147 0.286814 0.175629 -0.138687
C4    C     C_R   0.503628 0.712330 0.824897 -0.147199
C5    C     C_R   0.484013 0.359999 0.074351 0.062665
C6    C     C_R   0.529765 0.639057 0.925943 0.067585
C7    C     C_R   0.427647 0.328499 0.992866 0.098855
C8    C     C_R   0.586723 0.670847 0.007112 0.090590
C9    C     C_R   0.519011 0.463767 0.052234 0.075655
C10   C     C_R   0.498434 0.534997 0.948139 0.088894
C11   C     C_R   0.449606 0.499533 0.869422 -0.175247
C12   C     C_R   0.571770 0.499055 0.130798 -0.145303
C13   C     C_R   0.416288 0.399547 0.891184 -0.125895
C14   C     C_R   0.603711 0.599267 0.108832 -0.123403
C15   C     C_R   0.741807 0.285151 0.656109 0.310167
C16   C     C_R   0.259647 0.716249 0.341332 0.309060
C17   C     C_R   0.692240 0.200786 0.636036 0.028612
C18   C     C_R   0.309444 0.800332 0.362162 0.006927
C19   C     C_R   0.516820 0.288272 0.507176 0.125784
C20   C     C_R   0.481704 0.710709 0.493275 0.152163
C21   C     C_R   0.550748 0.371289 0.535073 -0.051067
C22   C     C_R   0.448317 0.628877 0.464002 -0.128113
C23   C     C_R   0.260499 0.003919 0.497283 0.943596
C24   C     C_R   0.739498 0.996290 0.502179 0.981721
C25   C     C_R   0.673194 0.372819 0.601708 -0.026097
C26   C     C_R   0.326767 0.627951 0.396592 -0.011094
C27   C     C_R   0.472196 0.455100 0.494892 0.118148
C28   C     C_R   0.526462 0.544822 0.505060 0.059277
C29   C     C_R   0.658332 0.548790 0.552525 -0.203861
C30   C     C_R   0.339851 0.451220 0.448635 -0.133545
C31   C     C_R   0.727033 0.463735 0.606491 -0.089252
C32   C     C_R   0.271996 0.536754 0.392966 -0.070843
C33   C     C_3   0.011424 0.997626 0.411828 -0.305931
C34   C     C_3   0.988763 0.002608 0.586947 -0.283727
C35   C     C_3   0.940363 0.075171 0.419491 0.317053
C36   C     C_3   0.059695 0.924751 0.579351 0.275612
C37   C     C_3   0.874794 0.991417 0.501966 -0.315943
C38   C     C_3   0.125101 0.008558 0.496833 -0.307900
C39   C     C_3   0.946121 0.913357 0.494322 0.366432
C40   C     C_3   0.054017 0.086457 0.504303 0.371059
C41   C     C_R   0.463197 0.186338 0.199454 -0.066034
C42   C     C_R   0.540370 0.813449 0.800687 -0.068574
C43   C     C_R   0.388412 0.226205 0.014438 -0.039753
C44   C     C_R   0.620798 0.773813 0.985273 -0.039928
C45   C     C_R   0.406871 0.154901 0.117954 -0.060665
C46   C     C_R   0.597097 0.845298 0.881853 -0.063822
Cu1   Cu    Cu3+1 0.465750 0.918270 0.475680 1.065816
Cu2   Cu    Cu3+1 0.534250 0.081730 0.524320 1.031245
H1    H     H_    0.260337 0.868714 0.321212 0.222812
H2    H     H_    0.742449 0.132907 0.676285 0.225539
H3    H     H_    0.710335 0.617892 0.548403 0.238883
H4    H     H_    0.287235 0.382014 0.454547 0.214708
H5    H     H_    0.382833 0.379284 0.825874 0.192228
H6    H     H_    0.639976 0.619258 0.174155 0.203700
H7    H     H_    0.451688 0.692682 0.762177 0.166909
H8    H     H_    0.553755 0.305962 0.239043 0.197661
H9    H     H_    0.436551 0.546460 0.788731 0.134859
H10   H     H_    0.589989 0.451913 0.211603 0.193555
H11   H     H_    0.825243 0.471812 0.647293 0.231139
H12   H     H_    0.173718 0.528889 0.352177 0.222689
N1    N     N_R   0.585750 0.204560 0.560800 -0.262959
N2    N     N_R   0.414250 0.795440 0.439200 -0.236963
O1    O     O_R   0.454850 0.022100 0.338110 -0.601297
O2    O     O_R   0.545150 0.977900 0.661890 -0.602542
O3    O     O_R   0.512700 0.160150 0.379180 -0.602802
O4    O     O_R   0.487300 0.839850 0.620820 -0.564788
O5    O     O_R   0.287930 0.931000 0.479440 -0.535005
O6    O     O_R   0.712070 0.069000 0.520560 -0.536788
O7    O     O_R   0.345780 0.069050 0.520520 -0.592803
O8    O     O_R   0.654220 0.930950 0.479480 -0.515525
S1    S     S_3+6 0.858164 0.172676 0.308365 0.036472
O9    O     O_2   0.747658 0.126946 0.251250 -0.364337
O10   O     O_2   0.807070 0.239803 0.341166 -0.249998
O11   O     O_3   0.961626 0.239018 0.230637 -0.455054
H13   H     H_    0.909810 0.291122 0.171556 0.388306
S2    S     S_3+6 0.142199 0.827030 0.690265 0.056624
O12   O     O_2   0.196785 0.762118 0.656841 -0.225506
O13   O     O_2   0.251074 0.871977 0.749439 -0.365051
O14   O     O_3   0.038577 0.756966 0.766658 -0.423618
H14   H     H_    0.031344 0.795273 0.805960 0.363326
C47   C     C_2   0.566396 0.693463 0.595812 0.454321
H15   H     H_    0.550941 0.624868 0.660863 0.008248
O15   O     O_2   0.659911 0.749664 0.607925 -0.459264
C48   C     C_2   0.423170 0.297319 0.410222 0.449351
H16   H     H_    0.351310 0.237951 0.406815 0.160416
O16   O     O_2   0.426550 0.372310 0.331324 -0.575309
S3    S     S_3+6 0.887352 0.277155 0.750050 0.050817
O17   O     O_2   0.993528 0.343286 0.698716 -0.241322
O18   O     O_2   0.866185 0.311287 0.827441 -0.275098
O19   O     O_3   0.932024 0.159044 0.810793 -0.462113
H17   H     H_    0.986841 0.154327 0.878292 0.417211
S4    S     S_3+6 0.116389 0.725315 0.245091 0.047771
O20   O     O_2   0.140742 0.691763 0.168303 -0.269434
O21   O     O_2   0.008289 0.659239 0.293777 -0.246048
O22   O     O_3   0.072597 0.843659 0.184305 -0.458899
H18   H     H_    0.023410 0.850053 0.114749 0.414689
C49   C     C_2   0.017877 0.998921 0.310215 0.663193
H19   H     H_    0.931131 0.978907 0.262979 0.124260
O23   O     O_2   0.118961 0.023830 0.279421 -0.522143
C50   C     C_2   0.982994 0.003397 0.687753 0.568111
H20   H     H_    0.069731 0.025035 0.733722 0.133766
O24   O     O_2   0.882517 0.978265 0.719416 -0.528132
S5    S     S_3+6 0.893652 0.796418 0.485976 0.058557
O25   O     O_2   0.894449 0.717742 0.592730 -0.224579
O26   O     O_2   0.760063 0.801134 0.419006 -0.289606
O27   O     O_3   0.997560 0.768838 0.434675 -0.494551
H21   H     H_    0.985113 0.695589 0.456354 0.394414
S6    S     S_3+6 0.111074 0.204291 0.508104 0.013976
O28   O     O_2   0.240081 0.196560 0.581784 -0.334852
O29   O     O_2   0.122841 0.276558 0.401038 -0.287469
O30   O     O_3   0.003259 0.242849 0.546766 -0.469126
H22   H     H_    0.027860 0.314690 0.529462 0.392123
C51   C     C_2   0.631849 0.952595 0.860213 0.383079
H23   H     H_    0.560108 0.007152 0.814403 0.100404
O31   O     O_2   0.741024 0.980635 0.893855 -0.480812
C52   C     C_2   0.366364 0.048332 0.139311 0.387911
H24   H     H_    0.434889 0.991447 0.185883 0.098769
O32   O     O_2   0.256012 0.023549 0.104308 -0.479387
C53   C     C_2   0.329906 0.191457 0.930012 0.430764
H25   H     H_    0.363618 0.125784 0.931674 0.076906
O33   O     O_2   0.239293 0.232307 0.861541 -0.468167
C54   C     C_2   0.678186 0.809127 0.069383 0.438821
H26   H     H_    0.640284 0.872469 0.069221 0.078482
O34   O     O_2   0.772268 0.771618 0.135764 -0.465172

loop_
_geom_bond_atom_site_label_1
_geom_bond_atom_site_label_2
_ccdc_geom_bond_type
C25   C31   A    
C38   C40   S    
S3    O17   D    
C26   C32   A    
C34   C37   S    
C23   O7    A    
O30   H22   S    
S2    O14   S    
Cu2   O7    S    
Cu1   N2    S    
C47   H15   S    
Cu2   N1    S    
C24   O8    A    
C52   H24   S    
C33   C39   S    
C34   C40   S    
C15   S3    S    
C28   C29   A    
C35   C37   S    
S2    O13   D    
Cu1   O1    S    
C17   N1    A    
Cu2   O2    S    
O27   H21   S    
C31   H11   S    
S6    O28   D    
C42   C46   A    
C23   O5    A    
S4    O20   D    
C30   H4    S    
C36   S2    S    
C49   O23   D    
C48   H16   S    
O22   H18   S    
C44   C46   A    
C1    O3    A    
C7    C43   A    
Cu2   O3    S    
C9    C10   A    
Cu1   O4    S    
C34   C36   S    
C40   S6    S    
C12   H10   S    
C21   C27   A    
C35   S1    S    
C22   C28   A    
C20   C47   S    
C27   C30   A    
C1    O1    A    
Cu1   O5    S    
C47   O15   D    
C2    O2    A    
C49   H19   S    
C13   H5    S    
C53   O33   D    
C16   C26   A    
O11   H13   S    
S4    O21   D    
S2    O12   D    
C4    C6    A    
C5    C7    A    
C18   N2    A    
C6    C8    A    
C3    C5    A    
S4    O22   S    
Cu1   O8    S    
C5    C9    A    
C3    H8    S    
C34   C50   S    
Cu1   Cu2   S    
C2    C42   S    
C50   O24   D    
C24   C37   S    
S5    O26   D    
C16   C18   A    
Cu2   O6    S    
C43   C45   A    
C52   O32   D    
C1    C41   S    
C14   H6    S    
C20   C22   A    
C16   S4    S    
S3    O18   D    
C4    H7    S    
C32   H12   S    
C54   O34   D    
C19   C48   S    
S5    O25   D    
S1    O10   D    
C51   H23   S    
C29   H3    S    
C15   C17   A    
C21   C25   A    
C3    C41   A    
C8    C14   A    
C46   C51   S    
C19   C21   A    
C36   C39   S    
C8    C44   A    
C12   C14   A    
C2    O4    A    
C17   H2    S    
C6    C10   A    
S1    O11   S    
C53   H25   S    
C39   S5    S    
C23   C38   S    
C33   C38   S    
S6    O30   S    
C36   C38   S    
C35   C40   S    
S1    O9    D    
C37   C39   S    
C30   C32   A    
C11   C13   A    
C45   C52   S    
O19   H17   S    
C4    C42   A    
C19   N1    A    
C44   C54   S    
C50   H20   S    
C33   C35   S    
S6    O29   D    
S5    O27   S    
C33   C49   S    
C20   N2    A    
C9    C12   A    
C15   C25   A    
C10   C11   A    
C24   O6    A    
O14   H14   S    
C7    C13   A    
C29   C31   A    
C22   C26   A    
S3    O19   S    
C27   C28   A    
C41   C45   A    
C48   O16   D    
C54   H26   S    
C11   H9    S    
C18   H1    S    
C43   C53   S    
C51   O31   D    
