data_mof_unit_39203.cif
_audit_creation_date              2012-12-10T17:41:00-0500
_audit_creation_method            fapswitch 2.2
_symmetry_space_group_name_H-M    P1
_symmetry_Int_Tables_number       1
_space_group_crystal_system       triclinic
_cell_length_a                    14.559983
_cell_length_b                    15.749976
_cell_length_c                    9.953858
_cell_angle_alpha                 91.122411
_cell_angle_beta                  93.105199
_cell_angle_gamma                 89.995758
_cell_volume                      2278.82270475

loop_
_atom_site_label
_atom_site_type_symbol
_atom_type_description
_atom_site_fract_x
_atom_site_fract_y
_atom_site_fract_z
_atom_type_partial_charge
C1    C     C_R   0.385886 0.875409 0.497212 0.947687
C2    C     C_R   0.683419 0.244915 0.398880 -0.210123
C3    C     C_R   0.236861 0.299448 0.384096 -0.148511
C4    C     C_R   0.183427 0.744908 0.398871 -0.210180
C5    C     C_R   0.710775 0.835530 0.505613 -0.097879
C6    C     C_R   0.676289 0.197335 0.514085 -0.066120
C7    C     C_R   0.210785 0.335545 0.505607 -0.097909
C8    C     C_R   0.176288 0.697334 0.514081 -0.066047
C9    C     C_R   0.339383 0.951823 0.124857 0.001521
C10   C     C_R   0.839384 0.451823 0.124860 0.001644
C11   C     C_R   0.281033 0.895472 0.050857 -0.260332
C12   C     C_R   0.388209 0.126242 0.500844 0.905316
C13   C     C_R   0.781031 0.395475 0.050861 -0.260620
C14   C     C_R   0.280154 0.896174 0.911807 -0.255640
C15   C     C_R   0.780145 0.396186 0.911811 -0.255767
C16   C     C_R   0.337701 0.952273 0.850144 0.025135
C17   C     C_R   0.837697 0.452278 0.850146 0.025228
C18   C     C_R   0.420303 0.978458 0.921534 0.084505
C19   C     C_R   0.920303 0.478458 0.921534 0.084455
C20   C     C_R   0.420884 0.977609 0.065647 0.091488
C21   C     C_R   0.920886 0.477605 0.065647 0.091452
C22   C     C_R   0.575588 0.021284 0.078001 0.049288
C23   C     C_R   0.885883 0.375410 0.497211 0.947702
C24   C     C_R   0.075584 0.521301 0.078000 0.049299
C25   C     C_R   0.615295 0.124455 0.504015 0.915912
C26   C     C_R   0.626653 0.885856 0.502046 0.915257
C27   C     C_R   0.115292 0.624457 0.504014 0.915972
C28   C     C_R   0.126660 0.385865 0.502046 0.915322
C29   C     C_R   0.575931 0.019941 0.935271 0.046046
C30   C     C_R   0.075930 0.519949 0.935270 0.045942
C31   C     C_R   0.377033 0.235496 0.751172 -0.071169
C32   C     C_R   0.396270 0.741821 0.699226 -0.174894
C33   C     C_R   0.877041 0.735493 0.751173 -0.071150
C34   C     C_R   0.888215 0.626244 0.500844 0.905324
C35   C     C_R   0.896274 0.241830 0.699212 -0.174991
C36   C     C_R   0.352508 0.272783 0.870827 -0.189039
C37   C     C_R   0.382741 0.704729 0.822054 -0.087301
C38   C     C_R   0.852480 0.772741 0.870838 -0.188943
C39   C     C_R   0.882740 0.204784 0.822070 -0.087493
C40   C     C_R   0.791749 0.840249 0.867936 -0.158014
C41   C     C_R   0.793361 0.186599 0.859347 -0.013704
C42   C     C_R   0.291822 0.340327 0.867912 -0.158094
C43   C     C_R   0.293365 0.686516 0.859308 -0.013807
C44   C     C_R   0.764031 0.875053 0.742637 -0.126969
C45   C     C_R   0.304076 0.238511 0.383965 -0.201326
C46   C     C_R   0.718373 0.196616 0.762456 -0.087135
C47   C     C_R   0.264084 0.375101 0.742599 -0.126977
C48   C     C_R   0.218375 0.696581 0.762447 -0.087310
C49   C     C_R   0.764976 0.821170 0.626212 0.058413
C50   C     C_R   0.738731 0.211262 0.627010 0.121253
C51   C     C_R   0.264989 0.321187 0.626202 0.058374
C52   C     C_R   0.238726 0.711260 0.627009 0.121341
C53   C     C_R   0.327753 0.252952 0.627797 0.110654
C54   C     C_R   0.321872 0.751006 0.604697 0.063093
C55   C     C_R   0.827757 0.752949 0.627798 0.110688
C56   C     C_R   0.256597 0.799053 0.389605 -0.098356
C57   C     C_R   0.821876 0.251004 0.604685 0.063134
C58   C     C_R   0.340333 0.207089 0.505245 -0.123265
C59   C     C_R   0.325297 0.803249 0.492299 -0.101344
C60   C     C_R   0.840343 0.707092 0.505244 -0.123300
C61   C     C_R   0.825297 0.303249 0.492291 -0.101297
C62   C     C_2   0.285672 0.009278 0.758601 0.996294
C63   C     C_2   0.785673 0.509283 0.758599 0.996325
C64   C     C_2   0.761638 0.875236 0.996632 0.919365
C65   C     C_2   0.783885 0.158726 0.999289 0.912701
C66   C     C_2   0.261799 0.375388 0.996612 0.919573
C67   C     C_R   0.804078 0.738510 0.383967 -0.201291
C68   C     C_2   0.283883 0.658570 0.999201 0.912277
C69   C     C_2   0.783748 0.967110 0.724954 0.894185
C70   C     C_2   0.626664 0.226291 0.803006 0.874445
C71   C     C_2   0.283882 0.467132 0.724829 0.894108
C72   C     C_2   0.126681 0.726265 0.803051 0.874385
C73   C     C_2   0.286810 0.015173 0.199491 0.962390
C74   C     C_2   0.786813 0.515177 0.199487 0.962420
C75   C     C_R   0.756590 0.299058 0.389607 -0.098360
C76   C     C_R   0.736851 0.799436 0.384102 -0.148403
H1    H     H_    0.323294 0.212261 0.288676 0.207715
H2    H     H_    0.138687 0.534762 0.887425 0.134167
H3    H     H_    0.434756 0.193586 0.761068 0.210924
H4    H     H_    0.464605 0.763477 0.678644 0.160967
H5    H     H_    0.934782 0.693599 0.761059 0.210847
H6    H     H_    0.964610 0.263475 0.678616 0.160972
H7    H     H_    0.383568 0.250834 0.965333 0.185109
H8    H     H_    0.441216 0.697662 0.893039 0.179314
H9    H     H_    0.883530 0.750779 0.965342 0.185085
H10   H     H_    0.941217 0.197745 0.893058 0.179401
H11   H     H_    0.890779 0.899434 0.072925 0.310280
H12   H     H_    0.258682 0.838489 0.303534 0.187057
H13   H     H_    0.719540 0.166957 0.170722 0.340162
H14   H     H_    0.390975 0.399633 0.072689 0.310344
H15   H     H_    0.219710 0.666954 0.170780 0.340180
H16   H     H_    0.891270 0.972196 0.864879 0.316516
H17   H     H_    0.533019 0.320636 0.783608 0.336230
H18   H     H_    0.391675 0.472087 0.864361 0.316444
H19   H     H_    0.033039 0.820615 0.783671 0.336259
H20   H     H_    0.702539 0.815228 0.288620 0.220123
H21   H     H_    0.631770 0.240497 0.316489 0.183090
H22   H     H_    0.202557 0.315248 0.288610 0.220079
H23   H     H_    0.823295 0.712262 0.288676 0.207722
H24   H     H_    0.131790 0.740479 0.316463 0.183136
H25   H     H_    0.638155 0.036743 0.136581 0.166333
H26   H     H_    0.138148 0.536780 0.136579 0.166381
H27   H     H_    0.216751 0.125048 0.184717 0.340985
H28   H     H_    0.716757 0.625054 0.184700 0.340975
H29   H     H_    0.219837 0.870954 0.093607 0.196599
H30   H     H_    0.719836 0.370957 0.093613 0.196558
H31   H     H_    0.758667 0.338501 0.303542 0.187006
H32   H     H_    0.219763 0.871588 0.856869 0.209355
H33   H     H_    0.719749 0.371609 0.856878 0.209387
H34   H     H_    0.200938 0.021470 0.592939 0.358710
H35   H     H_    0.700945 0.521475 0.592931 0.358718
H36   H     H_    0.638688 0.034756 0.887429 0.134254
N1    N     N_R   0.498810 0.000000 0.142780 -0.146601
N2    N     N_R   0.998810 0.500000 0.142780 -0.146623
N3    N     N_R   0.498740 0.000000 0.857170 -0.148701
N4    N     N_R   0.998740 0.500000 0.857170 -0.148730
O1    O     O_R   0.408390 0.908380 0.614690 -0.627886
O2    O     O_R   0.591620 0.908390 0.614640 -0.617966
O3    O     O_R   0.091620 0.591610 0.614640 -0.616544
O4    O     O_R   0.091620 0.408390 0.614640 -0.617898
O5    O     O_R   0.591610 0.091610 0.385310 -0.632221
O6    O     O_R   0.591610 0.908390 0.385310 -0.609656
O7    O     O_R   0.091610 0.591610 0.385310 -0.632244
O8    O     O_R   0.091610 0.408390 0.385310 -0.609671
O9    O     O_2   0.276628 0.083775 0.791346 -0.613659
O10   O     O_R   0.236543 0.976232 0.644756 -0.774292
O11   O     O_2   0.776627 0.583780 0.791344 -0.613668
O12   O     O_R   0.408390 0.091620 0.614690 -0.638659
O13   O     O_R   0.736549 0.476238 0.644749 -0.774269
O14   O     O_2   0.680189 0.872980 0.018188 -0.613440
O15   O     O_R   0.824589 0.903441 0.098888 -0.749568
O16   O     O_2   0.838109 0.106810 0.047476 -0.581454
O17   O     O_R   0.718058 0.194196 0.079543 -0.805389
O18   O     O_2   0.180368 0.373115 0.018302 -0.613500
O19   O     O_R   0.324814 0.403653 0.098746 -0.749183
O20   O     O_2   0.337955 0.606438 0.047202 -0.581263
O21   O     O_R   0.218245 0.694234 0.079632 -0.805302
O22   O     O_2   0.749419 0.004612 0.629204 -0.596009
O23   O     O_R   0.908390 0.408380 0.614690 -0.627884
O24   O     O_R   0.850496 0.010000 0.806508 -0.764756
O25   O     O_2   0.589326 0.195939 0.897600 -0.633627
O26   O     O_R   0.585106 0.294114 0.734197 -0.813636
O27   O     O_2   0.249386 0.504668 0.629218 -0.596106
O28   O     O_R   0.350880 0.509945 0.806098 -0.764402
O29   O     O_2   0.089404 0.695970 0.897750 -0.633720
O30   O     O_R   0.085086 0.794057 0.734206 -0.813633
O31   O     O_2   0.250463 0.996402 0.302705 -0.636698
O32   O     O_R   0.267507 0.093096 0.139667 -0.801176
O33   O     O_2   0.750464 0.496412 0.302703 -0.636702
O34   O     O_R   0.908390 0.591620 0.614690 -0.638665
O35   O     O_R   0.767513 0.593099 0.139656 -0.801195
O36   O     O_R   0.408370 0.908380 0.385360 -0.620569
O37   O     O_R   0.408370 0.091620 0.385360 -0.614450
O38   O     O_R   0.908370 0.408380 0.385360 -0.620573
O39   O     O_R   0.908370 0.591620 0.385360 -0.614462
O40   O     O_R   0.591620 0.091610 0.614640 -0.616553
Zn1   Zn    Zn3+2 0.500010 0.000000 0.653130 0.988311
Zn2   Zn    Zn3+2 0.000010 0.500000 0.653130 0.988282
Zn3   Zn    Zn3+2 0.499980 0.000000 0.346870 1.001196
Zn4   Zn    Zn3+2 0.999980 0.500000 0.346870 1.001178

loop_
_geom_bond_atom_site_label_1
_geom_bond_atom_site_label_2
_ccdc_geom_bond_type
C44   C49   A    
C33   C55   A    
C34   C60   S    
C24   N2    A    
C22   C29   A    
C15   H33   S    
C29   H36   S    
C36   C42   A    
C12   O37   A    
C4    C8    A    
C34   O34   A    
C39   C41   A    
C30   N4    A    
C34   O39   A    
C61   C75   A    
C75   H31   S    
N4    Zn2   S    
C22   H25   S    
C9    C73   S    
C73   O31   D    
C63   O11   D    
H28   O35   S    
C23   O23   A    
O40   Zn1   S    
C19   C21   A    
C3    C7    A    
C1    C59   S    
C20   N1    A    
C11   C14   A    
C56   H12   S    
C6    C25   S    
O7    Zn4   S    
C36   H7    S    
C72   O29   D    
O12   Zn1   S    
C1    O36   A    
H11   O15   S    
C66   O18   D    
H35   O13   S    
C22   N1    A    
C60   C67   A    
C43   C68   S    
C11   H29   S    
O6    Zn3   S    
C37   H8    S    
C43   C48   A    
C8    C52   A    
C40   C44   A    
C24   H26   S    
C67   H23   S    
C12   C58   S    
C69   O24   S    
C14   H32   S    
C29   N3    A    
O36   Zn3   S    
H15   O21   S    
C55   C60   A    
C4    C56   A    
C25   O40   A    
O4    Zn2   S    
C5    C49   A    
C68   O21   S    
C2    C6    A    
H19   O30   S    
C16   C62   S    
C48   C72   S    
C32   C54   A    
C35   H6    S    
C52   C54   A    
H27   O32   S    
C54   C59   A    
C10   C21   A    
C45   C58   A    
C70   O26   S    
H13   O17   S    
C73   O32   S    
O1    Zn1   S    
C68   O20   D    
C2    H21   S    
C28   O4    A    
C62   O10   S    
C27   O7    A    
C13   H30   S    
C41   C65   S    
C38   H9    S    
C49   C55   A    
C3    C45   A    
C6    C50   A    
C7    C28   S    
C66   O19   S    
C51   C53   A    
C37   C43   A    
C35   C39   A    
O23   Zn2   S    
O38   Zn4   S    
C76   H20   S    
C32   H4    S    
C9    C20   A    
C64   O15   S    
C23   C61   S    
C41   C46   A    
C47   C71   S    
C44   C69   S    
C74   O33   D    
C1    O1    A    
C32   C37   A    
N1    Zn3   S    
C31   H3    S    
C9    C11   A    
N2    Zn4   S    
H34   O10   S    
N3    Zn1   S    
C4    H24   S    
C14   C16   A    
C74   O35   S    
C31   C53   A    
H16   O24   S    
C65   O16   D    
O37   Zn3   S    
C71   O27   D    
C69   O22   D    
C15   C17   A    
C70   O25   D    
O34   Zn2   S    
O39   Zn4   S    
C50   C57   A    
C26   O2    A    
C64   O14   D    
C21   N2    A    
C10   C13   A    
C18   N3    A    
C62   O9    D    
C47   C51   A    
C53   C58   A    
C28   O8    A    
C57   C61   A    
C12   O12   A    
C27   O3    A    
C46   C50   A    
C33   C38   A    
C40   C64   S    
C56   C59   A    
C35   C57   A    
H18   O28   S    
C5    C76   A    
C13   C15   A    
C7    C51   A    
C17   C63   S    
C38   C40   A    
H14   O19   S    
C10   C74   S    
C3    H22   S    
C33   H5    S    
C19   N4    A    
O3    Zn2   S    
C72   O30   S    
O8    Zn4   S    
C17   C19   A    
C18   C20   A    
C42   C47   A    
C63   O13   S    
C24   C30   A    
C46   C70   S    
C2    C75   A    
C5    C26   S    
C30   H2    S    
C48   C52   A    
C16   C18   A    
O5    Zn3   S    
C23   O38   A    
C42   C66   S    
C8    C27   S    
C31   C36   A    
O2    Zn1   S    
C45   H1    S    
C67   C76   A    
C26   O6    A    
C39   H10   S    
C25   O5    A    
C65   O17   S    
H17   O26   S    
C71   O28   S    
