data_mof_unit_68565.cif
_audit_creation_date              2012-12-10T16:51:31-0500
_audit_creation_method            fapswitch 2.2
_symmetry_space_group_name_H-M    P1
_symmetry_Int_Tables_number       1
_space_group_crystal_system       triclinic
_cell_length_a                    7.893434
_cell_length_b                    8.697927
_cell_length_c                    12.291876
_cell_angle_alpha                 94.399647
_cell_angle_beta                  102.669558
_cell_angle_gamma                 93.32914
_cell_volume                      818.50583023

loop_
_atom_site_label
_atom_site_type_symbol
_atom_type_description
_atom_site_fract_x
_atom_site_fract_y
_atom_site_fract_z
_atom_type_partial_charge
C1    C     C_R   0.044898 0.794727 0.503197 0.956976
C2    C     C_R   0.165779 0.536188 0.831155 -0.086317
C3    C     C_2   0.064717 0.959326 0.510464 -0.484443
C4    C     C_R   0.108510 0.512386 0.709842 0.847612
C5    C     C_2   0.938339 0.048794 0.532177 -0.029987
C6    C     C_R   0.958953 0.207635 0.511094 0.946225
C7    C     C_R   0.891529 0.490902 0.290328 0.854989
C8    C     C_R   0.747369 0.238149 0.030106 -0.203725
C9    C     C_R   0.826568 0.451495 0.171746 -0.043164
C10   C     C_R   0.095700 0.651658 0.888635 -0.243067
C11   C     C_R   0.166761 0.693382 0.000880 -0.168436
C12   C     C_R   0.395461 0.515075 0.995663 0.009752
C13   C     C_R   0.320674 0.633133 0.055847 0.197686
C14   C     C_3   0.776255 0.987406 0.572437 -0.346877
C15   C     C_3   0.668373 0.100410 0.623799 -0.882292
C16   C     C_3   0.459273 0.361102 0.373827 -0.124943
C17   C     C_3   0.337955 0.215417 0.345081 -0.909446
C18   C     C_3   0.477864 0.063364 0.848625 -0.458759
C19   C     C_3   0.433207 0.950927 0.928441 -0.850401
C20   C     C_3   0.375860 0.684492 0.180376 -0.421287
C21   C     C_3   0.439883 0.855108 0.204696 -0.909455
C22   C     C_R   0.299681 0.454848 0.888214 0.017690
C23   C     C_R   0.556941 0.450691 0.034715 0.044718
C24   C     C_R   0.590955 0.304319 0.985656 0.149936
C25   C     C_R   0.468802 0.229129 0.893177 0.150365
C26   C     C_R   0.332518 0.310612 0.840765 -0.231404
C27   C     C_R   0.689247 0.529483 0.117694 -0.268695
C28   C     C_R   0.861326 0.309131 0.124979 -0.196897
H1    H     H_    0.969272 0.247729 0.165862 0.136097
H2    H     H_    0.593888 0.170997 0.562059 0.290594
H3    H     H_    0.566858 0.030208 0.650691 0.221915
H4    H     H_    0.684054 0.920494 0.500644 0.232129
H5    H     H_    0.820579 0.911252 0.640207 0.223629
H6    H     H_    0.361131 0.140619 0.414509 0.252362
H7    H     H_    0.200523 0.241180 0.321455 0.293510
H8    H     H_    0.366278 0.151900 0.270527 0.221370
H9    H     H_    0.432509 0.425141 0.299946 0.162356
H10   H     H_    0.588374 0.320209 0.385412 0.238057
H11   H     H_    0.531821 0.965665 0.008410 0.258997
H12   H     H_    0.534458 0.615814 0.590992 0.175328
H13   H     H_    0.302895 0.970843 0.944619 0.266722
H14   H     H_    0.432091 0.830749 0.890548 0.263272
H15   H     H_    0.382793 0.034705 0.767278 0.213229
H16   H     H_    0.609230 0.044403 0.834782 0.206824
H17   H     H_    0.566841 0.876722 0.181941 0.252732
H18   H     H_    0.343871 0.928207 0.158135 0.259030
H19   H     H_    0.458619 0.888722 0.295797 0.260105
H20   H     H_    0.262267 0.663950 0.218700 0.224178
H21   H     H_    0.477504 0.619388 0.225847 0.216453
H22   H     H_    0.779982 0.128364 0.996296 0.142752
H23   H     H_    0.684447 0.649129 0.145696 0.152823
H24   H     H_    0.986951 0.711362 0.846298 0.159214
H25   H     H_    0.103725 0.777997 0.044407 0.146832
H26   H     H_    0.244450 0.256513 0.765412 0.147874
H27   H     H_    0.182307 0.006782 0.490318 0.166813
H28   H     H_    0.750389 0.174369 0.696111 0.270013
N1    N     N_2   0.434800 0.456690 0.470850 -0.038777
N2    N     N_2   0.565200 0.543310 0.529150 -0.168246
O1    O     O_R   0.893060 0.738880 0.507150 -0.626584
O2    O     O_R   0.172250 0.711130 0.488470 -0.620299
O3    O     O_R   0.944700 0.520730 0.667600 -0.617920
O4    O     O_R   0.223890 0.492980 0.648920 -0.612623
O5    O     O_R   0.827750 0.288870 0.511530 -0.629978
O6    O     O_R   0.106940 0.261120 0.492850 -0.629591
O7    O     O_R   0.776110 0.507020 0.351080 -0.641765
O8    O     O_R   0.055300 0.479270 0.332400 -0.622566
Zn1   Zn    Zn3+2 0.813580 0.518530 0.512470 0.908299
Zn2   Zn    Zn3+2 0.186420 0.481470 0.487530 0.928488

loop_
_geom_bond_atom_site_label_1
_geom_bond_atom_site_label_2
_ccdc_geom_bond_type
C6    O5    A    
C2    C22   A    
O8    Zn2   S    
C23   C24   A    
C15   H3    S    
C20   H21   S    
C17   H8    S    
C18   H16   S    
C7    O7    A    
O3    Zn1   S    
C2    C4    S    
C11   H25   S    
C19   H14   S    
O4    Zn2   S    
C16   H9    S    
C3    C5    D    
C4    O4    A    
C10   H24   S    
C15   H28   S    
C20   C21   S    
C14   H5    S    
C5    C14   S    
C19   H13   S    
C18   H15   S    
C12   C13   A    
C7    O8    A    
C11   C13   A    
C12   C23   A    
C9    C27   A    
N1    N2    D    
C20   H20   S    
C18   C25   S    
C19   H11   S    
C26   H26   S    
C28   H1    S    
C8    C24   A    
C27   H23   S    
C18   C19   S    
C21   H17   S    
C16   N1    S    
C1    O1    A    
C22   C26   A    
C5    C6    S    
C8    C28   A    
C12   C22   A    
O5    Zn1   S    
H12   N2    S    
C17   H6    S    
N1    Zn2   S    
C2    C10   A    
O6    Zn2   S    
C8    H22   S    
N2    Zn1   S    
C14   H4    S    
C24   C25   A    
O2    Zn2   S    
C15   H2    S    
C21   H18   S    
C10   C11   A    
C1    O2    A    
C6    O6    A    
C1    C3    S    
C7    C9    S    
C14   C15   S    
C17   H7    S    
C13   C20   S    
O1    Zn1   S    
C25   C26   A    
C3    H27   S    
C4    O3    A    
C23   C27   A    
O7    Zn1   S    
C9    C28   A    
C16   H10   S    
C16   C17   S    
C21   H19   S    
