data_mof_unit_63491.cif
_audit_creation_date              2012-12-10T18:50:44-0500
_audit_creation_method            fapswitch 2.2
_symmetry_space_group_name_H-M    P1
_symmetry_Int_Tables_number       1
_space_group_crystal_system       triclinic
_cell_length_a                    37.203665
_cell_length_b                    30.270698
_cell_length_c                    21.7242
_cell_angle_alpha                 90.000087
_cell_angle_beta                  125.515576
_cell_angle_gamma                 90.000041
_cell_volume                      19913.7819541

loop_
_atom_site_label
_atom_site_type_symbol
_atom_type_description
_atom_site_fract_x
_atom_site_fract_y
_atom_site_fract_z
_atom_type_partial_charge
C1    C     C_R   0.413822 0.499989 0.914658 0.879215
C2    C     C_R   0.586177 0.499989 0.085342 0.879224
C3    C     C_R   0.913822 0.999989 0.914658 0.879220
C4    C     C_R   0.086178 0.999989 0.085342 0.879221
C5    C     C_2   0.507618 0.498847 0.822838 -0.391869
C6    C     C_2   0.492381 0.498847 0.177161 -0.391868
C7    C     C_2   0.007618 0.998847 0.822838 -0.391868
C8    C     C_2   0.992382 0.998847 0.177161 -0.391869
C9    C     C_R   0.296667 0.467759 0.831433 -0.242926
C10   C     C_R   0.703332 0.467770 0.168548 -0.242924
C11   C     C_R   0.796668 0.967766 0.831446 -0.242924
C12   C     C_R   0.203332 0.967767 0.168552 -0.242926
C13   C     C_R   0.342628 0.467746 0.879234 0.213957
C14   C     C_R   0.657371 0.467757 0.120747 0.213949
C15   C     C_R   0.842629 0.967753 0.879247 0.213952
C16   C     C_R   0.157371 0.967755 0.120751 0.213951
C17   C     C_R   0.365980 0.499999 0.868717 -0.056172
C18   C     C_R   0.634020 0.499999 0.131284 -0.056148
C19   C     C_R   0.865980 0.999999 0.868717 -0.056158
C20   C     C_R   0.134020 1.000000 0.131283 -0.056154
C21   C     C_R   0.343308 0.532388 0.812735 -0.240317
C22   C     C_R   0.656691 0.532377 0.187285 -0.240325
C23   C     C_R   0.843309 0.032380 0.812721 -0.240323
C24   C     C_R   0.156691 0.032380 0.187281 -0.240323
C25   C     C_R   0.297591 0.532318 0.765955 -0.173335
C26   C     C_R   0.702408 0.532307 0.234066 -0.173330
C27   C     C_R   0.797591 0.032310 0.765940 -0.173330
C28   C     C_R   0.202408 0.032309 0.234062 -0.173330
C29   C     C_R   0.274233 0.499977 0.775125 0.079534
C30   C     C_R   0.725766 0.499977 0.224876 0.079531
C31   C     C_R   0.774233 0.999977 0.775124 0.079532
C32   C     C_R   0.225767 0.999977 0.224876 0.079532
C33   C     C_R   0.203606 0.503538 0.648181 -0.178121
C34   C     C_R   0.796393 0.503522 0.351821 -0.178121
C35   C     C_R   0.703606 0.003526 0.648180 -0.178121
C36   C     C_R   0.296393 0.003525 0.351821 -0.178122
C37   C     C_R   0.157811 0.503410 0.602097 -0.192578
C38   C     C_R   0.842189 0.503394 0.397905 -0.192577
C39   C     C_R   0.657811 0.003398 0.602096 -0.192577
C40   C     C_R   0.342189 0.003397 0.397904 -0.192577
C41   C     C_R   0.134436 0.500163 0.634381 -0.036139
C42   C     C_R   0.865564 0.500163 0.365619 -0.036142
C43   C     C_R   0.634436 0.000163 0.634381 -0.036141
C44   C     C_R   0.365564 0.000163 0.365619 -0.036142
C45   C     C_R   0.501733 0.499904 0.882707 0.944386
C46   C     C_R   0.498267 0.499904 0.117292 0.944377
C47   C     C_R   0.001733 0.999904 0.882707 0.944381
C48   C     C_R   0.998267 0.999904 0.117293 0.944380
C49   C     C_R   0.157252 0.497071 0.713079 -0.192590
C50   C     C_R   0.842747 0.497087 0.286919 -0.192590
C51   C     C_R   0.657253 0.997082 0.713080 -0.192589
C52   C     C_R   0.342747 0.997084 0.286919 -0.192590
C53   C     C_R   0.202984 0.497049 0.759020 -0.173146
C54   C     C_R   0.797015 0.497065 0.240979 -0.173145
C55   C     C_R   0.702985 0.997060 0.759021 -0.173146
C56   C     C_R   0.297015 0.997062 0.240979 -0.173146
C57   C     C_R   0.226244 0.500227 0.726685 0.129378
C58   C     C_R   0.773755 0.500226 0.273315 0.129378
C59   C     C_R   0.726245 0.000226 0.726685 0.129378
C60   C     C_R   0.273755 0.000226 0.273315 0.129378
C61   C     C_R   0.500000 0.413719 0.500000 0.856539
C62   C     C_R   1.000000 0.913719 0.500000 0.856539
C63   C     C_R   0.499798 0.502151 0.618698 0.958079
C64   C     C_R   0.500201 0.502151 0.381302 0.958081
C65   C     C_R   0.999798 0.002152 0.618698 0.958080
C66   C     C_R   0.000202 0.002152 0.381302 0.958081
C67   C     C_R   0.500000 0.586284 0.500000 0.882893
C68   C     C_R   0.000000 0.086284 0.500000 0.882892
C69   C     C_R   1.000000 0.413608 0.500000 0.874304
C70   C     C_R   0.500000 0.913608 0.500000 0.874305
C71   C     C_R   0.086426 0.500054 0.586358 0.874761
C72   C     C_R   0.913574 0.500054 0.413641 0.874761
C73   C     C_R   0.586426 0.000053 0.586358 0.874761
C74   C     C_R   0.413574 0.000054 0.413641 0.874760
C75   C     C_R   0.000000 0.586405 0.500000 0.873522
C76   C     C_R   0.500000 0.086405 0.500000 0.873522
C77   C     C_R   0.462023 0.296910 0.444162 -0.177037
C78   C     C_R   0.537976 0.296910 0.555838 -0.177037
C79   C     C_R   0.962023 0.796910 0.444162 -0.177036
C80   C     C_R   0.037976 0.796910 0.555838 -0.177037
C81   C     C_R   0.000000 0.273908 0.500000 0.110469
C82   C     C_R   0.500000 0.773908 0.500000 0.110470
C83   C     C_R   0.461913 0.342705 0.444415 -0.189952
C84   C     C_R   0.538086 0.342705 0.555585 -0.189952
C85   C     C_R   0.961913 0.842705 0.444415 -0.189952
C86   C     C_R   0.038086 0.842705 0.555585 -0.189952
C87   C     C_R   0.500000 0.365759 0.500000 -0.027733
C88   C     C_R   1.000000 0.865759 0.500000 -0.027732
C89   C     C_R   0.500000 0.274014 0.500000 0.109591
C90   C     C_R   1.000000 0.774015 0.500000 0.109591
C91   C     C_R   0.012317 0.703200 0.565486 -0.175314
C92   C     C_R   0.987682 0.703200 0.434514 -0.175314
C93   C     C_R   0.512317 0.203200 0.565486 -0.175314
C94   C     C_R   0.487682 0.203200 0.434514 -0.175314
C95   C     C_R   0.012056 0.657406 0.565372 -0.190451
C96   C     C_R   0.987944 0.657406 0.434627 -0.190452
C97   C     C_R   0.512056 0.157406 0.565372 -0.190452
C98   C     C_R   0.487944 0.157406 0.434627 -0.190451
C99   C     C_R   1.000000 0.634356 0.500000 -0.033099
C100  C     C_R   0.500000 0.134356 0.500000 -0.033099
C101  C     C_R   1.000000 0.726096 0.500000 0.110321
C102  C     C_R   0.500000 0.226096 0.500000 0.110321
C103  C     C_R   0.461793 0.703095 0.479066 -0.169710
C104  C     C_R   0.538207 0.703094 0.520934 -0.169710
C105  C     C_R   0.961793 0.203095 0.479066 -0.169708
C106  C     C_R   0.038207 0.203095 0.520934 -0.169709
C107  C     C_R   0.461685 0.657299 0.478581 -0.165254
C108  C     C_R   0.538316 0.657299 0.521419 -0.165255
C109  C     C_R   0.961685 0.157299 0.478581 -0.165255
C110  C     C_R   0.038316 0.157299 0.521419 -0.165256
C111  C     C_R   0.500000 0.634242 0.500000 -0.017240
C112  C     C_R   0.000000 0.134242 0.500000 -0.017240
C113  C     C_R   0.012742 0.296803 0.459639 -0.171295
C114  C     C_R   0.987259 0.296803 0.540362 -0.171296
C115  C     C_R   0.512742 0.796803 0.459639 -0.171296
C116  C     C_R   0.487259 0.796803 0.540362 -0.171297
C117  C     C_R   0.500000 0.725989 0.500000 0.106412
C118  C     C_R   0.000000 0.225989 0.500000 0.106411
C119  C     C_R   1.000000 0.365653 0.500000 -0.033728
C120  C     C_R   0.500000 0.865653 0.500000 -0.033728
C121  C     C_R   0.012468 0.342602 0.459210 -0.190286
C122  C     C_R   0.987532 0.342602 0.540790 -0.190286
C123  C     C_R   0.512468 0.842602 0.459210 -0.190286
C124  C     C_R   0.487532 0.842602 0.540790 -0.190285
C125  C     C_2   0.525695 0.532482 0.742482 0.207042
C126  C     C_2   0.474306 0.532483 0.257519 0.207039
C127  C     C_2   0.025695 0.032482 0.742482 0.207042
C128  C     C_2   0.974305 0.032483 0.257519 0.207042
C129  C     C_2   0.498299 0.506337 0.683039 -0.389151
C130  C     C_2   0.501700 0.506337 0.316961 -0.389151
C131  C     C_2   0.998299 0.006338 0.683039 -0.389152
C132  C     C_2   0.001700 0.006337 0.316961 -0.389152
C133  C     C_2   0.521064 0.534408 0.804822 -0.180810
C134  C     C_2   0.478937 0.534408 0.195179 -0.180803
C135  C     C_2   0.021064 0.034408 0.804822 -0.180809
C136  C     C_2   0.978936 0.034408 0.195178 -0.180809
H1    H     H_    0.140791 0.505856 0.541449 0.157123
H2    H     H_    0.859209 0.505827 0.458555 0.157125
H3    H     H_    0.640791 0.005835 0.541447 0.157124
H4    H     H_    0.359209 0.005832 0.458554 0.157124
H5    H     H_    0.139844 0.494606 0.739177 0.158592
H6    H     H_    0.860155 0.494636 0.260819 0.158593
H7    H     H_    0.639845 0.994627 0.739180 0.158592
H8    H     H_    0.360155 0.994630 0.260820 0.158593
H9    H     H_    0.220234 0.494945 0.819780 0.136464
H10   H     H_    0.779765 0.494974 0.180218 0.136464
H11   H     H_    0.720234 0.994965 0.819781 0.136465
H12   H     H_    0.279765 0.994969 0.180218 0.136464
H13   H     H_    0.022418 0.279201 0.427984 0.137411
H14   H     H_    0.977582 0.279201 0.572017 0.137411
H15   H     H_    0.522418 0.779201 0.427983 0.137411
H16   H     H_    0.477583 0.779201 0.572017 0.137411
H17   H     H_    0.432458 0.279313 0.401038 0.135419
H18   H     H_    0.567542 0.279314 0.598962 0.135419
H19   H     H_    0.932458 0.779313 0.401038 0.135419
H20   H     H_    0.067542 0.779314 0.598962 0.135419
H21   H     H_    0.432269 0.360018 0.400899 0.156928
H22   H     H_    0.567731 0.360018 0.599101 0.156928
H23   H     H_    0.932269 0.860018 0.400899 0.156928
H24   H     H_    0.067730 0.860018 0.599101 0.156928
H25   H     H_    0.021655 0.720796 0.616214 0.134484
H26   H     H_    0.978344 0.720796 0.383786 0.134483
H27   H     H_    0.521655 0.220796 0.616214 0.134484
H28   H     H_    0.478344 0.220796 0.383786 0.134483
H29   H     H_    0.021608 0.640086 0.616427 0.154772
H30   H     H_    0.978391 0.640086 0.383572 0.154771
H31   H     H_    0.521609 0.140086 0.616427 0.154772
H32   H     H_    0.478391 0.140086 0.383572 0.154771
H33   H     H_    0.022346 0.359929 0.427639 0.154957
H34   H     H_    0.977654 0.359929 0.572361 0.154956
H35   H     H_    0.522346 0.859929 0.427639 0.154957
H36   H     H_    0.477654 0.859929 0.572361 0.154956
H37   H     H_    0.432055 0.720696 0.462435 0.136003
H38   H     H_    0.567945 0.720696 0.537565 0.136003
H39   H     H_    0.932055 0.220696 0.462435 0.136003
H40   H     H_    0.067945 0.220696 0.537566 0.136003
H41   H     H_    0.470738 0.489926 0.678038 0.139547
H42   H     H_    0.529261 0.489925 0.321962 0.139545
H43   H     H_    0.970738 0.989927 0.678038 0.139547
H44   H     H_    0.029262 0.989926 0.321962 0.139547
H45   H     H_    0.431852 0.639990 0.462137 0.158853
H46   H     H_    0.568148 0.639990 0.537863 0.158853
H47   H     H_    0.931852 0.139990 0.462137 0.158854
H48   H     H_    0.068148 0.139990 0.537863 0.158854
H49   H     H_    0.529727 0.564836 0.837051 0.190578
H50   H     H_    0.470274 0.564837 0.162951 0.190578
H51   H     H_    0.029728 0.064836 0.837051 0.190578
H52   H     H_    0.970273 0.064836 0.162950 0.190578
H53   H     H_    0.503216 0.467110 0.795912 0.161828
H54   H     H_    0.496783 0.467110 0.204086 0.161828
H55   H     H_    0.003216 0.967109 0.795912 0.161828
H56   H     H_    0.996784 0.967110 0.204087 0.161828
H57   H     H_    0.278424 0.442860 0.838568 0.133196
H58   H     H_    0.721575 0.442879 0.161397 0.133197
H59   H     H_    0.778425 0.942872 0.838592 0.133197
H60   H     H_    0.221575 0.942875 0.161404 0.133198
H61   H     H_    0.361024 0.557345 0.804493 0.163424
H62   H     H_    0.638975 0.557326 0.195543 0.163411
H63   H     H_    0.861024 0.057332 0.804469 0.163415
H64   H     H_    0.138976 0.057330 0.195535 0.163413
H65   H     H_    0.280421 0.557647 0.723013 0.141381
H66   H     H_    0.719578 0.557628 0.277023 0.141381
H67   H     H_    0.780422 0.057633 0.722988 0.141381
H68   H     H_    0.219578 0.057632 0.277016 0.141381
H69   H     H_    0.221374 0.505696 0.622676 0.133440
H70   H     H_    0.778626 0.505666 0.377329 0.133439
H71   H     H_    0.721374 0.005674 0.622673 0.133439
H72   H     H_    0.278626 0.005672 0.377327 0.133439
O1    O     O_R   0.434530 0.536960 0.934530 -0.630294
O2    O     O_R   0.565470 0.536960 0.065470 -0.630292
O3    O     O_R   0.934530 0.036960 0.934530 -0.630292
O4    O     O_R   0.065470 0.036960 0.065470 -0.630292
O5    O     O_R   0.065470 0.500010 0.514410 -0.626415
O6    O     O_R   0.934530 0.500010 0.485590 -0.626415
O7    O     O_R   0.565470 0.000010 0.514410 -0.626415
O8    O     O_R   0.434530 0.000010 0.485590 -0.626415
O9    O     O_R   0.065460 0.500010 0.616540 -0.626351
O10   O     O_R   0.934540 0.500010 0.383460 -0.626350
O11   O     O_R   0.565460 0.000010 0.616540 -0.626350
O12   O     O_R   0.434540 0.000010 0.383460 -0.626350
O13   O     O_R   0.000010 0.565480 0.448930 -0.625114
O14   O     O_R   0.999990 0.565480 0.551070 -0.625111
O15   O     O_R   0.500010 0.065480 0.448930 -0.625113
O16   O     O_R   0.499990 0.065480 0.551070 -0.625112
O17   O     O_R   0.434530 0.463040 0.934530 -0.595209
O18   O     O_R   0.565470 0.463040 0.065470 -0.595218
O19   O     O_R   0.934530 0.963040 0.934530 -0.595215
O20   O     O_R   0.065470 0.963040 0.065470 -0.595217
O21   O     O_R   0.500010 0.536960 0.909550 -0.617938
O22   O     O_R   0.499990 0.536960 0.090450 -0.617935
O23   O     O_R   0.000010 0.036960 0.909550 -0.617937
O24   O     O_R   0.999990 0.036960 0.090450 -0.617936
O25   O     O_R   0.500010 0.463040 0.909550 -0.619867
O26   O     O_R   0.499990 0.463040 0.090450 -0.619876
O27   O     O_R   0.000010 0.963040 0.909550 -0.619869
O28   O     O_R   0.999990 0.963040 0.090450 -0.619870
O29   O     O_R   0.536960 0.434530 0.536970 -0.627543
O30   O     O_R   0.463040 0.434530 0.463030 -0.627543
O31   O     O_R   0.036960 0.934530 0.536970 -0.627543
O32   O     O_R   0.963040 0.934530 0.463030 -0.627543
O33   O     O_R   0.536950 0.500000 0.627420 -0.584568
O34   O     O_R   0.463050 0.500000 0.372580 -0.584569
O35   O     O_R   0.036950 1.000000 0.627420 -0.584568
O36   O     O_R   0.963050 1.000000 0.372580 -0.584569
O37   O     O_R   0.463030 0.500000 0.553490 -0.627841
O38   O     O_R   0.536970 0.500000 0.446510 -0.627842
O39   O     O_R   0.963030 0.000000 0.553490 -0.627841
O40   O     O_R   0.036970 1.000000 0.446510 -0.627842
O41   O     O_R   0.536960 0.565470 0.536960 -0.616475
O42   O     O_R   0.463040 0.565470 0.463040 -0.616474
O43   O     O_R   0.036960 0.065470 0.536960 -0.616475
O44   O     O_R   0.963040 0.065470 0.463040 -0.616474
O45   O     O_R   0.000000 0.434540 0.448940 -0.624670
O46   O     O_R   0.000000 0.434540 0.551060 -0.624673
O47   O     O_R   0.500000 0.934540 0.448940 -0.624671
O48   O     O_R   0.500000 0.934540 0.551060 -0.624671
Zn1   Zn    Zn3+2 0.500000 0.549350 0.000000 0.957085
Zn2   Zn    Zn3+2 1.000000 0.049350 0.000000 0.957086
Zn3   Zn    Zn3+2 0.500000 0.450640 0.000000 0.976440
Zn4   Zn    Zn3+2 1.000000 0.950640 0.000000 0.976441
Zn5   Zn    Zn3+2 0.549360 0.500000 0.549360 0.984791
Zn6   Zn    Zn3+2 0.450640 0.500000 0.450640 0.984792
Zn7   Zn    Zn3+2 0.049360 1.000000 0.549360 0.984791
Zn8   Zn    Zn3+2 0.950640 1.000000 0.450640 0.984792
Zn9   Zn    Zn3+2 0.000010 0.500010 0.431810 0.947570
Zn10  Zn    Zn3+2 0.999990 0.500010 0.568190 0.947569
Zn11  Zn    Zn3+2 0.500010 0.000010 0.431810 0.947570
Zn12  Zn    Zn3+2 0.499990 0.000010 0.568190 0.947569
I1    I     I_    0.572002 0.576482 0.747663 -0.367810
I2    I     I_    0.428001 0.576485 0.252340 -0.367805
I3    I     I_    0.072002 0.076482 0.747664 -0.367810
I4    I     I_    0.927999 0.076483 0.252338 -0.367808
N1    N     N_2   0.365013 0.435944 0.938391 -0.298525
H73   H     H_    0.348525 0.406241 0.925831 0.219688
C137  C     C_3   0.379289 0.452487 0.011839 -0.738523
H74   H     H_    0.350185 0.460822 0.011818 0.231806
H75   H     H_    0.400223 0.482335 0.027099 0.237868
H76   H     H_    0.399085 0.426794 0.055385 0.238239
N2    N     N_2   0.634986 0.435968 0.061568 -0.298539
H77   H     H_    0.651474 0.406267 0.074108 0.219695
C138  C     C_3   0.620709 0.452533 0.988132 -0.738544
H78   H     H_    0.649813 0.460885 0.988163 0.231822
H79   H     H_    0.599770 0.482374 0.972889 0.237869
H80   H     H_    0.600919 0.426845 0.944570 0.238245
N3    N     N_2   0.865014 0.935960 0.938419 -0.298535
H81   H     H_    0.848526 0.906258 0.925872 0.219692
C139  C     C_3   0.879291 0.952518 0.011859 -0.738532
H82   H     H_    0.850186 0.960862 0.011833 0.231816
H83   H     H_    0.900226 0.982363 0.027106 0.237867
H84   H     H_    0.899084 0.926829 0.055416 0.238243
N4    N     N_2   0.134986 0.935963 0.061577 -0.298536
H85   H     H_    0.151474 0.906262 0.074121 0.219693
C140  C     C_3   0.120709 0.952523 0.988138 -0.738533
H86   H     H_    0.149813 0.960872 0.988166 0.231818
H87   H     H_    0.099771 0.982366 0.972891 0.237868
H88   H     H_    0.100918 0.926834 0.944580 0.238243

loop_
_geom_bond_atom_site_label_1
_geom_bond_atom_site_label_2
_ccdc_geom_bond_type
C14   N2    S    
C43   C73   S    
C140  H87   S    
C121  H33   S    
C55   C59   A    
C89   C102  S    
C8    C136  D    
C140  H86   S    
C46   O22   A    
C134  H50   S    
C35   C39   A    
C137  H74   S    
C76   O16   A    
C84   C87   A    
C92   C96   A    
C7    H55   S    
C97   C100  A    
C69   O45   A    
O25   Zn3   S    
C66   O40   A    
C34   H70   S    
O2    Zn1   S    
C5    C133  D    
O29   Zn5   S    
C77   C89   A    
C50   C54   A    
O35   Zn7   S    
C107  H45   S    
C27   H67   S    
C61   O30   A    
C46   O26   A    
C24   H64   S    
N4    C140  S    
C45   O25   A    
C82   C115  A    
C38   C42   A    
C140  H88   S    
C25   H65   S    
C128  C136  S    
C68   C112  S    
O14   Zn10  S    
C4    O4    A    
C95   C99   A    
C85   C88   A    
C64   O34   A    
C94   C98   A    
C1    O17   A    
C63   O33   A    
C96   C99   A    
O5    Zn9   S    
C103  H37   S    
O10   Zn9   S    
C62   O32   A    
C73   O11   A    
C35   C59   A    
N1    C137  S    
C36   H72   S    
C136  H52   S    
C31   C59   S    
C7    C47   S    
C9    C13   A    
O42   Zn6   S    
C79   C90   A    
C80   C86   A    
C61   C87   S    
C110  C112  A    
C77   H17   S    
C15   C19   A    
C55   H11   S    
C108  H46   S    
O46   Zn10  S    
O20   Zn4   S    
C12   C16   A    
C75   O14   A    
C70   C120  S    
O27   Zn4   S    
C122  H34   S    
C124  H36   S    
C81   C114  A    
O18   Zn3   S    
N2    H77   S    
C139  H83   S    
C3    C19   S    
O36   Zn8   S    
C23   C27   A    
O8    Zn12  S    
C130  H42   S    
C68   O44   A    
C40   C44   A    
C129  H41   S    
O39   Zn8   S    
O21   Zn1   S    
C120  C123  A    
C133  H49   S    
C6    C46   S    
C54   H10   S    
O40   Zn7   S    
C107  C111  A    
C109  H47   S    
N4    H85   S    
C4    O20   A    
C65   O39   A    
C6    C134  D    
C11   C31   A    
C78   C89   A    
O33   Zn5   S    
C12   C32   A    
C3    O3    A    
C63   C129  S    
C128  I4    S    
O31   Zn7   S    
C103  C117  A    
C45   O21   A    
C91   C101  A    
O37   Zn6   S    
C95   H29   S    
C41   C49   A    
C34   C38   A    
C65   C131  S    
C126  I2    S    
C69   O46   A    
C80   H20   S    
C66   C132  S    
C119  C121  A    
C76   O15   A    
C25   C29   A    
O26   Zn3   S    
C63   O37   A    
O23   Zn2   S    
C39   H3    S    
C127  I3    S    
C2    O2    A    
O28   Zn4   S    
O6    Zn10  S    
C86   C88   A    
C1    O1    A    
O11   Zn12  S    
C28   H68   S    
C113  H13   S    
C106  C118  A    
C137  H76   S    
C115  C123  A    
O17   Zn3   S    
C85   H23   S    
C10   C14   A    
C109  C112  A    
C70   O48   A    
C126  C130  D    
C84   H22   S    
C78   H18   S    
C104  H38   S    
C116  H16   S    
O45   Zn9   S    
C138  H78   S    
C71   O5    A    
C15   N3    S    
C62   C88   S    
C81   C118  S    
C69   C119  S    
C77   C83   A    
C33   C37   A    
C62   O31   A    
C56   C60   A    
C125  I1    S    
C138  H80   S    
C48   O24   A    
C72   O6    A    
C56   H12   S    
C19   C23   A    
C8    C48   S    
C90   C101  S    
C7    C135  D    
N3    H81   S    
C98   H32   S    
C78   C84   A    
C114  H14   S    
C65   O35   A    
C53   H9    S    
C10   C30   A    
C93   C97   A    
O1    Zn1   S    
C139  H82   S    
C83   H21   S    
O22   Zn1   S    
C28   C32   A    
C16   C20   A    
C83   C87   A    
C125  C133  S    
C6    H54   S    
C105  C109  A    
C75   C99   S    
N1    H73   S    
O34   Zn6   S    
C139  H84   S    
C64   O38   A    
C5    C45   S    
C52   H8    S    
C80   C90   A    
C44   C74   S    
C61   O29   A    
C126  C134  S    
C74   O12   A    
C48   O28   A    
O38   Zn5   S    
C92   C101  A    
C42   C50   A    
O19   Zn4   S    
C68   O43   A    
C35   H71   S    
C132  H44   S    
C26   C30   A    
C11   C15   A    
C50   H6    S    
C113  C121  A    
C27   C31   A    
C22   C26   A    
C54   C58   A    
C96   H30   S    
C105  C118  A    
O30   Zn6   S    
C76   C100  S    
C32   C60   S    
C81   C113  A    
C23   H63   S    
C94   H28   S    
C104  C108  A    
C36   C40   A    
C51   H7    S    
C2    O18   A    
C34   C58   A    
C104  C117  A    
C106  C110  A    
C119  C122  A    
C92   H26   S    
C47   O27   A    
C21   C25   A    
C128  C132  D    
C33   C57   A    
C116  C124  A    
C74   O8    A    
C18   C22   A    
C93   C102  A    
O15   Zn11  S    
C14   C18   A    
C22   H62   S    
C91   H25   S    
C24   C28   A    
C11   H59   S    
C29   C57   S    
C2    C18   S    
C36   C60   A    
C53   C57   A    
C70   O47   A    
O16   Zn12  S    
C103  C107  A    
C125  C129  D    
C135  H51   S    
O24   Zn2   S    
C44   C52   A    
C4    C20   S    
C13   N1    S    
C138  H79   S    
C79   H19   S    
C72   O10   A    
C3    O19   A    
C1    C17   S    
C71   O9    A    
C108  C111  A    
C41   C71   S    
O44   Zn8   S    
C26   H66   S    
C137  H75   S    
C10   H58   S    
C82   C116  A    
C16   N4    S    
C97   H31   S    
C67   C111  S    
O48   Zn12  S    
C9    C29   A    
C110  H48   S    
C43   C51   A    
C66   O36   A    
C8    H56   S    
C49   C53   A    
C131  H43   S    
C30   C58   S    
C114  C122  A    
O4    Zn2   S    
C49   H5    S    
C79   C85   A    
C21   H61   S    
C40   H4    S    
C9    H57   S    
N2    C138  S    
C37   C41   A    
C127  C135  S    
C98   C100  A    
C127  C131  D    
C39   C43   A    
O13   Zn9   S    
O32   Zn8   S    
C5    H53   S    
C13   C17   A    
C93   H27   S    
C67   O42   A    
C120  C124  A    
C33   H69   S    
C47   O23   A    
C75   O13   A    
C91   C95   A    
N3    C139  S    
O9    Zn10  S    
C105  H39   S    
C64   C130  S    
C115  H15   S    
C51   C55   A    
O7    Zn11  S    
C106  H40   S    
O47   Zn11  S    
C73   O7    A    
C37   H1    S    
C12   H60   S    
C38   H2    S    
C82   C117  S    
O41   Zn5   S    
C42   C72   S    
O12   Zn11  S    
C86   H24   S    
O3    Zn2   S    
C20   C24   A    
C123  H35   S    
C52   C56   A    
C94   C102  A    
O43   Zn7   S    
C67   O41   A    
C17   C21   A    
