data_mof_unit_61304.cif
_audit_creation_date              2012-12-10T18:13:21-0500
_audit_creation_method            fapswitch 2.2
_symmetry_space_group_name_H-M    P1
_symmetry_Int_Tables_number       1
_space_group_crystal_system       triclinic
_cell_length_a                    18.299382
_cell_length_b                    18.380559
_cell_length_c                    25.968511
_cell_angle_alpha                 90.000241
_cell_angle_beta                  90.000787
_cell_angle_gamma                 89.997754
_cell_volume                      8734.58321023

loop_
_atom_site_label
_atom_site_type_symbol
_atom_type_description
_atom_site_fract_x
_atom_site_fract_y
_atom_site_fract_z
_atom_type_partial_charge
C1    C     C_R   0.859000 0.139368 0.250428 0.832569
C2    C     C_R   0.817637 0.263521 0.270673 -0.237078
C3    C     C_R   0.235104 0.317672 0.270772 -0.159175
C4    C     C_R   0.182402 0.263484 0.729245 -0.237060
C5    C     C_R   0.182367 0.263519 0.270683 -0.237080
C6    C     C_R   0.317643 0.763526 0.229341 -0.237065
C7    C     C_R   0.317686 0.763567 0.770584 -0.237041
C8    C     C_R   0.682460 0.763428 0.229129 -0.237045
C9    C     C_R   0.682370 0.763516 0.770686 -0.237088
C10   C     C_R   0.801376 0.194284 0.749015 -0.096117
C11   C     C_R   0.801373 0.194282 0.250981 -0.096139
C12   C     C_R   0.198630 0.194281 0.749022 -0.096196
C13   C     C_R   0.859000 0.139368 0.749571 0.832609
C14   C     C_R   0.198626 0.194283 0.250980 -0.096156
C15   C     C_R   0.301374 0.694283 0.249018 -0.096139
C16   C     C_R   0.301376 0.694284 0.750986 -0.096110
C17   C     C_R   0.698635 0.694277 0.249026 -0.096252
C18   C     C_R   0.698626 0.694283 0.750980 -0.096157
C19   C     C_R   0.730394 0.179358 0.767873 0.394968
C20   C     C_R   0.730422 0.179390 0.232050 0.394966
C21   C     C_R   0.269549 0.179425 0.768039 0.394972
C22   C     C_R   0.269575 0.179395 0.232039 0.394984
C23   C     C_R   0.230418 0.679385 0.267934 0.394974
C24   C     C_R   0.141000 0.139369 0.250428 0.832548
C25   C     C_R   0.230382 0.679345 0.732151 0.394954
C26   C     C_R   0.769507 0.679474 0.268163 0.394948
C27   C     C_R   0.769572 0.679397 0.732034 0.394995
C28   C     C_R   0.178452 0.734326 0.268340 -0.215630
C29   C     C_R   0.178413 0.734286 0.731740 -0.215607
C30   C     C_R   0.821462 0.734416 0.268559 -0.215675
C31   C     C_R   0.821536 0.734337 0.731629 -0.215620
C32   C     C_R   0.678426 0.234299 0.768283 -0.215617
C33   C     C_R   0.678457 0.234331 0.231645 -0.215619
C34   C     C_R   0.321510 0.234366 0.768440 -0.215646
C35   C     C_R   0.141001 0.139369 0.749573 0.832500
C36   C     C_R   0.321538 0.234334 0.231633 -0.215619
C37   C     C_R   0.195424 0.803389 0.249247 -0.070776
C38   C     C_R   0.195425 0.803389 0.750754 -0.070723
C39   C     C_R   0.804578 0.803387 0.249246 -0.070824
C40   C     C_R   0.804575 0.803389 0.750752 -0.070808
C41   C     C_R   0.695425 0.303389 0.749247 -0.070750
C42   C     C_R   0.695424 0.303389 0.250753 -0.070740
C43   C     C_R   0.304576 0.303388 0.749247 -0.070822
C44   C     C_R   0.304575 0.303389 0.250752 -0.070792
C45   C     C_R   0.066346 0.999981 0.026705 -0.175055
C46   C     C_R   0.359000 0.639368 0.750430 0.832623
C47   C     C_R   0.066347 0.999981 0.973297 -0.175036
C48   C     C_R   0.933653 0.999978 0.026703 -0.175094
C49   C     C_R   0.933653 0.999978 0.973295 -0.175088
C50   C     C_R   0.566346 0.499981 0.526705 -0.175039
C51   C     C_R   0.566347 0.499981 0.473297 -0.175004
C52   C     C_R   0.433653 0.499978 0.526703 -0.175099
C53   C     C_R   0.433654 0.499978 0.473295 -0.175066
C54   C     C_R   0.000000 0.999977 0.946304 -0.001779
C55   C     C_R   1.000000 0.999977 0.053696 -0.001775
C56   C     C_R   0.500000 0.499977 0.446304 -0.001803
C57   C     C_R   0.359000 0.639368 0.249572 0.832588
C58   C     C_R   0.500000 0.499977 0.553696 -0.001778
C59   C     C_R   0.140085 0.859987 0.249887 0.817656
C60   C     C_R   0.140086 0.859987 0.750113 0.817574
C61   C     C_R   0.859915 0.859986 0.249886 0.817791
C62   C     C_R   0.859914 0.859986 0.750113 0.817724
C63   C     C_R   0.640085 0.359987 0.749887 0.817617
C64   C     C_R   0.640085 0.359987 0.250113 0.817564
C65   C     C_R   0.359915 0.359986 0.749887 0.817778
C66   C     C_R   0.359914 0.359986 0.250113 0.817694
C67   C     C_R   1.000000 0.999977 0.109801 0.783780
C68   C     C_R   0.641000 0.639369 0.750428 0.832536
C69   C     C_R   0.000000 0.999977 0.890199 0.783789
C70   C     C_R   0.500000 0.499976 0.609801 0.783785
C71   C     C_R   0.500000 0.499976 0.390199 0.783809
C72   C     C_R   1.000000 0.999953 0.389838 0.810861
C73   C     C_R   0.000000 0.999953 0.610162 0.810848
C74   C     C_R   0.500000 0.499953 0.889838 0.810862
C75   C     C_R   0.500000 0.499953 0.110162 0.810822
C76   C     C_R   0.000000 0.062822 0.474044 0.126620
C77   C     C_R   0.000000 0.062822 0.525957 0.126622
C78   C     C_R   0.500002 0.562822 0.974044 0.126621
C79   C     C_R   0.641002 0.639369 0.249575 0.832432
C80   C     C_R   0.500002 0.562822 0.025957 0.126628
C81   C     C_R   1.000000 0.999064 0.445465 -0.081289
C82   C     C_R   1.000000 0.999064 0.554535 -0.081287
C83   C     C_R   0.500000 0.499064 0.945465 -0.081290
C84   C     C_R   0.500000 0.499063 0.054534 -0.081286
C85   C     C_R   0.999999 0.932736 0.472950 -0.207840
C86   C     C_R   0.999999 0.932736 0.527049 -0.207844
C87   C     C_R   0.499997 0.432736 0.972950 -0.207849
C88   C     C_R   0.499997 0.432736 0.027049 -0.207860
C89   C     C_3   0.000001 0.143680 0.529663 -0.457902
C90   C     C_R   0.817672 0.263555 0.729395 -0.237051
C91   C     C_3   0.000001 0.143680 0.470338 -0.457900
C92   C     C_3   0.500006 0.643680 0.029663 -0.457940
C93   C     C_3   0.500007 0.643680 0.970338 -0.457890
C94   C     C_R   0.264904 0.817681 0.229252 -0.159185
C95   C     C_R   0.264946 0.817721 0.770672 -0.159206
C96   C     C_R   0.735194 0.817582 0.229038 -0.159197
C97   C     C_R   0.735107 0.817669 0.770775 -0.159144
C98   C     C_R   0.764933 0.317709 0.729308 -0.159173
C99   C     C_R   0.764899 0.317675 0.270762 -0.159282
C100  C     C_R   0.235138 0.317637 0.729155 -0.159135
Cl1   Cl    Cl    0.701680 0.092753 0.789191 -0.588711
Cl2   Cl    Cl    0.701735 0.092830 0.210623 -0.588587
Cl3   Cl    Cl    0.298212 0.092911 0.789591 -0.588563
Cl4   Cl    Cl    0.298261 0.092838 0.210598 -0.588612
Cl5   Cl    Cl    0.201728 0.592818 0.289339 -0.588678
Cl6   Cl    Cl    0.201655 0.592723 0.710868 -0.588694
Cl7   Cl    Cl    0.798131 0.593027 0.289891 -0.588418
Cl8   Cl    Cl    0.798255 0.592845 0.710587 -0.588612
H1    H     H_    0.999999 0.881028 0.452959 0.188099
H2    H     H_    0.448640 0.665064 0.953221 0.213753
H3    H     H_    0.551376 0.665054 0.046780 0.213693
H4    H     H_    0.551376 0.665054 0.953222 0.213713
H5    H     H_    0.278787 0.870945 0.214304 0.196815
H6    H     H_    0.278859 0.871018 0.785555 0.196776
H7    H     H_    0.721376 0.870770 0.213912 0.196819
H8    H     H_    0.721232 0.870923 0.785747 0.196832
H9    H     H_    0.778836 0.370996 0.714406 0.196806
H10   H     H_    0.778778 0.370934 0.285723 0.196755
H11   H     H_    0.221283 0.370868 0.714126 0.196845
H12   H     H_    0.999999 0.881028 0.547040 0.188099
H13   H     H_    0.221227 0.370928 0.285740 0.196810
H14   H     H_    0.871571 0.276234 0.714651 0.185443
H15   H     H_    0.871509 0.276175 0.285476 0.185464
H16   H     H_    0.128559 0.276114 0.714373 0.185507
H17   H     H_    0.128499 0.276172 0.285494 0.185466
H18   H     H_    0.371518 0.776185 0.214549 0.185478
H19   H     H_    0.371594 0.776255 0.785311 0.185417
H20   H     H_    0.628659 0.776021 0.214161 0.185555
H21   H     H_    0.628504 0.776167 0.785502 0.185473
H22   H     H_    0.124174 0.722551 0.282815 0.196270
H23   H     H_    0.499994 0.381028 0.952959 0.188097
H24   H     H_    0.124102 0.722481 0.717330 0.196213
H25   H     H_    0.875668 0.722707 0.283209 0.196417
H26   H     H_    0.875804 0.722569 0.717131 0.196286
H27   H     H_    0.624125 0.222503 0.782711 0.196228
H28   H     H_    0.624182 0.222560 0.217159 0.196278
H29   H     H_    0.375756 0.222620 0.782995 0.196334
H30   H     H_    0.375810 0.222564 0.217139 0.196283
H31   H     H_    0.118235 0.999984 0.046773 0.176638
H32   H     H_    0.118236 0.999984 0.953230 0.176659
H33   H     H_    0.881764 0.999980 0.046770 0.176604
H34   H     H_    0.499995 0.381028 0.047040 0.188096
H35   H     H_    0.881764 0.999980 0.953227 0.176599
H36   H     H_    0.618235 0.499985 0.546773 0.176651
H37   H     H_    0.618236 0.499985 0.453230 0.176692
H38   H     H_    0.381764 0.499980 0.546770 0.176589
H39   H     H_    0.381764 0.499980 0.453227 0.176616
H40   H     H_    0.948633 0.165061 0.546779 0.213751
H41   H     H_    0.948633 0.165061 0.453221 0.213744
H42   H     H_    0.051369 0.165056 0.546780 0.213712
H43   H     H_    0.051369 0.165056 0.453222 0.213722
H44   H     H_    0.448639 0.665063 0.046779 0.213745
O1    O     O_3   0.000000 0.000010 0.249960 -0.500545
O2    O     O_R   0.414520 0.646190 0.219700 -0.657169
O3    O     O_R   0.585480 0.646190 0.780300 -0.657204
O4    O     O_R   0.585480 0.646190 0.219700 -0.657239
O5    O     O_R   0.085460 0.853840 0.280340 -0.646337
O6    O     O_R   0.085460 0.853840 0.719660 -0.646316
O7    O     O_R   0.914540 0.853840 0.280340 -0.646404
O8    O     O_R   0.914540 0.853840 0.719660 -0.646342
O9    O     O_R   0.585460 0.353840 0.780340 -0.646325
O10   O     O_R   0.585460 0.353840 0.219660 -0.646346
O11   O     O_R   0.414540 0.353840 0.780340 -0.646368
O12   O     O_3   1.000000 0.000010 0.750040 -0.500557
O13   O     O_R   0.414540 0.353840 0.219660 -0.646337
O14   O     O_R   0.853820 0.914550 0.219610 -0.627010
O15   O     O_R   0.853820 0.914550 0.780390 -0.626941
O16   O     O_R   0.146180 0.914550 0.219610 -0.626949
O17   O     O_R   0.146180 0.914550 0.780390 -0.626936
O18   O     O_R   0.353820 0.414550 0.719610 -0.626958
O19   O     O_R   0.353820 0.414550 0.280390 -0.626948
O20   O     O_R   0.646180 0.414550 0.719610 -0.626930
O21   O     O_R   0.646180 0.414550 0.280390 -0.626981
O22   O     O_R   0.146170 0.085440 0.219600 -0.583639
O23   O     O_3   0.500000 0.500010 0.749960 -0.500552
O24   O     O_R   0.146170 0.085440 0.780400 -0.583611
O25   O     O_R   0.853830 0.085440 0.219600 -0.583645
O26   O     O_R   0.853830 0.085440 0.780400 -0.583680
O27   O     O_R   0.646170 0.585440 0.719600 -0.583634
O28   O     O_R   0.646170 0.585440 0.280400 -0.583559
O29   O     O_R   0.353830 0.585440 0.719600 -0.583697
O30   O     O_R   0.353830 0.585440 0.280400 -0.583646
O31   O     O_R   0.939270 0.999980 0.134160 -0.641870
O32   O     O_R   0.939270 0.999980 0.865840 -0.641884
O33   O     O_R   0.060730 0.999980 0.134160 -0.641833
O34   O     O_3   0.500000 0.500010 0.250040 -0.500556
O35   O     O_R   0.060730 0.999980 0.865840 -0.641793
O36   O     O_R   0.439270 0.499980 0.634160 -0.641901
O37   O     O_R   0.439270 0.499980 0.365840 -0.641859
O38   O     O_R   0.560730 0.499980 0.634160 -0.641820
O39   O     O_R   0.560730 0.499980 0.365840 -0.641748
O40   O     O_R   0.000000 0.060760 0.365760 -0.641735
O41   O     O_R   0.000000 0.060760 0.634240 -0.641738
O42   O     O_R   0.500000 0.560760 0.865760 -0.641730
O43   O     O_R   0.500000 0.560760 0.134240 -0.641756
O44   O     O_R   0.000000 0.939310 0.365770 -0.643361
O45   O     O_R   0.914520 0.146190 0.280300 -0.657186
O46   O     O_R   0.000000 0.939310 0.634230 -0.643358
O47   O     O_R   0.500000 0.439310 0.865770 -0.643359
O48   O     O_R   0.500000 0.439310 0.134230 -0.643364
O49   O     O_R   0.914520 0.146190 0.719700 -0.657160
O50   O     O_R   0.085480 0.146190 0.280300 -0.657194
O51   O     O_R   0.085480 0.146190 0.719700 -0.657214
O52   O     O_R   0.414520 0.646190 0.780300 -0.657159
Zn1   Zn    Zn3+2 1.000000 0.913260 0.293350 0.982903
Zn2   Zn    Zn3+2 0.413230 0.500000 0.293420 1.020097
Zn3   Zn    Zn3+2 0.586770 0.500000 0.706580 1.020090
Zn4   Zn    Zn3+2 0.586770 0.500000 0.293420 1.020143
Zn5   Zn    Zn3+2 1.000000 0.086780 0.293330 0.970726
Zn6   Zn    Zn3+2 1.000000 0.086780 0.706670 0.970716
Zn7   Zn    Zn3+2 0.500000 0.586780 0.793330 0.970741
Zn8   Zn    Zn3+2 0.500000 0.586780 0.206670 0.970667
Zn9   Zn    Zn3+2 1.000000 0.913260 0.706650 0.982908
Zn10  Zn    Zn3+2 0.500000 0.413260 0.793350 0.982919
Zn11  Zn    Zn3+2 0.500000 0.413260 0.206650 0.982866
Zn12  Zn    Zn3+2 0.913230 0.000000 0.206580 1.020056
Zn13  Zn    Zn3+2 0.913230 0.000000 0.793420 1.020064
Zn14  Zn    Zn3+2 0.086770 0.000000 0.206580 1.020083
Zn15  Zn    Zn3+2 0.086770 0.000000 0.793420 1.020109
Zn16  Zn    Zn3+2 0.413230 0.500000 0.706580 1.020046

loop_
_geom_bond_atom_site_label_1
_geom_bond_atom_site_label_2
_ccdc_geom_bond_type
O12   Zn13  S    
C89   H40   S    
C83   C87   A    
O9    Zn10  S    
C74   O42   A    
C73   O41   A    
O4    Zn8   S    
O47   Zn10  S    
C90   H14   S    
O23   Zn16  S    
O49   Zn6   S    
O26   Zn13  S    
C44   C66   S    
C7    H19   S    
C1    C11   S    
C60   O17   A    
C17   C79   S    
C74   C83   S    
C80   C84   A    
C68   O3    A    
C24   O22   A    
O41   Zn6   S    
C22   Cl4   S    
O35   Zn15  S    
C75   O48   A    
O6    Zn9   S    
C77   C89   S    
C48   H33   S    
C43   C100  A    
O32   Zn13  S    
C17   C26   A    
C28   C37   A    
C46   O29   A    
C74   O47   A    
C60   O6    A    
C61   O14   A    
O34   Zn8   S    
C61   O7    A    
C85   C86   A    
O11   Zn10  S    
C78   C80   A    
C75   C84   S    
C29   H24   S    
C20   Cl2   S    
C51   H37   S    
C95   H6    S    
C87   H23   S    
C13   O26   A    
C23   Cl5   S    
C53   H39   S    
O48   Zn11  S    
C40   C62   S    
C31   C40   A    
C4    H16   S    
C51   C56   A    
C14   C24   S    
O44   Zn1   S    
O14   Zn12  S    
O2    Zn8   S    
C79   O4    A    
C1    O25   A    
C78   C83   A    
C8    H20   S    
C45   H31   S    
C59   O5    A    
O12   Zn6   S    
C6    C94   A    
O24   Zn15  S    
C8    C96   A    
C47   H32   S    
C92   H44   S    
C26   Cl7   S    
C9    C97   A    
C32   C41   A    
O51   Zn6   S    
O22   Zn14  S    
O23   Zn3   S    
C4    C12   A    
C69   O35   A    
C28   H22   S    
C72   C81   S    
C70   O36   A    
C93   H2    S    
O15   Zn13  S    
C56   C71   S    
O37   Zn2   S    
C15   C23   A    
C62   O15   A    
C6    C15   A    
C48   C55   A    
O34   Zn11  S    
C27   Cl8   S    
C15   C57   S    
O25   Zn12  S    
C31   H26   S    
C19   C32   A    
C88   H34   S    
C57   O30   A    
C94   H5    S    
C50   H36   S    
C25   Cl6   S    
O7    Zn1   S    
O36   Zn16  S    
O18   Zn16  S    
O10   Zn11  S    
C45   C47   A    
C25   C29   A    
C39   C61   S    
O27   Zn3   S    
C11   C20   A    
O33   Zn14  S    
O34   Zn2   S    
C27   C31   A    
C50   C58   A    
O23   Zn10  S    
C66   O19   A    
C29   C38   A    
O5    Zn1   S    
C76   C77   A    
C6    H18   S    
C64   O10   A    
C16   C46   S    
C40   C97   A    
C91   H41   S    
C58   C70   S    
C21   C34   A    
C76   C91   S    
C82   C86   A    
C52   C58   A    
C12   C21   A    
O30   Zn2   S    
C80   C92   S    
C9    C18   A    
C10   C19   A    
C43   C65   S    
C30   H25   S    
C24   O50   A    
C73   O46   A    
C65   O11   A    
O29   Zn16  S    
C50   C51   A    
C5    C14   A    
C96   H7    S    
C100  H11   S    
C23   C28   A    
C71   O37   A    
C12   C35   S    
C10   C90   A    
O1    Zn14  S    
C37   C59   S    
C67   O31   A    
C47   C54   A    
C38   C60   S    
C20   C33   A    
O12   Zn15  S    
C7    C16   A    
C38   C95   A    
C2    C99   A    
C26   C30   A    
O23   Zn7   S    
C3    C44   A    
C4    C100  A    
O1    Zn5   S    
O1    Zn1   S    
C36   C44   A    
C89   C91   S    
C86   H12   S    
C35   O24   A    
O50   Zn5   S    
C42   C64   S    
C73   C82   S    
C7    C95   A    
C52   C53   A    
C70   O38   A    
C98   H9    S    
O13   Zn11  S    
C53   C56   A    
C16   C25   A    
C63   O9    A    
C33   C42   A    
C89   H42   S    
C52   H38   S    
C34   H29   S    
C66   O13   A    
O17   Zn15  S    
C79   O28   A    
O20   Zn3   S    
C1    O45   A    
C18   C27   A    
C84   C88   A    
C3    C5    A    
C10   C13   S    
C76   C81   A    
C72   O44   A    
C32   H27   S    
C55   C67   S    
C92   H3    S    
C9    H21   S    
O12   Zn9   S    
C22   C36   A    
C57   O2    A    
C68   O27   A    
C85   H1    S    
C8    C17   A    
O34   Zn4   S    
C65   O18   A    
C71   O39   A    
C14   C22   A    
O3    Zn7   S    
O43   Zn8   S    
O42   Zn7   S    
C42   C99   A    
O31   Zn12  S    
C99   H10   S    
C91   H43   S    
C19   Cl1   S    
C33   H28   S    
C35   O51   A    
C63   O20   A    
C54   C69   S    
C36   H30   S    
C77   C82   A    
C48   C49   A    
O8    Zn9   S    
C49   H35   S    
O52   Zn7   S    
C46   O52   A    
C92   C93   S    
C13   O49   A    
C37   C94   A    
C97   H8    S    
O21   Zn4   S    
C62   O8    A    
O39   Zn4   S    
C81   C85   A    
C39   C96   A    
O45   Zn5   S    
C93   H4    S    
C3    H13   S    
C21   Cl3   S    
C67   O33   A    
O38   Zn3   S    
O40   Zn5   S    
C45   C55   A    
C87   C88   A    
C69   O32   A    
C5    H17   S    
C72   O40   A    
O19   Zn2   S    
C41   C63   S    
C41   C98   A    
C2    C11   A    
C78   C93   S    
O16   Zn14  S    
C64   O21   A    
O28   Zn4   S    
O46   Zn9   S    
C18   C68   S    
C34   C43   A    
C90   C98   A    
O1    Zn12  S    
C2    H15   S    
C59   O16   A    
C49   C54   A    
C30   C39   A    
C75   O43   A    
