data_mof_unit_32051.cif
_audit_creation_date              2012-12-10T17:23:09-0500
_audit_creation_method            fapswitch 2.2
_symmetry_space_group_name_H-M    P1
_symmetry_Int_Tables_number       1
_space_group_crystal_system       triclinic
_cell_length_a                    15.848057
_cell_length_b                    10.854124
_cell_length_c                    9.624661
_cell_angle_alpha                 88.25951
_cell_angle_beta                  90.557556
_cell_angle_gamma                 93.244382
_cell_volume                      1652.13374826

loop_
_atom_site_label
_atom_site_type_symbol
_atom_type_description
_atom_site_fract_x
_atom_site_fract_y
_atom_site_fract_z
_atom_type_partial_charge
C1    C     C_R   0.500143 0.261723 0.503304 0.819206
C2    C     C_3   0.082738 0.503100 0.498439 0.172146
C3    C     C_3   0.976488 0.592452 0.582579 -0.136494
C4    C     C_3   0.917425 0.503853 0.500487 0.168416
C5    C     C_3   0.032185 0.613785 0.451722 -0.148617
C6    C     C_3   0.971537 0.525206 0.369632 -0.141036
C7    C     C_1   0.174511 0.502000 0.497861 -0.043914
C8    C     C_1   0.825623 0.503407 0.501414 -0.028298
C9    C     C_R   0.457580 0.097686 0.764184 -0.236072
C10   C     C_R   0.419313 0.022572 0.870250 0.014545
C11   C     C_R   0.385239 0.905553 0.838635 -0.177103
C12   C     C_R   0.339951 0.499747 0.499407 0.817355
C13   C     C_R   0.400034 0.857599 0.709859 -0.182356
C14   C     C_R   0.449912 0.925700 0.610272 0.097369
C15   C     C_R   0.468327 0.052858 0.628459 0.083403
C16   C     C_R   0.498826 0.126119 0.510940 -0.120772
C17   C     C_R   0.522823 0.067719 0.390628 -0.158494
C18   C     C_R   0.518292 0.940569 0.384644 -0.155488
C19   C     C_R   0.483862 0.868946 0.495014 -0.104597
C20   C     C_R   0.615782 0.659564 0.140301 -0.200908
C21   C     C_R   0.676240 0.735132 0.068784 -0.108577
C22   C     C_R   0.676482 0.735613 0.923117 -0.079529
C23   C     C_R   0.494133 0.736420 0.497979 0.800346
C24   C     C_R   0.617764 0.657496 0.853963 -0.135063
C25   C     C_R   0.558719 0.576040 0.924236 0.169514
C26   C     C_R   0.558338 0.576445 0.073080 0.165239
C27   C     C_R   0.439241 0.435076 0.073025 0.109869
C28   C     C_R   0.441367 0.433279 0.925764 -0.072650
C29   C     C_R   0.660053 0.500906 0.500550 0.827686
C30   C     C_3   0.968006 0.393229 0.547181 -0.162624
C31   C     C_3   0.023634 0.414553 0.416340 -0.147753
C32   C     C_1   0.250137 0.500873 0.498143 -0.150596
C33   C     C_1   0.749934 0.502384 0.501539 -0.116388
C34   C     C_3   0.028595 0.481795 0.629273 -0.159305
Cu1   Cu    Cu3+1 0.499990 0.499990 0.640660 0.944968
Cu2   Cu    Cu3+1 0.500010 0.500010 0.359340 0.987331
H1    H     H_    0.044327 0.341545 0.348076 0.148312
H2    H     H_    0.351523 0.847876 0.915978 0.186375
H3    H     H_    0.373768 0.765509 0.690287 0.164623
H4    H     H_    0.543057 0.898248 0.294216 0.189452
H5    H     H_    0.615634 0.669922 0.249357 0.226807
H6    H     H_    0.618631 0.667158 0.744300 0.238274
H7    H     H_    0.393281 0.379530 0.869691 0.146289
H8    H     H_    0.940324 0.302710 0.586434 0.147872
H9    H     H_    0.946709 0.543120 0.263101 0.155523
H10   H     H_    0.059877 0.704293 0.412461 0.146537
H11   H     H_    0.955718 0.665441 0.650811 0.163231
H12   H     H_    0.053359 0.463968 0.735855 0.151176
H13   H     H_    0.548142 0.120608 0.301747 0.209430
H14   H     H_    0.483025 0.186470 0.794726 0.201593
N1    N     N_R   0.500800 0.501210 0.147910 -0.234250
N2    N     N_R   0.500830 0.501290 0.852040 -0.209224
O1    O     O_R   0.499990 0.319640 0.618810 -0.602769
O2    O     O_R   0.500000 0.319660 0.381240 -0.520545
O3    O     O_R   0.379070 0.499980 0.618770 -0.588543
O4    O     O_R   0.379080 0.500000 0.381190 -0.560858
O5    O     O_R   0.500000 0.680340 0.618760 -0.605292
O6    O     O_R   0.500010 0.680360 0.381190 -0.603747
O7    O     O_R   0.620920 0.500000 0.618810 -0.587916
O8    O     O_R   0.620930 0.500020 0.381230 -0.596622
C35   C     C_2   0.362306 0.376882 0.138264 0.904043
O9    O     O_2   0.293243 0.411643 0.101577 -0.628126
O10   O     O_R   0.366859 0.279757 0.235666 -0.719735
H15   H     H_    0.309251 0.248440 0.270923 0.312648
C36   C     C_2   0.739290 0.810140 0.150573 0.815461
O11   O     O_2   0.718095 0.857337 0.257700 -0.595998
O12   O     O_R   0.823680 0.822427 0.108745 -0.776903
H16   H     H_    0.860506 0.873972 0.174215 0.338829
C37   C     C_2   0.733142 0.823246 0.840400 0.408805
H17   H     H_    0.764530 0.902794 0.888009 0.111196
O13   O     O_2   0.744680 0.808527 0.716832 -0.549330
C38   C     C_2   0.417747 0.063530 0.015399 0.829879
O14   O     O_2   0.464653 0.150088 0.051704 -0.613660
O15   O     O_R   0.364931 0.000156 0.112460 -0.766753
H18   H     H_    0.371107 0.034387 0.209015 0.353160

loop_
_geom_bond_atom_site_label_1
_geom_bond_atom_site_label_2
_ccdc_geom_bond_type
C23   O6    A    
C6    H9    S    
Cu1   O1    S    
C24   H6    S    
C2    C7    S    
C4    C8    S    
C20   H5    S    
Cu2   O6    S    
C5    C6    S    
C15   C16   A    
C29   C33   S    
Cu1   O7    S    
C18   C19   A    
C37   O13   D    
C18   H4    S    
C1    O1    A    
C27   C35   S    
C29   O7    A    
C16   C17   A    
C36   O12   S    
C9    C10   A    
C22   C37   S    
C2    C34   S    
C6    C31   S    
C13   C14   A    
C12   C32   S    
C30   H8    S    
C37   H17   S    
C27   N1    A    
O15   H18   S    
C30   C34   S    
Cu1   O3    S    
O12   H16   S    
C24   C25   A    
C38   O15   S    
C17   H13   S    
C3    C34   S    
Cu2   O8    S    
C25   C26   A    
C31   H1    S    
C2    C31   S    
Cu1   Cu2   S    
C11   H2    S    
C19   C23   S    
C1    O2    A    
Cu2   O4    S    
C29   O8    A    
C35   O10   S    
C17   C18   A    
C1    C16   S    
C12   O4    A    
Cu2   N1    S    
C4    C6    S    
C22   C24   A    
C2    C5    S    
C34   H12   S    
C3    C4    S    
Cu1   N2    S    
C23   O5    A    
C7    C32   T    
C21   C36   S    
C14   C19   A    
C9    H14   S    
C38   O14   D    
C3    C5    S    
C28   N2    A    
C5    H10   S    
C28   H7    S    
Cu1   O5    S    
C9    C15   A    
C25   N2    A    
C26   N1    A    
C11   C13   A    
C30   C31   S    
C20   C26   A    
C3    H11   S    
C8    C33   T    
C35   O9    D    
C13   H3    S    
C12   O3    A    
Cu2   O2    S    
C10   C11   A    
O10   H15   S    
C20   C21   A    
C36   O11   D    
C27   C28   A    
C14   C15   A    
C21   C22   A    
C4    C30   S    
C10   C38   S    
