data_mof_unit_28799.cif
_audit_creation_date              2013-03-05T16:35:41-0500
_audit_creation_method            fapswitch 2.2
_symmetry_space_group_name_H-M    P1
_symmetry_Int_Tables_number       1
_space_group_crystal_system       triclinic
_cell_length_a                    8.642231
_cell_length_b                    19.300024
_cell_length_c                    18.582473
_cell_angle_alpha                 89.757317
_cell_angle_beta                  98.279657
_cell_angle_gamma                 92.189715
_cell_volume                      3064.92051802

loop_
_atom_site_label
_atom_site_type_symbol
_atom_site_description
_atom_site_fract_x
_atom_site_fract_y
_atom_site_fract_z
_atom_type_partial_charge
O1    O     O_R   0.500010 0.398180 0.560840 -0.643314
O2    O     O_R   0.499990 0.601820 0.439160 -0.643310
O3    O     O_R   0.499930 0.398180 0.439210 -0.625266
O4    O     O_R   0.500070 0.601820 0.560790 -0.625282
C1    C     C_R   0.503900 0.366079 0.500416 0.844236
C2    C     C_R   0.496098 0.633921 0.499584 0.844235
O5    O     O_R   0.271780 0.500000 0.546590 -0.562527
O6    O     O_R   0.728220 0.500000 0.453410 -0.562496
O7    O     O_R   0.271710 0.499990 0.424960 -0.631327
O8    O     O_R   0.728290 0.500010 0.575040 -0.631346
C3    C     C_R   0.201598 0.498276 0.481373 0.865940
C4    C     C_R   0.798402 0.501723 0.518627 0.865941
Zn1   Zn    Zn3+2 0.500050 0.500000 0.581210 0.993459
Zn2   Zn    Zn3+2 0.499950 0.500000 0.418790 0.993473
C5    C     C_2   0.037041 0.488228 0.473208 0.211698
C6    C     C_2   0.962959 0.511772 0.526791 0.211682
C7    C     C_R   0.579237 0.746034 0.454198 -0.214327
C8    C     C_R   0.420783 0.253965 0.545803 -0.214337
H1    H     H_    0.650517 0.719663 0.420248 0.176149
H2    H     H_    0.349495 0.280334 0.579751 0.176163
C9    C     C_R   0.582125 0.817761 0.454491 -0.153342
C10   C     C_R   0.417917 0.182239 0.545515 -0.153343
H3    H     H_    0.652750 0.846019 0.419663 0.156168
H4    H     H_    0.347298 0.153979 0.580342 0.156176
C11   C     C_R   0.493996 0.852680 0.499323 0.008660
C12   C     C_R   0.506056 0.147321 0.500687 0.008653
C13   C     C_R   0.401271 0.815648 0.543229 -0.156854
C14   C     C_R   0.598772 0.184355 0.456780 -0.156856
H5    H     H_    0.332439 0.842747 0.577742 0.163356
H6    H     H_    0.667609 0.157258 0.422268 0.163352
C15   C     C_R   0.394308 0.743691 0.542264 0.450738
C16   C     C_R   0.605712 0.256312 0.457741 0.450745
C17   C     C_R   0.487963 0.708667 0.498549 -0.141199
C18   C     C_R   0.512047 0.291334 0.501452 -0.141188
C19   C     C_R   0.356527 0.962838 0.493944 -0.175360
C20   C     C_R   0.643531 0.037163 0.506065 -0.175357
H7    H     H_    0.244801 0.934456 0.488317 0.139642
H8    H     H_    0.755256 0.065545 0.511691 0.139642
C21   C     C_R   0.359447 0.034657 0.494327 -0.166249
C22   C     C_R   0.640610 0.965344 0.505683 -0.166249
H9    H     H_    0.250009 0.061102 0.489031 0.140462
H10   H     H_    0.750048 0.938899 0.510979 0.140464
C23   C     C_R   0.502945 0.071964 0.500352 0.132082
C24   C     C_R   0.497112 0.928037 0.499657 0.132080
C25   C     C_R   0.613317 0.536490 0.735672 0.534085
C26   C     C_R   0.386672 0.463518 0.264327 0.534087
C27   C     C_R   0.612527 0.535856 0.811204 -0.247712
C28   C     C_R   0.387461 0.464153 0.188795 -0.247711
H11   H     H_    0.705681 0.563590 0.846084 0.212545
H12   H     H_    0.294298 0.436426 0.153915 0.212554
C29   C     C_R   0.493081 0.500929 0.841794 -0.195927
C30   C     C_R   0.506921 0.499072 0.158208 -0.195931
C31   C     C_R   0.373695 0.465985 0.794253 0.236494
C32   C     C_R   0.626323 0.534006 0.205749 0.236453
C33   C     C_R   0.381850 0.464382 0.718626 0.441258
C34   C     C_R   0.618163 0.535610 0.281376 0.441262
N1    N     N_R   0.500020 0.499980 0.689440 -0.220273
N2    N     N_R   0.499980 0.500020 0.310560 -0.220270
C35   C     C_R   0.480572 0.437811 0.960988 -0.085227
C36   C     C_R   0.519434 0.562189 0.039015 -0.085255
H13   H     H_    0.466916 0.388947 0.931924 0.159889
H14   H     H_    0.533095 0.611053 0.068079 0.159857
C37   C     C_R   0.482588 0.437481 0.036792 -0.146281
C38   C     C_R   0.517416 0.562519 0.963210 -0.146295
H15   H     H_    0.470347 0.388412 0.064275 0.155819
H16   H     H_    0.529656 0.611588 0.935728 0.155815
C39   C     C_R   0.503051 0.499614 0.076995 0.197507
C40   C     C_R   0.496951 0.500386 0.923007 0.197491
O9    O     O_3   0.959198 0.449325 0.415327 -0.734523
H17   H     H_    0.035650 0.431673 0.385610 0.371700
O10   O     O_3   0.040802 0.550674 0.584673 -0.734539
H18   H     H_    0.964350 0.568326 0.614390 0.371695
N3    N     N_R   0.241721 0.433260 0.821686 0.236129
O11   O     O_R   0.168473 0.466162 0.866767 -0.355207
O12   O     O_R   0.189410 0.371866 0.799099 -0.327874
N4    N     N_R   0.758317 0.566714 0.178316 0.236114
O13   O     O_R   0.810746 0.628080 0.200945 -0.327819
O14   O     O_R   0.831530 0.533804 0.133230 -0.355209
O15   O     O_3   0.263886 0.428317 0.675248 -0.678320
H19   H     H_    0.307729 0.410438 0.633455 0.363595
O16   O     O_3   0.736135 0.571666 0.324758 -0.678268
H20   H     H_    0.692275 0.589564 0.366540 0.363567
O17   O     O_3   0.293171 0.710276 0.583317 -0.731686
H21   H     H_    0.261991 0.664137 0.561793 0.362818
O18   O     O_3   0.706834 0.289731 0.416687 -0.731682
H22   H     H_    0.738035 0.335865 0.438220 0.362807
O19   O     O_3   0.731208 0.575194 0.710711 -0.733206
H23   H     H_    0.696820 0.586291 0.659445 0.371603
O20   O     O_3   0.268773 0.424818 0.289288 -0.733189
H24   H     H_    0.303175 0.413709 0.340550 0.371591

loop_
_geom_bond_atom_site_label_1
_geom_bond_atom_site_label_2
_geom_bond_distance
_ccdc_geom_bond_type
O19   H23   0.981499 S    
C37   H15   1.082900 S    
C13   H5    1.084064 S    
N3    O11   1.301401 A    
O16   H20   0.981245 S    
C34   O16   1.373826 S    
C27   H11   1.083715 S    
C26   O20   1.373391 S    
O18   H22   0.989556 S    
O5    C3    1.274665 A    
C25   N1    1.379651 A    
O1    C1    1.289980 A    
C38   C40   1.407390 A    
C19   H7    1.083648 S    
N4    O14   1.301375 A    
C28   C30   1.398469 A    
Zn1   N1    2.011219 S    
C5    C6    1.348133 D    
C15   O17   1.380802 S    
C36   H14   1.082798 S    
C25   C27   1.404564 A    
O4    Zn1   1.999846 S    
C20   C22   1.385396 A    
C3    C5    1.414262 S    
C4    C6    1.414262 S    
C36   C39   1.408962 A    
C14   H6    1.084063 S    
C15   C17   1.416950 A    
O7    C3    1.283853 A    
C28   H12   1.083715 S    
C26   N2    1.379644 A    
N3    O12   1.301221 A    
O2    C2    1.289984 A    
C6    O10   1.390331 S    
C7    C17   1.400103 A    
Zn2   N2    2.011219 S    
C11   C24   1.453645 S    
C30   C32   1.410383 A    
C12   C23   1.453644 S    
C32   C34   1.417742 A    
C31   C33   1.417727 A    
C9    H3    1.083600 S    
C5    O9    1.390330 S    
C37   C39   1.407385 A    
C35   H13   1.082798 S    
C13   C15   1.387864 A    
C14   C16   1.387868 A    
N4    O13   1.301228 A    
O4    C2    1.289583 A    
C21   C23   1.400493 A    
C7    C9    1.383614 A    
C29   C31   1.410377 A    
C38   H16   1.082899 S    
C19   C21   1.385390 A    
O7    Zn2   1.992239 S    
C35   C40   1.408965 A    
C33   O15   1.373831 S    
O17   H21   0.989548 S    
C22   C24   1.400493 A    
O6    C4    1.274665 A    
C1    C18   1.446903 S    
C19   C24   1.401131 A    
C30   C39   1.504682 S    
O3    Zn2   1.999850 S    
O8    C4    1.283853 A    
C32   N4    1.438526 S    
C33   N1    1.382707 A    
C10   H4    1.083574 S    
O1    Zn1   2.002805 S    
C9    C11   1.398218 A    
O6    Zn2   1.984978 S    
C25   O19   1.373392 S    
C8    C10   1.383612 A    
C12   C14   1.399351 A    
C31   N3    1.438510 S    
O3    C1    1.289583 A    
O8    Zn1   1.992239 S    
C27   C29   1.398467 A    
C11   C13   1.399385 A    
C35   C37   1.406224 A    
C2    C17   1.446910 S    
C36   C38   1.406227 A    
C20   H8    1.083645 S    
O10   H18   0.990676 S    
C8    C18   1.400062 A    
C16   O18   1.380763 S    
C22   H10   1.083678 S    
C7    H1    1.084045 S    
C34   N2    1.382702 A    
C8    H2    1.084039 S    
C29   C40   1.504689 S    
O9    H17   0.990677 S    
O2    Zn2   2.002801 S    
O15   H19   0.981222 S    
C26   C28   1.404559 A    
O5    Zn1   1.984978 S    
C21   H9    1.083680 S    
C10   C12   1.398214 A    
C20   C23   1.401132 A    
O20   H24   0.981507 S    
C16   C18   1.416944 A    
