data_mof_unit_13403.cif
_audit_creation_date              2013-03-05T16:09:18-0500
_audit_creation_method            fapswitch 2.2
_symmetry_space_group_name_H-M    P1
_symmetry_Int_Tables_number       1
_space_group_crystal_system       triclinic
_cell_length_a                    7.25855
_cell_length_b                    12.17453
_cell_length_c                    21.206152
_cell_angle_alpha                 90.000666
_cell_angle_beta                  90.495575
_cell_angle_gamma                 89.999121
_cell_volume                      1873.90556687

loop_
_atom_site_label
_atom_site_type_symbol
_atom_site_description
_atom_site_fract_x
_atom_site_fract_y
_atom_site_fract_z
_atom_type_partial_charge
O1    O     O_R   0.354460 0.152320 0.595720 -0.589342
O2    O     O_R   0.645540 0.847680 0.404280 -0.574160
O3    O     O_R   0.145540 0.652320 0.404280 -0.574275
O4    O     O_R   0.854460 0.347680 0.595720 -0.589311
O5    O     O_R   0.683670 0.140090 0.727290 -0.564215
O6    O     O_R   0.316330 0.859910 0.272710 -0.588020
O7    O     O_R   0.816330 0.640090 0.272710 -0.587883
O8    O     O_R   0.183670 0.359910 0.727290 -0.564260
O9    O     O_R   0.854010 0.349340 0.727750 -0.590149
O10   O     O_R   0.145990 0.650660 0.272250 -0.569287
O11   O     O_R   0.645990 0.849340 0.272250 -0.569214
O12   O     O_R   0.354010 0.150660 0.727750 -0.590186
C1    C     C_R   0.516332 0.111486 0.746494 1.000146
C2    C     C_R   0.483705 0.888277 0.253401 1.006648
C3    C     C_R   0.983706 0.611733 0.253396 1.005920
C4    C     C_R   0.016330 0.388513 0.746494 0.999946
O13   O     O_R   0.684170 0.139420 0.596190 -0.569424
O14   O     O_R   0.315830 0.860580 0.403810 -0.586337
O15   O     O_R   0.815830 0.639420 0.403810 -0.586264
O16   O     O_R   0.184170 0.360580 0.596190 -0.569474
C5    C     C_R   0.515176 0.113225 0.574521 0.978930
C6    C     C_R   0.484823 0.886758 0.425487 0.983544
C7    C     C_R   0.984824 0.613240 0.425486 0.983002
C8    C     C_R   0.015175 0.386775 0.574521 0.978765
O17   O     O_3   0.520730 0.319480 0.661730 -0.275104
O18   O     O_3   0.479270 0.680520 0.338270 -0.273716
O19   O     O_3   0.979270 0.819480 0.338270 -0.273712
O20   O     O_3   0.020730 0.180520 0.661730 -0.275101
V1    V     V_3+5 0.795560 0.238090 0.661730 1.274100
V2    V     V_3+5 0.204440 0.761910 0.338270 1.274265
V3    V     V_3+5 0.704440 0.738090 0.338270 1.274396
V4    V     V_3+5 0.295560 0.261910 0.661730 1.274057
C9    C     C_R   0.011586 0.469652 0.797377 -0.281024
C10   C     C_R   0.989558 0.530717 0.202506 -0.278655
C11   C     C_R   0.489565 0.969321 0.202524 -0.278613
C12   C     C_R   0.511599 0.030345 0.797378 -0.281012
C13   C     C_R   0.017388 0.658147 0.835979 0.315199
C14   C     C_R   0.999188 0.342197 0.164192 0.311780
C15   C     C_R   0.499107 0.157837 0.164198 0.311466
C16   C     C_R   0.517386 0.841855 0.835986 0.315102
C17   C     C_R   0.026317 0.582695 0.785261 0.295671
C18   C     C_R   0.004503 0.417754 0.214987 0.294621
C19   C     C_R   0.504349 0.082305 0.215011 0.294284
C20   C     C_R   0.526291 0.917295 0.785263 0.295610
C21   C     C_R   0.990636 0.431193 0.858588 -0.262885
C22   C     C_R   0.975723 0.569098 0.140941 -0.267709
C23   C     C_R   0.475872 0.930929 0.140955 -0.267906
C24   C     C_R   0.490698 0.068814 0.858591 -0.262929
C25   C     C_R   0.997763 0.502547 0.910782 0.108774
C26   C     C_R   0.988282 0.497623 0.089010 0.110226
C27   C     C_R   0.488361 0.002399 0.089021 0.110359
C28   C     C_R   0.497811 0.997465 0.910787 0.108807
C29   C     C_R   0.009302 0.617493 0.899002 -0.019089
C30   C     C_R   0.996399 0.382678 0.101044 -0.016271
C31   C     C_R   0.496388 0.117343 0.101052 -0.016208
C32   C     C_R   0.509338 0.882518 0.899009 -0.019081
C33   C     C_R   0.997610 0.462318 0.974292 0.104943
C34   C     C_R   0.996039 0.537742 0.025576 0.105437
C35   C     C_R   0.496124 0.962276 0.025585 0.105415
C36   C     C_R   0.497657 0.037697 0.974300 0.104936
C37   C     C_R   0.013782 0.650715 0.011968 -0.247204
C38   C     C_R   0.009994 0.349156 0.988236 -0.247840
C39   C     C_R   0.509969 0.150862 0.988244 -0.247836
C40   C     C_R   0.513874 0.849303 0.011975 -0.247187
C41   C     C_R   0.023642 0.688976 0.950577 -0.111519
C42   C     C_R   0.013119 0.310936 0.049762 -0.108209
C43   C     C_R   0.513059 0.189085 0.049770 -0.108283
C44   C     C_R   0.523699 0.811039 0.950584 -0.111530
H1    H     H_    0.048638 0.775765 0.944716 0.185136
H2    H     H_    0.034607 0.223879 0.056047 0.184694
H3    H     H_    0.534447 0.276152 0.056054 0.184714
H4    H     H_    0.548680 0.724248 0.944721 0.185133
H5    H     H_    0.954989 0.656227 0.135375 0.126994
H6    H     H_    0.970341 0.343991 0.863627 0.127847
H7    H     H_    0.470450 0.156021 0.863627 0.127827
H8    H     H_    0.455264 0.843791 0.135390 0.126963
H9    H     H_    0.029993 0.712477 0.047920 0.141376
H10   H     H_    0.026879 0.287000 0.952667 0.140979
H11   H     H_    0.526786 0.213023 0.952676 0.140982
H12   H     H_    0.530091 0.787540 0.047926 0.141371
C45   C     C_1   0.995304 0.533173 0.478057 -0.140825
C46   C     C_1   0.004713 0.466843 0.521951 -0.142700
C47   C     C_1   0.504714 0.033156 0.521951 -0.142718
C48   C     C_1   0.495302 0.966825 0.478058 -0.140766
N1    N     N_R   0.023115 0.380501 0.279127 0.251771
O21   O     O_R   0.908863 0.308983 0.302183 -0.257554
O22   O     O_R   0.152750 0.420066 0.315289 -0.359992
N2    N     N_R   0.045849 0.620414 0.721415 0.249655
O23   O     O_R   0.926454 0.687998 0.696831 -0.261586
O24   O     O_R   0.182018 0.585819 0.687215 -0.347343
N3    N     N_R   0.545738 0.879553 0.721413 0.249726
O25   O     O_R   0.426519 0.811779 0.696899 -0.261282
O26   O     O_R   0.681575 0.914367 0.687124 -0.347796
N4    N     N_R   0.522614 0.119615 0.279163 0.251982
O27   O     O_R   0.409100 0.191812 0.301976 -0.256613
O28   O     O_R   0.651090 0.079408 0.315599 -0.361466
N5    N     N_R   0.024970 0.774695 0.823447 0.246157
O29   O     O_R   0.133020 0.813451 0.780314 -0.317659
O30   O     O_R   0.913517 0.842121 0.851414 -0.448488
N6    N     N_R   0.005910 0.225714 0.176799 0.245940
O31   O     O_R   0.114546 0.186653 0.220284 -0.318413
O32   O     O_R   0.894465 0.158512 0.148013 -0.448870
N7    N     N_R   0.505955 0.274319 0.176785 0.246097
O33   O     O_R   0.615042 0.313384 0.220137 -0.318398
O34   O     O_R   0.394424 0.341540 0.148053 -0.448857
N8    N     N_R   0.524985 0.725306 0.823463 0.246190
O35   O     O_R   0.633115 0.686539 0.780356 -0.317670
O36   O     O_R   0.413510 0.657886 0.851421 -0.448464

loop_
_geom_bond_atom_site_label_1
_geom_bond_atom_site_label_2
_geom_bond_distance
_ccdc_geom_bond_type
O1    C5    1.341102 A    
C9    C21   1.389498 A    
O3    C7    1.341107 A    
C10   C18   1.404530 A    
C11   C23   1.389518 A    
C13   N5    1.444719 S    
N5    O29   1.298778 A    
C25   C33   1.433123 A    
C33   C38   1.411769 A    
C39   H11   1.076170 S    
N1    O21   1.300762 A    
C35   C40   1.411468 A    
C26   C30   1.423607 A    
C36   C39   1.411766 A    
C40   C44   1.385128 A    
O20   V1    1.778342 S    
O9    C4    1.328728 A    
C23   H8    1.077704 S    
C14   C18   1.416773 A    
O10   C3    1.328107 A    
O4    C8    1.341112 A    
O11   C2    1.328123 A    
C25   C29   1.424139 A    
C43   H3    1.079392 S    
N3    O26   1.301128 A    
N8    O35   1.298779 A    
C19   N4    1.439282 S    
O13   V1    2.002245 S    
C8    C46   1.482350 S    
C28   C36   1.433156 A    
C15   C31   1.426913 A    
O16   C8    1.344542 A    
C37   H9    1.076548 S    
C16   C32   1.426873 A    
O2    C6    1.341098 A    
C10   C22   1.389474 A    
C11   C19   1.404706 A    
C3    C10   1.462894 S    
O5    C1    1.330797 A    
O4    V1    1.983128 S    
O9    V1    1.991035 S    
C13   C29   1.426871 A    
C34   C37   1.411469 A    
O7    C3    1.330988 A    
O15   V3    2.002250 S    
C35   C36   1.423475 A    
O8    C4    1.330792 A    
O12   V4    1.991049 S    
O19   V2    1.778342 S    
C40   H12   1.076537 S    
C24   H7    1.077253 S    
N5    O30   1.299348 A    
C45   C46   1.233739 T    
O5    V1    2.008872 S    
N1    O22   1.301159 A    
C39   C43   1.385226 A    
O7    V3    2.008839 S    
C38   C42   1.385225 A    
C26   C34   1.432685 A    
C5    C47   1.482333 S    
C1    C12   1.463581 S    
C14   N6    1.443856 S    
N3    O25   1.300819 A    
C23   C27   1.407116 A    
C32   C44   1.400855 A    
O1    V4    1.983098 S    
O13   C5    1.344541 A    
O2    V3    1.983095 S    
C6    C48   1.482336 S    
O3    V2    1.983125 S    
O15   C7    1.344546 A    
C4    C9    1.463548 S    
O6    C2    1.330987 A    
O10   V2    1.991036 S    
C31   C43   1.400891 A    
C47   C48   1.233729 T    
C14   C30   1.426923 A    
C21   C25   1.407610 A    
C44   H4    1.079446 S    
N6    O32   1.299163 A    
N7    O34   1.299161 A    
C18   N1    1.439033 S    
O12   C1    1.328737 A    
N4    O28   1.301466 A    
C20   N3    1.437947 S    
O14   V2    2.002245 S    
O6    V2    2.008873 S    
N2    O24   1.301018 A    
C12   C20   1.404325 A    
C27   C35   1.432726 A    
C16   C20   1.416325 A    
C2    C11   1.462946 S    
C29   C41   1.400857 A    
C16   N8    1.444699 S    
O16   V4    2.002250 S    
C17   N2    1.437873 S    
C7    C45   1.482349 S    
O14   C6    1.344543 A    
O18   V3    1.778362 S    
C38   H10   1.076180 S    
C15   C19   1.416854 A    
C15   N7    1.443784 S    
C30   C42   1.400882 A    
C22   C26   1.407128 A    
C9    C17   1.404271 A    
C33   C34   1.423447 A    
C42   H2    1.079389 S    
O8    V4    2.008838 S    
N8    O36   1.299340 A    
O17   V4    1.778361 S    
C41   H1    1.079444 S    
N6    O31   1.298363 A    
C12   C24   1.389531 A    
C27   C31   1.423567 A    
C13   C17   1.416309 A    
N4    O27   1.300907 A    
O11   V3    1.991049 S    
C37   C41   1.385126 A    
C24   C28   1.407629 A    
N2    O23   1.300777 A    
N7    O33   1.298374 A    
C21   H6    1.077258 S    
C22   H5    1.077714 S    
C28   C32   1.424131 A    
