data_mof_unit_5559.cif
_audit_creation_date              2012-12-10T16:59:13-0500
_audit_creation_method            fapswitch 2.2
_symmetry_space_group_name_H-M    P1
_symmetry_Int_Tables_number       1
_space_group_crystal_system       triclinic
_cell_length_a                    7.760974
_cell_length_b                    8.64851
_cell_length_c                    27.782097
_cell_angle_alpha                 90.635825
_cell_angle_beta                  87.366005
_cell_angle_gamma                 93.867741
_cell_volume                      1858.48563359

loop_
_atom_site_label
_atom_site_type_symbol
_atom_type_description
_atom_site_fract_x
_atom_site_fract_y
_atom_site_fract_z
_atom_type_partial_charge
C1    C     C_R   0.545228 0.794081 0.498584 0.836462
C2    C     C_R   0.541395 0.628412 0.127951 -0.114370
C3    C     C_R   0.516984 0.501048 0.646425 -0.490390
C4    C     C_R   0.483025 0.498982 0.353576 -0.490319
C5    C     C_R   0.575888 0.629180 0.026278 -0.039716
C6    C     C_R   0.424273 0.370868 0.973722 -0.039716
C7    C     C_R   0.428519 0.364445 0.024982 -0.012093
C8    C     C_R   0.571632 0.635609 0.975019 -0.012085
C9    C     C_R   0.492105 0.498428 0.050723 -0.063571
C10   C     C_R   0.508038 0.501628 0.949277 -0.063562
C11   C     C_R   0.669835 0.744130 0.054180 0.593045
C12   C     C_R   0.454772 0.205918 0.501409 0.836621
C13   C     C_R   0.330339 0.255907 0.945823 0.593028
C14   C     C_R   0.641305 0.745819 0.104522 -0.308027
C15   C     C_R   0.358859 0.254223 0.895481 -0.308019
C16   C     C_R   0.504771 0.499775 0.593867 0.985746
C17   C     C_R   0.495230 0.500230 0.406133 0.985743
C18   C     C_R   0.615221 0.775301 0.948678 0.546341
C19   C     C_R   0.384916 0.224757 0.051324 0.546375
C20   C     C_2   0.565735 0.955974 0.492406 0.207971
C21   C     C_2   0.434272 0.044025 0.507586 0.207985
C22   C     C_R   0.596067 0.631213 0.822531 0.630659
C23   C     C_R   0.521077 0.501239 0.898269 -0.061086
C24   C     C_R   0.403969 0.368875 0.177469 0.630649
C25   C     C_R   0.481411 0.369400 0.821812 0.682722
C26   C     C_R   0.518672 0.630676 0.178187 0.682730
C27   C     C_R   0.377120 0.483974 0.725894 0.528595
C28   C     C_R   0.622902 0.516112 0.274109 0.528575
C29   C     C_R   0.366161 0.481771 0.676269 0.444062
C30   C     C_R   0.633851 0.518289 0.323735 0.444003
C31   C     C_R   0.679522 0.521516 0.667279 0.446643
C32   C     C_R   0.320490 0.478523 0.332719 0.446615
C33   C     C_R   0.690435 0.526736 0.717573 0.391475
C34   C     C_R   0.479036 0.498826 0.101732 -0.061106
C35   C     C_R   0.309586 0.473338 0.282423 0.391486
C36   C     C_R   0.538298 0.503350 0.746669 -0.099784
C37   C     C_R   0.461730 0.496739 0.253331 -0.099761
C38   C     C_3   0.938317 0.684353 0.726491 0.051959
C39   C     C_3   0.061668 0.315764 0.273501 0.052020
C40   C     C_3   0.829231 0.984123 0.054147 -0.267551
C41   C     C_3   0.170985 0.015894 0.945857 -0.267515
C42   C     C_3   0.687418 0.045529 0.948138 -0.196105
C43   C     C_3   0.312795 0.954515 0.051871 -0.196130
C44   C     C_3   0.707542 0.002518 0.419938 -0.189406
C45   C     C_R   0.590431 0.632384 0.873060 -0.076459
C46   C     C_3   0.292625 0.997279 0.580061 -0.189230
C47   C     C_R   0.409637 0.367693 0.126940 -0.076446
C48   C     C_R   0.635507 0.767440 0.898132 -0.314332
C49   C     C_R   0.364562 0.232635 0.101869 -0.314308
C50   C     C_R   0.458727 0.371649 0.872050 -0.114358
F1    F     F_    0.827500 0.533838 0.639138 -0.602622
F2    F     F_    0.172511 0.466181 0.360858 -0.602656
F3    F     F_    0.791965 0.544502 0.342374 -0.567288
F4    F     F_    0.208041 0.455564 0.657633 -0.567223
F5    F     F_    0.769991 0.534728 0.245807 -0.591609
F6    F     F_    0.230037 0.465376 0.754200 -0.591590
H1    H     H_    0.013321 0.384284 0.463825 0.235352
H2    H     H_    0.975358 0.330399 0.305892 0.219981
H3    H     H_    0.148278 0.220726 0.279553 0.119697
H4    H     H_    0.978591 0.278141 0.243514 0.176428
H5    H     H_    0.901391 0.980042 0.087571 0.144419
H6    H     H_    0.704118 0.037137 0.061701 0.201741
H7    H     H_    0.907646 0.062069 0.029088 0.212152
H8    H     H_    0.098805 0.019955 0.912436 0.144418
H9    H     H_    0.092604 0.937933 0.970919 0.212140
H10   H     H_    0.296111 0.962909 0.938298 0.201730
H11   H     H_    0.611658 0.078894 0.917595 0.146306
H12   H     H_    0.986679 0.615716 0.536175 0.235356
H13   H     H_    0.820416 0.022334 0.935755 0.154006
H14   H     H_    0.696067 0.146294 0.973100 0.194834
H15   H     H_    0.179791 0.977683 0.064253 0.153973
H16   H     H_    0.388562 0.921168 0.082415 0.146334
H17   H     H_    0.304158 0.853746 0.026910 0.194830
H18   H     H_    0.597238 0.064515 0.407154 0.121980
H19   H     H_    0.696040 0.878786 0.408364 0.175070
H20   H     H_    0.827638 0.056696 0.402374 0.203659
H21   H     H_    0.304628 0.120958 0.591681 0.174689
H22   H     H_    0.402691 0.934865 0.592799 0.122052
H23   H     H_    0.676122 0.869215 0.877376 0.196783
H24   H     H_    0.172387 0.943401 0.597629 0.203680
H25   H     H_    0.323905 0.130867 0.122623 0.196774
H26   H     H_    0.706095 0.833547 0.126402 0.202507
H27   H     H_    0.294077 0.166487 0.873602 0.202509
H28   H     H_    0.851677 0.779372 0.720440 0.119696
H29   H     H_    0.024622 0.669736 0.694098 0.219937
H30   H     H_    0.021391 0.721996 0.756476 0.176440
N1    N     N_R   0.545266 0.499613 0.798016 -0.289027
N2    N     N_R   0.454778 0.500475 0.201984 -0.289037
N3    N     N_2   0.950320 0.457960 0.486880 -0.129506
N4    N     N_2   0.049680 0.542040 0.513120 -0.129505
O1    O     O_R   0.389250 0.738570 0.503220 -0.591594
O2    O     O_2   0.354185 0.238132 0.201847 -0.575435
O3    O     O_2   0.563783 0.760752 0.203245 -0.519328
O4    O     O_2   0.436303 0.239325 0.796754 -0.519340
O5    O     O_3   0.848516 0.541682 0.739127 -0.519805
O6    O     O_3   0.151510 0.458417 0.260866 -0.519833
O7    O     O_3   0.807263 0.835012 0.032609 -0.600855
O8    O     O_3   0.192923 0.165010 0.967394 -0.600872
O9    O     O_3   0.604467 0.917093 0.972767 -0.571375
O10   O     O_3   0.395718 0.082960 0.027241 -0.571370
O11   O     O_3   0.719688 0.016594 0.470345 -0.579604
O12   O     O_R   0.610750 0.261430 0.496780 -0.591575
O13   O     O_3   0.280328 0.983419 0.529654 -0.579588
O14   O     O_R   0.678390 0.711630 0.494810 -0.604150
O15   O     O_R   0.321610 0.288370 0.505190 -0.604079
O16   O     O_R   0.355440 0.513440 0.575450 -0.561077
O17   O     O_R   0.644560 0.486560 0.424550 -0.561104
O18   O     O_R   0.644590 0.486500 0.567040 -0.575130
O19   O     O_R   0.355410 0.513500 0.432960 -0.575142
O20   O     O_2   0.645818 0.761965 0.798153 -0.575429
Zn1   Zn    Zn3+2 0.306940 0.517990 0.505620 1.060618
Zn2   Zn    Zn3+2 0.693060 0.482010 0.494380 1.060597

loop_
_geom_bond_atom_site_label_1
_geom_bond_atom_site_label_2
_ccdc_geom_bond_type
C43   H17   S    
C43   H16   S    
C23   C45   A    
C27   C29   A    
O17   Zn2   S    
C37   N2    S    
O12   Zn2   S    
C25   N1    A    
C47   C49   A    
C35   O6    S    
C12   O12   A    
N3    Zn2   S    
C40   H7    S    
H1    N3    S    
C38   H30   S    
C48   H23   S    
C35   C37   A    
C5    C11   A    
C17   O17   A    
C12   O15   A    
C11   C14   A    
C29   F4    S    
C49   H25   S    
C24   O2    S    
C42   H14   S    
C33   C36   A    
C40   H6    S    
C44   H20   S    
C15   C50   A    
O1    Zn1   S    
C13   O8    S    
C3    C29   A    
C25   C50   A    
C32   F2    S    
C22   O20   S    
C38   O5    S    
H12   N4    S    
C31   C33   A    
C16   O16   A    
C2    C34   A    
C26   O3    S    
O15   Zn1   S    
C25   O4    S    
C1    O1    A    
N4    Zn1   S    
C33   O5    S    
C28   F5    S    
C6    C7    A    
O16   Zn1   S    
C36   N1    S    
C30   F3    S    
C38   H29   S    
C32   C35   A    
C43   O10   S    
C40   O7    S    
C46   H22   S    
C27   F6    S    
C23   C50   A    
C15   H27   S    
C20   O11   S    
C39   H2    S    
C12   C21   S    
C42   H13   S    
C8    C18   A    
C40   H5    S    
O18   Zn2   S    
C17   O19   A    
C44   H19   S    
C44   H18   S    
C5    C9    A    
C5    C8    A    
C19   C49   A    
C44   O11   S    
C39   H3    S    
C2    C26   A    
C22   N1    A    
C3    C31   A    
C24   N2    A    
C1    O14   A    
C4    C32   A    
C4    C17   S    
C8    C10   A    
C7    C19   A    
C13   C15   A    
C42   H11   S    
C10   C23   A    
C18   O9    S    
C14   H26   S    
O14   Zn2   S    
C45   C48   A    
C7    C9    A    
C1    C20   S    
C43   H15   S    
C38   H28   S    
C24   C47   A    
C31   F1    S    
C18   C48   A    
C6    C10   A    
C46   H21   S    
C41   H9    S    
C19   O10   S    
C41   H10   S    
C27   C36   A    
C46   O13   S    
C11   O7    S    
O19   Zn1   S    
C42   O9    S    
C6    C13   A    
C46   H24   S    
C9    C34   A    
C28   C37   A    
C39   H4    S    
C28   C30   A    
C2    C14   A    
C39   O6    S    
C16   O18   A    
C21   O13   S    
C22   C45   A    
C20   C21   D    
C26   N2    A    
C41   O8    S    
C34   C47   A    
C41   H8    S    
N3    N4    D    
C4    C30   A    
C3    C16   S    
