data_mof_unit_60618.cif
_audit_creation_date              2012-10-26T20:08:40-0400
_audit_creation_method            fapswitch 2.2
_symmetry_space_group_name_H-M    P1
_symmetry_Int_Tables_number       1
_space_group_crystal_system       triclinic
_cell_length_a                    16.006784
_cell_length_b                    14.432418
_cell_length_c                    13.136341
_cell_angle_alpha                 90.001457
_cell_angle_beta                  90.03757
_cell_angle_gamma                 90.01102
_cell_volume                      3034.71209219

loop_
_atom_site_label
_atom_site_type_symbol
_atom_type_description
_atom_site_fract_x
_atom_site_fract_y
_atom_site_fract_z
_atom_type_partial_charge
C1    C     C_R   0.500016 0.328689 0.500001 0.564027
C2    C     C_1   0.499994 0.500004 0.949310 -0.037244
C3    C     C_R   0.338264 0.499886 0.500001 0.569814
C4    C     C_R   0.661741 0.500384 0.500111 0.570350
C5    C     C_R   0.499992 0.671315 0.500003 0.567735
C6    C     C_3   0.052779 0.450546 0.609546 0.216146
C7    C     C_3   0.049242 0.444888 0.402935 0.229752
C8    C     C_3   0.951994 0.436037 0.602264 0.227342
C9    C     C_3   0.948327 0.457654 0.396974 0.216846
C10   C     C_1   0.750401 0.499744 0.501153 0.022655
C11   C     C_1   0.249617 0.500257 0.500402 0.017895
C12   C     C_1   0.500014 0.142308 0.500014 0.000680
C13   C     C_3   0.083016 0.500182 0.504265 -0.023402
C14   C     C_3   0.916989 0.498428 0.506670 -0.024865
C15   C     C_3   0.949699 0.603173 0.518801 0.371717
C16   C     C_3   0.048219 0.604911 0.501816 0.372459
C17   C     C_1   0.825243 0.498890 0.505082 0.064165
C18   C     C_1   0.174761 0.500665 0.502483 0.059589
C19   C     C_1   0.500016 0.227117 0.500007 -0.009219
C20   C     C_3   0.098506 0.474306 0.300720 -0.215880
C21   C     C_3   0.123871 0.397454 0.224007 -0.267692
C22   C     C_3   0.150894 0.438069 0.121721 -0.470773
C23   C     C_1   0.500009 0.042407 0.500020 0.044500
C24   C     C_3   0.080482 0.503137 0.711028 -0.226014
C25   C     C_3   0.175030 0.517783 0.733017 -0.257014
C26   C     C_3   0.188988 0.552254 0.841720 -0.434167
C27   C     C_3   0.915522 0.521010 0.305812 -0.228580
C28   C     C_3   0.908814 0.478051 0.197825 -0.290918
C29   C     C_3   0.905758 0.552496 0.115251 -0.447784
C30   C     C_3   0.908386 0.449129 0.710830 -0.215430
C31   C     C_3   0.812492 0.439816 0.719290 -0.268824
C32   C     C_3   0.785352 0.418775 0.828389 -0.436114
C33   C     C_1   0.500004 0.957599 0.500021 0.045630
C34   C     C_1   0.499999 0.857697 0.500017 0.004304
C35   C     C_1   0.499995 0.772888 0.500011 -0.004228
C36   C     C_1   0.499992 0.500014 0.173604 0.139336
C37   C     C_1   0.500000 0.500011 0.826390 0.129182
C38   C     C_1   0.499989 0.500005 0.050675 -0.033009
Cl1   Cl    Cl    0.927484 0.314343 0.583021 -0.365389
Cl2   Cl    Cl    0.894812 0.348853 0.367735 -0.455797
Cl3   Cl    Cl    0.105970 0.340495 0.633086 -0.446356
Cl4   Cl    Cl    0.074435 0.322514 0.415958 -0.382615
Cl5   Cl    Cl    0.100194 0.683387 0.587867 -0.449375
Cl6   Cl    Cl    0.077803 0.664747 0.387101 -0.514867
Cl7   Cl    Cl    0.918600 0.652570 0.638506 -0.510580
Cl8   Cl    Cl    0.895272 0.687126 0.440764 -0.442697
Cu1   Cu    Cu3+1 0.500000 0.499990 0.592680 1.011323
Cu2   Cu    Cu3+1 0.500000 0.499990 0.407320 1.028654
H1    H     H_    0.098017 0.475188 0.085167 0.152435
H2    H     H_    0.256720 0.564125 0.854752 0.159148
H3    H     H_    0.211053 0.452729 0.723806 0.215409
H4    H     H_    0.202741 0.570104 0.681995 0.212674
H5    H     H_    0.048549 0.569762 0.720868 0.204501
H6    H     H_    0.059035 0.460939 0.776657 0.150061
H7    H     H_    0.851961 0.599634 0.128241 0.190194
H8    H     H_    0.964536 0.593424 0.115182 0.179987
H9    H     H_    0.898538 0.519257 0.039522 0.144242
H10   H     H_    0.961209 0.431237 0.181383 0.194903
H11   H     H_    0.850528 0.436457 0.191841 0.214993
H12   H     H_    0.203825 0.486897 0.132469 0.171490
H13   H     H_    0.850820 0.543946 0.322142 0.188520
H14   H     H_    0.951854 0.585023 0.299535 0.209167
H15   H     H_    0.810413 0.350668 0.853260 0.182346
H16   H     H_    0.807968 0.473682 0.880872 0.156777
H17   H     H_    0.716074 0.416252 0.832354 0.161140
H18   H     H_    0.783056 0.506705 0.698246 0.197423
H19   H     H_    0.788111 0.383953 0.669438 0.217298
H20   H     H_    0.935078 0.394761 0.761476 0.184859
H21   H     H_    0.924453 0.513595 0.750667 0.154892
H22   H     H_    0.171305 0.381376 0.070294 0.169143
H23   H     H_    0.177654 0.357791 0.255260 0.214124
H24   H     H_    0.072120 0.347826 0.210585 0.224700
H25   H     H_    0.066116 0.527667 0.256491 0.167843
H26   H     H_    0.158266 0.508839 0.318993 0.173981
H27   H     H_    0.155191 0.618496 0.854242 0.195806
H28   H     H_    0.166740 0.499986 0.897502 0.151508
N1    N     N_1   0.500000 0.500020 0.268070 -0.162032
N2    N     N_1   0.500000 0.500020 0.731930 -0.164606
O1    O     O_R   0.500000 0.376050 0.578280 -0.472647
O2    O     O_R   0.500000 0.376050 0.421720 -0.471175
O3    O     O_R   0.379430 0.500000 0.578300 -0.489954
O4    O     O_R   0.379430 0.500000 0.421700 -0.483861
O5    O     O_R   0.620570 0.500000 0.578300 -0.495749
O6    O     O_R   0.620570 0.500000 0.421700 -0.475176
O7    O     O_R   0.500000 0.623940 0.578240 -0.469319
O8    O     O_R   0.500000 0.623940 0.421760 -0.470314

loop_
_geom_bond_atom_site_label_1
_geom_bond_atom_site_label_2
_ccdc_geom_bond_type
C31   H18   S    
C11   C18   T    
Cu1   O1    S    
C31   H19   S    
C12   C23   S    
C13   C18   S    
C21   H23   S    
Cu1   O7    S    
C28   C29   S    
C36   N1    T    
C26   H2    S    
C22   H12   S    
C30   C31   S    
C10   C17   T    
C24   H6    S    
C15   C16   S    
C34   C35   T    
C7    Cl4   S    
C27   H13   S    
Cu1   Cu2   S    
C23   C33   T    
C6    Cl3   S    
C3    O3    A    
C26   H28   S    
C8    Cl1   S    
Cu1   O5    S    
C16   Cl6   S    
C5    O7    A    
C21   C22   S    
C14   C17   S    
C26   H27   S    
C1    C19   S    
C21   H24   S    
C24   C25   S    
C32   H16   S    
C6    C8    S    
C29   H7    S    
C25   C26   S    
C9    Cl2   S    
Cu2   O6    S    
Cu2   N1    S    
C9    C14   S    
C25   H3    S    
C27   H14   S    
C2    C38   T    
C31   C32   S    
C4    O6    A    
C6    C24   S    
C3    O4    A    
C33   C34   S    
C20   H26   S    
C16   Cl5   S    
C22   H1    S    
C5    O8    A    
C29   H9    S    
C1    O1    A    
Cu2   O8    S    
C15   Cl7   S    
C4    C10   S    
C30   H21   S    
C9    C27   S    
C28   H11   S    
C7    C9    S    
C8    C14   S    
C32   H15   S    
C29   H8    S    
C28   H10   S    
C37   N2    T    
Cu1   N2    S    
C8    C30   S    
Cu2   O2    S    
C36   C38   S    
C24   H5    S    
C25   H4    S    
C6    C13   S    
C2    C37   S    
C4    O5    A    
C5    C35   S    
C12   C19   T    
Cu2   O4    S    
C20   H25   S    
Cu1   O3    S    
C3    C11   S    
C7    C13   S    
C20   C21   S    
C7    C20   S    
C13   C16   S    
C27   C28   S    
C1    O2    A    
C14   C15   S    
C15   Cl8   S    
C22   H22   S    
C30   H20   S    
C32   H17   S    
