data_mof_unit_6554.cif
_audit_creation_date              2012-12-10T19:42:33-0500
_audit_creation_method            fapswitch 2.2
_symmetry_space_group_name_H-M    P1
_symmetry_Int_Tables_number       1
_space_group_crystal_system       triclinic
_cell_length_a                    10.952563
_cell_length_b                    11.036368
_cell_length_c                    9.77789
_cell_angle_alpha                 99.074575
_cell_angle_beta                  98.83498
_cell_angle_gamma                 93.806261
_cell_volume                      1148.29330358

loop_
_atom_site_label
_atom_site_type_symbol
_atom_type_description
_atom_site_fract_x
_atom_site_fract_y
_atom_site_fract_z
_atom_type_partial_charge
C1    C     C_R   0.499379 0.261902 0.500400 0.831585
C2    C     C_R   0.500621 0.738098 0.499600 0.831585
C3    C     C_R   0.872645 0.500175 0.505209 -0.086155
C4    C     C_R   0.127355 0.499826 0.494791 -0.086155
C5    C     C_R   0.961028 0.531703 0.631384 0.004293
C6    C     C_R   0.038972 0.468298 0.368616 0.004294
C7    C     C_R   0.173651 0.075684 0.105635 -0.114280
C8    C     C_R   0.826351 0.924317 0.894363 -0.114280
C9    C     C_R   0.242547 0.073632 0.237408 -0.120808
C10   C     C_R   0.757453 0.926368 0.762590 -0.120809
C11   C     C_R   0.372573 0.082237 0.255385 0.175050
C12   C     C_R   0.627428 0.917763 0.744614 0.175050
C13   C     C_R   0.432789 0.102103 0.142724 -0.065930
C14   C     C_R   0.567213 0.897898 0.857277 -0.065931
C15   C     C_R   0.363064 0.108885 0.012340 -0.169777
C16   C     C_R   0.636939 0.891119 0.987661 -0.169775
C17   C     C_R   0.233737 0.092892 0.992952 -0.111526
C18   C     C_R   0.766265 0.907112 0.007048 -0.111526
C19   C     C_R   0.444449 0.915720 0.378098 0.105701
C20   C     C_R   0.555551 0.084280 0.621902 0.105701
C21   C     C_R   0.501031 0.871700 0.498806 -0.167933
C22   C     C_R   0.498969 0.128300 0.501194 -0.167933
C23   C     C_R   0.261643 0.499352 0.498777 0.791073
C24   C     C_R   0.738356 0.500648 0.501223 0.791072
C25   C     C_R   0.557552 0.956966 0.619610 -0.081484
C26   C     C_R   0.442448 0.043034 0.380389 -0.081484
C27   C     C_2   0.510561 0.510581 0.079357 -0.044891
C28   C     C_2   0.489439 0.489419 0.920643 -0.044892
C29   C     C_R   0.161127 0.488038 0.028747 -0.117673
C30   C     C_R   0.838872 0.511959 0.971252 -0.117671
C31   C     C_R   0.136107 0.519148 0.165294 -0.023255
C32   C     C_R   0.863894 0.480851 0.834705 -0.023255
C33   C     C_R   0.069483 0.434087 0.225130 0.103172
C34   C     C_R   0.930517 0.565912 0.774869 0.103171
C35   C     C_R   0.017686 0.321915 0.140619 -0.155010
C36   C     C_R   0.982313 0.678085 0.859382 -0.155009
C37   C     C_R   0.037033 0.293963 0.001481 -0.117160
C38   C     C_R   0.962965 0.706036 0.998520 -0.117158
C39   C     C_R   0.112698 0.374773 0.947332 -0.160878
C40   C     C_R   0.887300 0.625225 0.052667 -0.160878
C41   C     C_R   0.913505 0.468983 0.376963 -0.252826
C42   C     C_R   0.086495 0.531018 0.623037 -0.252825
Cu1   Cu    Cu3+1 0.521120 0.521140 0.639640 0.966455
Cu2   Cu    Cu3+1 0.478880 0.478860 0.360360 0.966455
H1    H     H_    0.129917 0.351602 0.840683 0.127110
H2    H     H_    0.870080 0.648395 0.159316 0.127110
H3    H     H_    0.533031 0.107031 0.154524 0.140927
H4    H     H_    0.466971 0.892971 0.845478 0.140928
H5    H     H_    0.408943 0.122251 0.924937 0.162365
H6    H     H_    0.591061 0.877755 0.075066 0.162364
H7    H     H_    0.418919 0.417895 0.863770 0.163703
H8    H     H_    0.581082 0.582104 0.136230 0.163703
H9    H     H_    0.617881 0.621360 0.906161 0.214332
H10   H     H_    0.382119 0.378640 0.093839 0.214332
H11   H     H_    0.215424 0.552853 0.984755 0.154386
H12   H     H_    0.784576 0.447144 0.015243 0.154387
H13   H     H_    0.168230 0.609362 0.225367 0.154166
H14   H     H_    0.831771 0.390637 0.774631 0.154165
H15   H     H_    0.960517 0.257111 0.181689 0.129522
H16   H     H_    0.039481 0.742890 0.818312 0.129522
H17   H     H_    0.994084 0.208989 0.935879 0.135613
H18   H     H_    0.005912 0.791010 0.064122 0.135612
H19   H     H_    0.846695 0.445473 0.280644 0.161035
H20   H     H_    0.153305 0.554527 0.719356 0.161035
H21   H     H_    0.180159 0.093542 0.890460 0.116390
H22   H     H_    0.819845 0.906464 0.109539 0.116388
H23   H     H_    0.073596 0.061812 0.090810 0.108698
H24   H     H_    0.926405 0.938190 0.909187 0.108698
H25   H     H_    0.194903 0.055513 0.322335 0.117660
H26   H     H_    0.805096 0.944485 0.677661 0.117659
N1    N     N_2   0.447120 0.447110 0.150550 -0.276586
N2    N     N_2   0.552880 0.552890 0.849450 -0.276586
O1    O     O_R   0.517830 0.337490 0.617920 -0.550581
O2    O     O_R   0.482170 0.662510 0.382080 -0.550581
O3    O     O_R   0.482150 0.301790 0.382070 -0.579408
O4    O     O_R   0.517850 0.698210 0.617930 -0.579408
O5    O     O_R   0.337480 0.517860 0.617920 -0.589203
O6    O     O_R   0.662520 0.482140 0.382080 -0.589203
O7    O     O_R   0.301810 0.482160 0.382070 -0.571597
O8    O     O_R   0.698190 0.517840 0.617930 -0.571597
I1    I     I_    0.356314 0.796175 0.184579 -0.506273
I2    I     I_    0.643686 0.203825 0.815422 -0.506275

loop_
_geom_bond_atom_site_label_1
_geom_bond_atom_site_label_2
_ccdc_geom_bond_type
Cu1   O1    S    
C38   C40   A    
C5    C42   A    
Cu1   N2    S    
C20   I2    S    
C32   H14   S    
C27   N1    D    
C40   H2    S    
C19   C21   A    
C16   H6    S    
C20   C22   A    
C28   H7    S    
C20   C25   A    
Cu2   N1    S    
C35   H15   S    
C19   C26   A    
C24   O8    A    
H10   N1    S    
C7    C17   A    
C6    C41   A    
C31   C33   A    
C2    O2    A    
C39   H1    S    
C1    C22   S    
C3    C24   S    
C28   N2    D    
C37   C39   A    
C1    O3    A    
C4    C6    A    
C13   H3    S    
C4    C23   S    
C14   H4    S    
C29   H11   S    
C11   C26   S    
C36   H16   S    
Cu1   O8    S    
C30   H12   S    
C8    C18   A    
C32   C34   A    
Cu2   O3    S    
Cu1   Cu2   S    
C5    C34   S    
C29   C39   A    
C2    C21   S    
C30   C40   A    
C23   O5    A    
Cu2   O2    S    
C9    C11   A    
C10   C12   A    
C10   H26   S    
C8    C10   A    
C12   C14   A    
C8    H24   S    
C13   C15   A    
C14   C16   A    
C18   H22   S    
C41   H19   S    
C42   H20   S    
C2    O4    A    
C27   H8    S    
C24   O6    A    
Cu1   O4    S    
C7    C9    A    
C21   C25   A    
C3    C41   A    
C35   C37   A    
Cu2   O7    S    
C9    H25   S    
C3    C5    A    
C37   H17   S    
C15   C17   A    
Cu1   O5    S    
C17   H21   S    
C6    C33   S    
C12   C25   S    
C1    O1    A    
C31   H13   S    
Cu2   O6    S    
C29   C31   A    
C30   C32   A    
C11   C13   A    
C4    C42   A    
C36   C38   A    
C33   C35   A    
C34   C36   A    
C15   H5    S    
C7    H23   S    
C16   C18   A    
C22   C26   A    
C27   C28   S    
C23   O7    A    
C19   I1    S    
H9    N2    S    
C38   H18   S    
