data_mof_unit_53031.cif
_audit_creation_date              2012-12-11T14:41:59-0500
_audit_creation_method            fapswitch 2.2
_symmetry_space_group_name_H-M    P1
_symmetry_Int_Tables_number       1
_space_group_crystal_system       triclinic
_cell_length_a                    18.945851
_cell_length_b                    10.948735
_cell_length_c                    18.865552
_cell_angle_alpha                 90.077788
_cell_angle_beta                  90.227489
_cell_angle_gamma                 90.249853
_cell_volume                      3913.26821846

loop_
_atom_site_label
_atom_site_type_symbol
_atom_type_description
_atom_site_fract_x
_atom_site_fract_y
_atom_site_fract_z
_atom_type_partial_charge
C1    C     C_R   0.709142 0.001309 0.861113 0.558010
C2    C     C_R   0.273678 0.957777 0.145458 0.552572
C3    C     C_R   0.209142 0.501309 0.861113 0.557743
C4    C     C_R   0.773676 0.457773 0.145460 0.550647
C5    C     C_R   0.701982 0.479373 0.035990 -0.117566
C6    C     C_R   0.284352 0.516804 0.969832 -0.113716
C7    C     C_R   0.201989 0.979393 0.035985 -0.117725
C8    C     C_R   0.784351 0.016808 0.969834 -0.113693
C9    C     C_R   0.758965 0.426939 0.071982 -0.025485
C10   C     C_R   0.221575 0.480192 0.936562 -0.026667
C11   C     C_R   0.258971 0.926954 0.071977 -0.025944
C12   C     C_R   0.721575 0.980193 0.936563 -0.026703
C13   C     C_R   0.812718 0.370637 0.034004 -0.120050
C14   C     C_R   0.168154 0.427228 0.976336 -0.110473
C15   C     C_R   0.312725 0.870655 0.033999 -0.120068
C16   C     C_R   0.668154 0.927228 0.976337 -0.110419
C17   C     C_R   0.812004 0.368907 0.961356 0.058509
C18   C     C_R   0.177041 0.404977 0.047803 0.074029
C19   C     C_R   0.312010 0.868924 0.961351 0.058635
C20   C     C_R   0.677040 0.904980 0.047805 0.074050
C21   C     C_R   0.751425 0.411621 0.924256 0.029906
C22   C     C_R   0.243878 0.427985 0.080451 0.024717
C23   C     C_R   0.251430 0.911636 0.924251 0.030138
C24   C     C_R   0.743877 0.927990 0.080453 0.024728
C25   C     C_R   0.465803 0.264696 0.546607 -0.132723
C26   C     C_R   0.458925 0.270023 0.474354 -0.123468
C27   C     C_R   0.967254 0.766035 0.546234 -0.136418
C28   C     C_R   0.960934 0.771364 0.473983 -0.127227
C29   C     C_R   0.480442 0.171068 0.432259 0.038033
C30   C     C_R   0.496379 0.162016 0.577190 0.032283
C31   C     C_R   0.981033 0.671213 0.432130 0.037246
C32   C     C_R   0.996414 0.662417 0.577157 0.032349
C33   C     C_R   0.503963 0.063048 0.463312 -0.147571
C34   C     C_R   0.511932 0.058316 0.536107 -0.137837
C35   C     C_R   0.003081 0.562476 0.463494 -0.137258
C36   C     C_R   0.010899 0.557955 0.536334 -0.130268
C37   C     C_R   0.800333 0.333825 0.532477 -0.129031
C38   C     C_R   0.210916 0.310520 0.471608 -0.127722
C39   C     C_R   0.315312 0.893783 0.543535 -0.136148
C40   C     C_R   0.704214 0.823052 0.469322 -0.130256
C41   C     C_R   0.802381 0.342783 0.459976 -0.130719
C42   C     C_R   0.208395 0.324440 0.544093 -0.135783
C43   C     C_R   0.321374 0.904374 0.471154 -0.127309
C44   C     C_R   0.702254 0.833778 0.541844 -0.137065
C45   C     C_R   0.529346 0.178156 0.850387 0.549787
C46   C     C_R   0.469232 0.177854 0.148681 0.564294
C47   C     C_R   0.029346 0.678156 0.850388 0.550341
C48   C     C_R   0.969231 0.677854 0.148680 0.564098
C49   C     C_R   0.754283 0.417577 0.424245 0.032032
C50   C     C_R   0.248109 0.416451 0.576775 0.026506
C51   C     C_R   0.262566 0.936111 0.429449 0.032460
C52   C     C_R   0.746910 0.916818 0.576287 0.030717
C53   C     C_R   0.700242 0.475831 0.462014 -0.133018
C54   C     C_R   0.294880 0.488302 0.536541 -0.140156
C55   C     C_R   0.198058 0.962135 0.461805 -0.146063
C56   C     C_R   0.797776 0.982089 0.537439 -0.140282
C57   C     C_R   0.696437 0.462768 0.535358 -0.133267
C58   C     C_R   0.298394 0.472654 0.463451 -0.148458
C59   C     C_R   0.191562 0.949076 0.534841 -0.136454
C60   C     C_R   0.801178 0.968455 0.464138 -0.146356
C61   C     C_R   0.747340 0.393015 0.571018 0.033839
C62   C     C_R   0.254817 0.385941 0.430521 0.032356
C63   C     C_R   0.249855 0.911031 0.575595 0.029387
C64   C     C_R   0.753385 0.890344 0.429647 0.035840
C65   C     C_R   0.739052 0.365253 0.852522 0.562149
C66   C     C_R   0.260506 0.366993 0.148037 0.571510
C67   C     C_R   0.239054 0.865257 0.852520 0.560908
C68   C     C_R   0.760505 0.866995 0.148038 0.570920
C69   C     C_R   0.728106 0.955051 0.647492 0.555713
C70   C     C_R   0.274273 0.960287 0.354707 0.545266
C71   C     C_R   0.228226 0.455070 0.647570 0.555349
C72   C     C_R   0.772084 0.455362 0.352646 0.545498
C73   C     C_R   0.528538 0.175126 0.645786 0.549323
C74   C     C_R   0.466072 0.177056 0.357663 0.546117
C75   C     C_R   0.028531 0.675170 0.645790 0.549304
C76   C     C_R   0.966281 0.677050 0.357576 0.547306
C77   C     C_R   0.738672 0.358957 0.644949 0.549139
C78   C     C_R   0.261910 0.357027 0.355760 0.544656
C79   C     C_R   0.239352 0.862783 0.646447 0.547795
C80   C     C_R   0.761507 0.858534 0.355309 0.545065
C81   C     C_2   0.494741 0.172810 0.919349 -0.102054
C82   C     C_2   0.499126 0.168989 0.077614 -0.095677
C83   C     C_2   0.994742 0.672810 0.919350 -0.101892
C84   C     C_2   0.999125 0.668988 0.077614 -0.095412
C85   C     C_2   0.480747 0.075489 0.035107 -0.133152
C86   C     C_2   0.499023 0.073204 0.959753 -0.151101
C87   C     C_2   0.980746 0.575488 0.035107 -0.133109
C88   C     C_2   0.999022 0.573203 0.959753 -0.151106
C89   C     C_R   0.697580 0.472387 0.962412 0.058078
C90   C     C_R   0.296432 0.490715 0.041135 0.051397
C91   C     C_R   0.197588 0.972407 0.962406 0.058232
C92   C     C_R   0.796430 0.990722 0.041138 0.051413
Cr1   Cr    Cr6+3 0.769270 0.163730 0.750710 1.052682
Cr2   Cr    Cr6+3 0.230730 0.163730 0.249290 1.055537
Cr3   Cr    Cr6+3 0.269270 0.663730 0.750710 1.052860
Cr4   Cr    Cr6+3 0.730730 0.663730 0.249290 1.055449
Cr5   Cr    Cr6+3 0.612620 0.009790 0.748780 1.044290
Cr6   Cr    Cr6+3 0.387380 0.009790 0.251220 1.050677
Cr7   Cr    Cr6+3 0.112620 0.509790 0.748780 1.046706
Cr8   Cr    Cr6+3 0.887380 0.509790 0.251220 1.052997
Cr9   Cr    Cr6+3 0.614160 0.322500 0.747710 1.060585
Cr10  Cr    Cr6+3 0.385840 0.322500 0.252290 1.062249
Cr11  Cr    Cr6+3 0.114160 0.822500 0.747710 1.058283
Cr12  Cr    Cr6+3 0.885840 0.822500 0.252290 1.061090
H1    H     H_    0.452236 0.997311 0.055908 0.188160
H2    H     H_    0.516579 0.987969 0.937276 0.184622
H3    H     H_    0.952235 0.497309 0.055908 0.188154
H4    H     H_    0.016575 0.487966 0.937275 0.184573
H5    H     H_    0.844502 0.296017 0.432472 0.132947
H6    H     H_    0.172427 0.267363 0.574056 0.132056
H7    H     H_    0.372875 0.888929 0.448153 0.139531
H8    H     H_    0.662779 0.781774 0.570428 0.128776
H9    H     H_    0.662612 0.534183 0.435337 0.123217
H10   H     H_    0.325808 0.560648 0.560818 0.135721
H11   H     H_    0.152879 0.990735 0.430727 0.122704
H12   H     H_    0.832692 0.047108 0.563137 0.122282
H13   H     H_    0.653930 0.506361 0.563935 0.125474
H14   H     H_    0.334193 0.528778 0.432753 0.123380
H15   H     H_    0.140260 0.962548 0.558678 0.136303
H16   H     H_    0.840687 0.018647 0.434608 0.115599
H17   H     H_    0.528254 0.246686 0.056770 0.128148
H18   H     H_    0.474190 0.257271 0.941371 0.143393
H19   H     H_    0.028254 0.746685 0.056770 0.128205
H20   H     H_    0.974194 0.757271 0.941373 0.143427
H21   H     H_    0.661977 0.529213 0.064793 0.183468
H22   H     H_    0.325375 0.561671 0.939790 0.193721
H23   H     H_    0.161985 0.029234 0.064787 0.183426
H24   H     H_    0.825373 0.061675 0.939792 0.193697
H25   H     H_    0.858743 0.334199 0.060611 0.191080
H26   H     H_    0.119353 0.399871 0.951200 0.170305
H27   H     H_    0.358749 0.834216 0.060606 0.191121
H28   H     H_    0.619353 0.899868 0.951200 0.170329
H29   H     H_    0.452232 0.344257 0.577909 0.132039
H30   H     H_    0.436751 0.352187 0.451600 0.140839
H31   H     H_    0.954521 0.846325 0.577275 0.130991
H32   H     H_    0.940121 0.854439 0.451083 0.138910
H33   H     H_    0.517669 0.984368 0.431384 0.123611
H34   H     H_    0.535239 0.977416 0.559296 0.137078
H35   H     H_    0.015750 0.483008 0.431783 0.127294
H36   H     H_    0.033164 0.476402 0.559785 0.138887
H37   H     H_    0.839572 0.276916 0.557888 0.130993
H38   H     H_    0.178817 0.239074 0.447975 0.137317
H39   H     H_    0.361133 0.865659 0.573862 0.132346
H40   H     H_    0.667731 0.759394 0.444690 0.130247
O1    O     O_R   0.784320 0.290430 0.830510 -0.491268
O2    O     O_R   0.215680 0.290430 0.169490 -0.481131
O3    O     O_R   0.284320 0.790430 0.830510 -0.492252
O4    O     O_R   0.715680 0.790430 0.169490 -0.481295
O5    O     O_R   0.554640 0.080370 0.673500 -0.507760
O6    O     O_R   0.445360 0.080370 0.326500 -0.506115
O7    O     O_R   0.054640 0.580370 0.673500 -0.505968
O8    O     O_R   0.945360 0.580370 0.326500 -0.500593
O9    O     O_R   0.543920 0.282180 0.666790 -0.517740
O10   O     O_R   0.456080 0.282180 0.333210 -0.525594
O11   O     O_R   0.043920 0.782180 0.666790 -0.521303
O12   O     O_R   0.956080 0.782180 0.333210 -0.527744
O13   O     O_R   0.679040 0.374160 0.674430 -0.498732
O14   O     O_R   0.320960 0.374160 0.325570 -0.508064
O15   O     O_R   0.179040 0.874160 0.674430 -0.502063
O16   O     O_R   0.820960 0.874160 0.325570 -0.508154
O17   O     O_3   0.665350 0.165340 0.749070 -0.282542
O18   O     O_3   0.334650 0.165340 0.250930 -0.268065
O19   O     O_3   0.165350 0.665340 0.749070 -0.281750
O20   O     O_3   0.834650 0.665340 0.250930 -0.265575
O21   O     O_R   0.762640 0.040960 0.825200 -0.490765
O22   O     O_R   0.237360 0.040960 0.174800 -0.494155
O23   O     O_R   0.262640 0.540960 0.825200 -0.490939
O24   O     O_R   0.737360 0.540960 0.174800 -0.495030
O25   O     O_R   0.667400 0.923970 0.829950 -0.490884
O26   O     O_R   0.332600 0.923970 0.170050 -0.509920
O27   O     O_R   0.167400 0.423970 0.829950 -0.491259
O28   O     O_R   0.832600 0.423970 0.170050 -0.511679
O29   O     O_R   0.553960 0.081340 0.821780 -0.510049
O30   O     O_R   0.446040 0.081340 0.178220 -0.487611
O31   O     O_R   0.053960 0.581340 0.821780 -0.509754
O32   O     O_R   0.946040 0.581340 0.178220 -0.488108
O33   O     O_R   0.543180 0.283240 0.826740 -0.485701
O34   O     O_R   0.456820 0.283240 0.173260 -0.482546
O35   O     O_R   0.043180 0.783240 0.826740 -0.485317
O36   O     O_R   0.956820 0.783240 0.173260 -0.482809
O37   O     O_R   0.678360 0.375140 0.822710 -0.475349
O38   O     O_R   0.321640 0.375140 0.177290 -0.471317
O39   O     O_R   0.178360 0.875140 0.822710 -0.475621
O40   O     O_R   0.821640 0.875140 0.177290 -0.471886
O41   O     O_R   0.785050 0.289380 0.670560 -0.522639
O42   O     O_R   0.214950 0.289380 0.329440 -0.521387
O43   O     O_R   0.285050 0.789380 0.670560 -0.520617
O44   O     O_R   0.714950 0.789380 0.329440 -0.522568
O45   O     O_R   0.763320 0.039990 0.676930 -0.501925
O46   O     O_R   0.236680 0.039990 0.323070 -0.507148
O47   O     O_R   0.263320 0.539990 0.676930 -0.500717
O48   O     O_R   0.736680 0.539990 0.323070 -0.507300
O49   O     O_R   0.668130 0.922920 0.670000 -0.517933
O50   O     O_R   0.331870 0.922920 0.330000 -0.521517
O51   O     O_R   0.168130 0.422920 0.670000 -0.516263
O52   O     O_R   0.831870 0.422920 0.330000 -0.519689
I1    I     I_    0.610201 0.564513 0.915745 -0.267894
I2    I     I_    0.396837 0.547577 0.080831 -0.294090
I3    I     I_    0.110214 0.064541 0.915736 -0.267955
I4    I     I_    0.896831 0.047595 0.080839 -0.295319
I5    I     I_    0.908315 0.299057 0.917217 -0.336808
I6    I     I_    0.083983 0.331438 0.096652 -0.320498
I7    I     I_    0.408319 0.799071 0.917209 -0.338116
I8    I     I_    0.583982 0.831447 0.096657 -0.320512

loop_
_geom_bond_atom_site_label_1
_geom_bond_atom_site_label_2
_ccdc_geom_bond_type
Cr2   O2    S    
C87   C88   S    
C58   C62   A    
C23   C91   A    
C55   C59   A    
Cr8   O28   S    
C77   O41   A    
C14   C18   A    
C19   C23   A    
C35   C36   A    
C84   C87   D    
C3    O27   A    
Cr2   O22   S    
C32   C75   S    
C31   C76   S    
Cr3   O43   S    
C21   C89   A    
C85   C86   S    
Cr8   O8    S    
C84   H19   S    
C15   C19   A    
C74   O10   A    
C50   C54   A    
C37   H37   S    
Cr11  O39   S    
C32   C36   A    
C27   C28   A    
C56   C60   A    
C38   C42   A    
Cr3   O19   S    
C79   O15   A    
Cr6   O30   S    
C9    C13   A    
C49   C53   A    
C80   O16   A    
Cr7   O27   S    
C76   O8    A    
C23   C67   S    
Cr7   O51   S    
C58   H14   S    
Cr5   O25   S    
Cr6   O50   S    
C46   O30   A    
Cr5   O49   S    
C46   O34   A    
C22   C66   S    
C47   O35   A    
C52   C69   S    
C35   H35   S    
C46   C82   S    
C52   C56   A    
C11   C15   A    
C78   O14   A    
C12   C16   A    
C29   C33   A    
C61   C77   S    
C49   C72   S    
Cr8   O32   S    
Cr4   O24   S    
Cr1   O1    S    
C78   O42   A    
C51   C70   S    
Cr9   O9    S    
C83   H20   S    
C22   C90   A    
C25   H29   S    
Cr10  O10   S    
C82   H17   S    
C51   C55   A    
C81   C86   D    
C68   O4    A    
C70   O50   A    
C91   I3    S    
C44   C52   A    
C83   C88   D    
C66   O38   A    
Cr1   O21   S    
C18   C22   A    
C64   C80   S    
Cr10  O14   S    
C19   I7    S    
C86   H2    S    
C1    C12   S    
C43   H7    S    
Cr12  O16   S    
C85   H1    S    
C2    C11   S    
C24   C92   A    
C41   C49   A    
Cr6   O18   S    
C53   H9    S    
Cr8   O52   S    
C56   H12   S    
Cr4   O4    S    
Cr5   O29   S    
C30   C34   A    
C3    O23   A    
Cr10  O38   S    
C20   C24   A    
Cr3   O3    S    
C20   I8    S    
C18   I6    S    
C10   C14   A    
C33   H33   S    
C30   C73   S    
C53   C57   A    
C65   O37   A    
C29   C74   S    
C25   C26   A    
C6    C90   A    
C24   C68   S    
Cr7   O7    S    
C76   O12   A    
C17   C21   A    
Cr4   O20   S    
Cr6   O26   S    
C7    C11   A    
C50   C71   S    
Cr2   O46   S    
C5    C9    A    
C26   H30   S    
C45   O29   A    
C8    H24   S    
C71   O51   A    
Cr1   O17   S    
C16   C20   A    
C7    C91   A    
C69   O49   A    
C33   C34   A    
C80   O44   A    
Cr7   O31   S    
Cr8   O20   S    
Cr12  O12   S    
C17   I5    S    
C36   H36   S    
C6    H22   S    
C79   O43   A    
C42   C50   A    
C8    C92   A    
C44   H8    S    
Cr11  O11   S    
Cr12  O40   S    
C2    O26   A    
C73   O9    A    
Cr5   O17   S    
C40   H40   S    
C67   O3    A    
Cr10  O34   S    
Cr7   O19   S    
C65   O1    A    
C89   I1    S    
C48   O36   A    
Cr9   O37   S    
Cr10  O18   S    
C70   O46   A    
C57   H13   S    
Cr6   O6    S    
C25   C30   A    
C14   H26   S    
C2    O22   A    
C68   O40   A    
C59   H15   S    
Cr1   O45   S    
C4    O28   A    
C21   C65   S    
C1    O21   A    
C28   H32   S    
C4    O24   A    
C59   C63   A    
C62   C78   S    
C28   C31   A    
C45   C81   S    
Cr2   O42   S    
C39   H39   S    
C69   O45   A    
C87   H3    S    
Cr3   O23   S    
C72   O52   A    
C39   C43   A    
C75   O11   A    
C57   C61   A    
C63   C79   S    
C13   H25   S    
C45   O33   A    
C82   C85   D    
C39   C63   A    
C90   I2    S    
Cr11  O19   S    
C40   C64   A    
C13   C17   A    
C81   H18   S    
C60   C64   A    
C27   H31   S    
Cr4   O48   S    
Cr9   O17   S    
C42   H6    S    
C3    C10   S    
C71   O47   A    
Cr11  O15   S    
Cr12  O20   S    
Cr12  O36   S    
C55   H11   S    
C43   C51   A    
C88   H4    S    
C54   H10   S    
C31   C35   A    
C1    O25   A    
C34   H34   S    
C5    H21   S    
C38   H38   S    
Cr11  O35   S    
C37   C41   A    
C16   H28   S    
C47   O31   A    
C66   O2    A    
Cr9   O33   S    
C6    C10   A    
C27   C32   A    
C60   H16   S    
Cr9   O13   S    
C47   C83   S    
Cr3   O47   S    
C48   C84   S    
C40   C44   A    
C37   C61   A    
C15   H27   S    
C26   C29   A    
C73   O5    A    
C54   C58   A    
C75   O7    A    
Cr5   O5    S    
C74   O6    A    
C67   O39   A    
C41   H5    S    
C7    H23   S    
C4    C9    S    
C92   I4    S    
Cr4   O44   S    
C72   O48   A    
C5    C89   A    
Cr2   O18   S    
C8    C12   A    
C77   O13   A    
C48   O32   A    
C38   C62   A    
Cr1   O41   S    
