data_mof_unit_65813.cif
_audit_creation_date              2012-12-10T16:53:14-0500
_audit_creation_method            fapswitch 2.2
_symmetry_space_group_name_H-M    P1
_symmetry_Int_Tables_number       1
_space_group_crystal_system       triclinic
_cell_length_a                    7.813536
_cell_length_b                    8.639718
_cell_length_c                    14.14308
_cell_angle_alpha                 90.81875
_cell_angle_beta                  85.061143
_cell_angle_gamma                 92.64912
_cell_volume                      950.140930496

loop_
_atom_site_label
_atom_site_type_symbol
_atom_type_description
_atom_site_fract_x
_atom_site_fract_y
_atom_site_fract_z
_atom_type_partial_charge
C1    C     C_R   0.544362 0.794090 0.499735 0.858310
C2    C     C_1   0.499636 0.499987 0.042649 0.020945
C3    C     C_2   0.563811 0.956498 0.512539 0.184974
C4    C     C_2   0.436189 0.043502 0.487461 0.184974
C5    C     C_R   0.455638 0.205910 0.500265 0.858310
C6    C     C_R   0.500417 0.500155 0.670720 0.866962
C7    C     C_R   0.499583 0.499845 0.329280 0.866962
C8    C     C_1   0.501163 0.500082 0.772163 -0.162410
C9    C     C_1   0.498837 0.499918 0.227837 -0.162410
C10   C     C_1   0.501050 0.500046 0.857435 0.003178
C11   C     C_1   0.498950 0.499954 0.142565 0.003178
C12   C     C_1   0.500364 0.500013 0.957351 0.020945
H1    H     H_    0.772766 0.935816 0.578214 0.365983
H2    H     H_    0.227234 0.064184 0.421786 0.365983
H3    H     H_    0.935085 0.301374 0.386343 0.342456
H4    H     H_    0.064915 0.698626 0.613657 0.342456
N1    N     N_2   0.950330 0.457950 0.476740 0.200021
N2    N     N_2   0.049670 0.542050 0.523260 0.200021
O1    O     O_R   0.389250 0.738570 0.505710 -0.573228
O2    O     O_3   0.298551 0.980344 0.441457 -0.756910
O3    O     O_3   0.029300 0.356692 0.417390 -0.658742
O4    O     O_3   0.970700 0.643308 0.582610 -0.658742
O5    O     O_R   0.610750 0.261430 0.494290 -0.573228
O6    O     O_R   0.678390 0.711630 0.490800 -0.589275
O7    O     O_R   0.321610 0.288370 0.509200 -0.589275
O8    O     O_R   0.355390 0.513480 0.633740 -0.623334
O9    O     O_R   0.644610 0.486520 0.366260 -0.623333
O10   O     O_R   0.644540 0.486530 0.618830 -0.550461
O11   O     O_R   0.355460 0.513470 0.381170 -0.550461
O12   O     O_3   0.701449 0.019656 0.558543 -0.756910
Zn1   Zn    Zn3+2 0.306930 0.517990 0.509950 1.071531
Zn2   Zn    Zn3+2 0.693070 0.482010 0.490050 1.071531

loop_
_geom_bond_atom_site_label_1
_geom_bond_atom_site_label_2
_ccdc_geom_bond_type
O7    Zn1   S    
C3    O12   S    
C6    C8    S    
O6    Zn2   S    
C7    O11   A    
C5    O5    A    
O10   Zn2   S    
O1    Zn1   S    
O5    Zn2   S    
N1    N2    D    
C2    C12   T    
O8    Zn1   S    
O11   Zn1   S    
C9    C11   T    
C6    O8    A    
C10   C12   S    
C5    O7    A    
C2    C11   S    
C6    O10   A    
C1    O1    A    
C3    C4    D    
C4    O2    S    
H2    O2    S    
H1    O12   S    
H3    O3    S    
C7    O9    A    
C1    O6    A    
C8    C10   T    
C7    C9    S    
N1    Zn2   S    
H4    O4    S    
N2    Zn1   S    
O9    Zn2   S    
N2    O4    S    
N1    O3    S    
C4    C5    S    
C1    C3    S    
