data_mof_unit_8119.cif
_audit_creation_date              2012-12-10T20:40:54-0500
_audit_creation_method            fapswitch 2.2
_symmetry_space_group_name_H-M    P1
_symmetry_Int_Tables_number       1
_space_group_crystal_system       triclinic
_cell_length_a                    27.741
_cell_length_b                    10.692025
_cell_length_c                    9.838122
_cell_angle_alpha                 90.063317
_cell_angle_beta                  89.919151
_cell_angle_gamma                 90.059621
_cell_volume                      2918.05416987

loop_
_atom_site_label
_atom_site_type_symbol
_atom_type_description
_atom_site_fract_x
_atom_site_fract_y
_atom_site_fract_z
_atom_type_partial_charge
C1    C     C_R   0.497399 0.260267 0.499649 0.948967
C2    C     C_R   0.277742 0.503088 0.625712 0.456922
C3    C     C_R   0.252787 0.498180 0.501343 0.177439
C4    C     C_R   0.101688 0.499711 0.492636 -0.048625
C5    C     C_R   0.127033 0.385659 0.495982 -0.027377
C6    C     C_R   0.101734 0.272891 0.496992 -0.107295
C7    C     C_R   0.127520 0.613163 0.490033 -0.029714
C8    C     C_R   0.353258 0.499479 0.500491 -0.107471
C9    C     C_R   0.646635 0.501763 0.499697 -0.055106
C10   C     C_R   0.974202 0.386527 0.508333 0.047705
C11   C     C_R   0.974652 0.615867 0.476799 0.047837
C12   C     C_R   0.405974 0.500358 0.500110 0.924597
C13   C     C_R   0.949208 0.501533 0.493274 0.073597
C14   C     C_R   0.947170 0.276550 0.532996 -0.209023
C15   C     C_R   0.897231 0.278726 0.536754 -0.127412
C16   C     C_R   0.872365 0.390461 0.516605 -0.024329
C17   C     C_R   0.898151 0.502234 0.494900 -0.050502
C18   C     C_R   0.872756 0.614721 0.474932 -0.025510
C19   C     C_R   0.822346 0.613229 0.476750 0.515080
C20   C     C_R   0.821975 0.393355 0.518289 0.511229
C21   C     C_R   0.721994 0.509645 0.376011 -0.089501
C22   C     C_R   0.671938 0.508363 0.376154 -0.194558
C23   C     C_R   0.500235 0.739607 0.499941 0.921096
C24   C     C_R   0.672060 0.496778 0.622938 -0.162232
C25   C     C_R   0.722135 0.497680 0.622359 -0.087746
C26   C     C_R   0.747001 0.504030 0.498973 0.306513
C27   C     C_R   0.025171 0.385243 0.499983 0.047868
C28   C     C_R   0.050633 0.500301 0.491937 0.079142
C29   C     C_R   0.025659 0.615936 0.483569 0.046972
C30   C     C_R   0.051771 0.272392 0.498614 -0.203572
C31   C     C_R   0.102709 0.726477 0.486623 -0.105303
C32   C     C_R   0.947988 0.726502 0.453371 -0.208767
C33   C     C_R   0.898020 0.725700 0.452805 -0.127140
C34   C     C_R   0.593992 0.500373 0.499933 0.887119
C35   C     C_R   0.052760 0.728141 0.483785 -0.203223
C36   C     C_R   0.525069 0.065656 0.591852 0.016583
C37   C     C_R   0.496397 0.127927 0.497443 -0.236749
C38   C     C_R   0.472002 0.060767 0.394000 0.371445
C39   C     C_R   0.475705 0.931825 0.393442 -0.237366
C40   C     C_R   0.500580 0.871083 0.497353 -0.203200
C41   C     C_R   0.526997 0.937883 0.592402 0.028008
C42   C     C_3   0.526300 0.931006 0.744204 0.283610
C43   C     C_3   0.524408 0.072935 0.743855 -0.478493
C44   C     C_R   0.480620 0.596413 0.071515 0.220580
C45   C     C_R   0.177424 0.387296 0.497854 0.588719
C46   C     C_R   0.524057 0.409054 0.071851 -0.030546
C47   C     C_R   0.523917 0.408834 0.927623 -0.091440
C48   C     C_R   0.480601 0.596402 0.928880 0.259860
C49   C     C_3   0.429695 0.640318 0.923459 -0.481574
C50   C     C_3   0.429757 0.640613 0.077762 -0.465599
C51   C     C_R   0.177896 0.610437 0.492426 0.588629
C52   C     C_R   0.277871 0.493318 0.378240 -0.137899
C53   C     C_R   0.327848 0.493912 0.377578 -0.128307
C54   C     C_R   0.327981 0.503617 0.624066 -0.310427
H1    H     H_    0.347350 0.507355 0.719095 0.188156
H2    H     H_    0.121822 0.814917 0.486722 0.195416
H3    H     H_    0.964569 0.815457 0.432136 0.142038
H4    H     H_    0.653357 0.491793 0.719496 0.184892
H5    H     H_    0.879247 0.812950 0.434876 0.194068
H6    H     H_    0.741687 0.493414 0.717434 0.147509
H7    H     H_    0.036534 0.819561 0.485139 0.139659
H8    H     H_    0.456412 0.878024 0.317586 0.195541
H9    H     H_    0.493302 0.886162 0.786130 0.094041
H10   H     H_    0.489895 0.110566 0.784428 0.197735
H11   H     H_    0.557265 0.119437 0.784242 0.238947
H12   H     H_    0.542753 0.335861 0.126195 0.166150
H13   H     H_    0.426597 0.735356 0.878705 0.211830
H14   H     H_    0.405025 0.569164 0.879740 0.224464
H15   H     H_    0.426828 0.735918 0.122166 0.222754
H16   H     H_    0.405019 0.569926 0.122283 0.227172
H17   H     H_    0.120473 0.184015 0.496888 0.194631
H18   H     H_    0.741436 0.514380 0.280619 0.147113
H19   H     H_    0.878167 0.191970 0.555767 0.194938
H20   H     H_    0.963470 0.187145 0.553185 0.142897
H21   H     H_    0.346461 0.489513 0.281006 0.190554
N1    N     N_R   0.201488 0.498655 0.498164 -0.346998
N2    N     N_R   0.798290 0.503619 0.498340 -0.360150
N3    N     N_R   0.499670 0.499140 0.142800 -0.112797
N4    N     N_R   0.499670 0.499180 0.857150 -0.109876
O1    O     O_R   0.500010 0.316790 0.614690 -0.635582
O2    O     O_2   0.796729 0.286993 0.538761 -0.534320
O3    O     O_2   0.203234 0.718278 0.489471 -0.508666
O4    O     O_2   0.797462 0.720234 0.457818 -0.532087
O5    O     O_R   0.500000 0.316760 0.385350 -0.560078
O6    O     O_R   0.428760 0.500040 0.614660 -0.640624
O7    O     O_R   0.428750 0.500000 0.385310 -0.592264
O8    O     O_R   0.500000 0.683240 0.614650 -0.605403
O9    O     O_R   0.499990 0.683210 0.385310 -0.623035
O10   O     O_R   0.571250 0.500000 0.614690 -0.592381
O11   O     O_R   0.571240 0.499960 0.385340 -0.632109
O12   O     O_2   0.202303 0.278869 0.500255 -0.512608
Zn1   Zn    Zn3+2 0.500000 0.500020 0.653130 0.993951
Zn2   Zn    Zn3+2 0.500000 0.499980 0.346870 1.020277
H22   H     H_    0.258430 0.489250 0.282932 0.188978
S1    S     S_3+6 0.431835 0.130011 0.275547 0.046253
O13   O     O_2   0.460334 0.186570 0.161204 -0.270760
O14   O     O_2   0.398169 0.033520 0.217487 -0.284432
O15   O     O_3   0.399025 0.242166 0.351271 -0.537324
H23   H     H_    0.383206 0.200195 0.429199 0.343953
S2    S     S_3+6 0.246948 0.509509 0.783227 0.060767
O16   O     O_2   0.217737 0.627593 0.789851 -0.221993
O17   O     O_2   0.213460 0.399518 0.795733 -0.277101
O18   O     O_3   0.285992 0.508509 0.913989 -0.539471
H24   H     H_    0.297660 0.421131 0.919592 0.361336
S3    S     S_3+6 0.581325 0.870159 0.812162 0.044307
O19   O     O_2   0.583837 0.900640 0.961101 -0.244737
O20   O     O_2   0.582683 0.730576 0.794808 -0.302495
O21   O     O_3   0.629047 0.934445 0.732834 -0.502350
H25   H     H_    0.629995 0.894104 0.642175 0.363505
H26   H     H_    0.542499 0.335588 0.872928 0.146641
H27   H     H_    0.653152 0.512545 0.279837 0.176304
H28   H     H_    0.035118 0.181412 0.495948 0.139356

loop_
_geom_bond_atom_site_label_1
_geom_bond_atom_site_label_2
_ccdc_geom_bond_type
C10   C27   A    
C21   C26   A    
C49   H14   S    
C41   C42   S    
C54   H1    S    
S1    O13   D    
C42   S3    S    
C47   N4    A    
S1    O15   S    
C1    O5    A    
S3    O20   D    
C28   C29   A    
C12   O6    A    
C45   N1    A    
C14   H20   S    
C48   N4    A    
C36   C37   A    
C50   H15   S    
C46   H12   S    
C5    C6    A    
C9    C22   A    
N3    Zn2   S    
C23   C40   S    
O21   H25   S    
C18   C19   A    
C19   N2    A    
C20   O2    S    
O9    Zn2   S    
C16   C17   A    
C38   S1    S    
C52   H22   S    
C25   H6    S    
C31   H2    S    
C16   C20   A    
C2    S2    S    
C33   H5    S    
C23   O8    A    
C21   C22   A    
C27   C30   A    
C36   C41   A    
C53   H21   S    
C32   H3    S    
C4    C7    A    
C19   O4    S    
C4    C28   A    
O6    Zn1   S    
C43   H10   S    
C6    H17   S    
S3    O21   S    
C26   N2    S    
C7    C31   A    
C15   C16   A    
C21   H18   S    
C24   C25   A    
C2    C54   A    
C8    C54   A    
C39   C40   A    
C46   N3    A    
C25   C26   A    
C5    C45   A    
S2    O18   S    
C30   H28   S    
O1    Zn1   S    
C34   O11   A    
C37   C38   A    
O7    Zn2   S    
C43   H11   S    
S2    O17   D    
C17   C18   A    
C35   H7    S    
C51   N1    A    
O10   Zn1   S    
C3    N1    S    
C51   O3    S    
N4    Zn1   S    
C20   N2    A    
C48   C49   S    
C6    C30   A    
C11   C32   A    
O15   H23   S    
C23   O9    A    
C10   C14   A    
C9    C34   S    
C49   C50   S    
C31   C35   A    
C42   C43   S    
O18   H24   S    
C52   C53   A    
O11   Zn2   S    
C44   C50   S    
C39   H8    S    
C46   C47   A    
C40   C41   A    
C49   H13   S    
C15   H19   S    
C4    C5    A    
C10   C13   A    
C8    C53   A    
C3    C52   A    
S1    O14   D    
C9    C24   A    
C1    C37   S    
C47   H26   S    
S3    O19   D    
C29   C35   A    
C12   O7    A    
C32   C33   A    
C44   N3    A    
C2    C3    A    
C50   H16   S    
C34   O10   A    
C7    C51   A    
C11   C13   A    
C38   C39   A    
S2    O16   D    
O5    Zn2   S    
C45   O12   S    
C18   C33   A    
C13   C17   A    
C44   C48   A    
C11   C29   A    
C24   H4    S    
C22   H27   S    
C27   C28   A    
C1    O1    A    
C14   C15   A    
C36   C43   S    
O8    Zn1   S    
C42   H9    S    
C8    C12   S    
