data_mof_unit_21909.cif
_audit_creation_date              2012-12-10T20:38:19-0500
_audit_creation_method            fapswitch 2.2
_symmetry_space_group_name_H-M    P1
_symmetry_Int_Tables_number       1
_space_group_crystal_system       triclinic
_cell_length_a                    9.934824
_cell_length_b                    10.756226
_cell_length_c                    16.784016
_cell_angle_alpha                 91.247289
_cell_angle_beta                  85.744099
_cell_angle_gamma                 91.341656
_cell_volume                      1787.7633715

loop_
_atom_site_label
_atom_site_type_symbol
_atom_type_description
_atom_site_fract_x
_atom_site_fract_y
_atom_site_fract_z
_atom_type_partial_charge
C1    C     C_R   0.502431 0.739753 0.500379 0.919011
C2    C     C_R   0.356756 0.456111 0.784671 -0.178564
C3    C     C_R   0.445731 0.484858 0.125098 -0.317197
C4    C     C_R   0.422321 0.514829 0.206228 0.045344
C5    C     C_R   0.660260 0.475848 0.220613 -0.315049
C6    C     C_R   0.681186 0.445086 0.139603 0.499802
C7    C     C_R   0.570252 0.442309 0.092781 0.014339
C8    C     C_2   0.479713 0.346195 0.974293 -0.255766
C9    C     C_2   0.582542 0.404259 0.008346 -0.057732
C10   C     C_R   0.530513 0.499863 0.257008 -0.096354
C11   C     C_R   0.477864 0.935976 0.433638 0.013050
C12   C     C_R   0.482100 0.491533 0.652501 0.898337
C13   C     C_R   0.512155 0.872057 0.499928 -0.079551
C14   C     C_R   0.554801 0.938306 0.566858 -0.128830
C15   C     C_R   0.549151 0.067740 0.569598 -0.218354
C16   C     C_R   0.491333 0.128489 0.508096 0.017103
C17   C     C_R   0.452455 0.061129 0.441961 -0.048288
C18   C     C_3   0.315286 0.040493 0.409688 0.249245
C19   C     C_3   0.364265 0.910703 0.382764 0.186806
C20   C     C_R   0.925674 0.590825 0.541198 0.173609
C21   C     C_R   0.932778 0.406799 0.463181 -0.043943
C22   C     C_R   0.075738 0.410309 0.461103 -0.126101
C23   C     C_R   0.497465 0.260571 0.503938 0.837137
C24   C     C_R   0.068854 0.590756 0.540500 0.186227
C25   C     C_3   0.069026 0.612057 0.628036 -0.519730
C26   C     C_3   0.916551 0.606389 0.630815 0.277560
C27   C     C_R   0.517795 0.504084 0.345979 0.904691
C28   C     C_R   0.475279 0.448119 0.734328 -0.018160
C29   C     C_R   0.587354 0.386813 0.759953 -0.182349
C30   C     C_R   0.584376 0.341468 0.836444 -0.134233
C31   C     C_R   0.470067 0.358422 0.888785 0.174860
C32   C     C_R   0.354290 0.411245 0.862054 -0.138039
H1    H     H_    0.678248 0.374269 0.721101 0.148030
H2    H     H_    0.586865 0.890602 0.617687 0.214279
H3    H     H_    0.585050 0.119584 0.620182 0.140022
H4    H     H_    0.295620 0.832035 0.401607 0.147005
H5    H     H_    0.133204 0.337985 0.429609 0.193916
H6    H     H_    0.111307 0.533091 0.658873 0.174777
H7    H     H_    0.114335 0.704593 0.642416 0.268406
H8    H     H_    0.871955 0.523232 0.661983 0.077172
H9    H     H_    0.746444 0.479889 0.255705 0.190779
H10   H     H_    0.669823 0.438568 0.971868 0.206701
H11   H     H_    0.265584 0.425127 0.902578 0.152576
H12   H     H_    0.364076 0.493967 0.086289 0.170345
H13   H     H_    0.268325 0.500137 0.765213 0.156557
H14   H     H_    0.390459 0.314890 0.010323 0.155168
H15   H     H_    0.673722 0.299167 0.856232 0.160354
N1    N     N_R   0.857140 0.500860 0.500530 -0.168139
N2    N     N_R   0.142780 0.500820 0.500530 -0.119467
O1    O     O_R   0.385310 0.683210 0.499990 -0.600682
O2    O     O_R   0.614650 0.683240 0.500000 -0.577089
O3    O     O_R   0.371780 0.500000 0.615800 -0.624845
O4    O     O_R   0.601120 0.500040 0.615800 -0.605221
O5    O     O_R   0.385350 0.316760 0.500000 -0.577921
O6    O     O_R   0.614690 0.316790 0.500010 -0.637831
O7    O     O_R   0.398880 0.499960 0.384200 -0.631870
O8    O     O_R   0.628220 0.500000 0.384200 -0.620222
Zn1   Zn    Zn3+2 0.346870 0.499980 0.499990 0.987265
Zn2   Zn    Zn3+2 0.653130 0.500020 0.500010 0.983238
S1    S     S_3+6 0.845089 0.406615 0.098803 -0.034751
O9    O     O_2   0.894728 0.504371 0.040391 -0.305747
O10   O     O_2   0.942161 0.399684 0.162933 -0.367378
O11   O     O_3   0.837516 0.268162 0.050662 -0.575313
H16   H     H_    0.931347 0.252950 0.029095 0.380260
S2    S     S_3+6 0.185247 0.026313 0.491532 -0.020072
O12   O     O_2   0.065850 0.953712 0.464147 -0.324643
O13   O     O_2   0.238127 0.957349 0.559245 -0.294160
O14   O     O_3   0.138084 0.167308 0.525975 -0.586431
H17   H     H_    0.103191 0.154950 0.582128 0.377100
C33   C     C_R   0.280423 0.122773 0.341589 0.127291
C34   C     C_R   0.382082 0.193968 0.299872 -0.094405
C35   C     C_R   0.365857 0.229857 0.222060 -0.118502
C36   C     C_R   0.241852 0.213907 0.189141 -0.056380
C37   C     C_R   0.135535 0.154276 0.232728 -0.111445
C38   C     C_R   0.155448 0.106044 0.307529 -0.104457
H18   H     H_    0.480240 0.208793 0.322810 0.146897
H19   H     H_    0.452063 0.265096 0.186413 0.155314
H20   H     H_    0.229331 0.244515 0.129204 0.142278
H21   H     H_    0.040558 0.138342 0.206228 0.160093
H22   H     H_    0.076013 0.048802 0.335496 0.190376
S3    S     S_3+6 0.436825 0.894649 0.281258 -0.031342
O15   O     O_2   0.492218 0.766902 0.269273 -0.342579
O16   O     O_2   0.331676 0.915511 0.223635 -0.333673
O17   O     O_3   0.564391 0.997137 0.262012 -0.602160
H23   H     H_    0.593013 0.983703 0.204742 0.390759
C39   C     C_R   0.871359 0.292967 0.430310 0.182133
C40   C     C_R   0.852279 0.187947 0.478414 -0.024456
C41   C     C_R   0.812744 0.073956 0.445162 -0.082168
C42   C     C_R   0.792733 0.063367 0.364057 -0.112720
C43   C     C_R   0.810556 0.167449 0.315871 -0.149679
C44   C     C_R   0.853428 0.280811 0.348581 -0.177567
H24   H     H_    0.868596 0.194336 0.541457 0.121962
H25   H     H_    0.799938 0.992888 0.481873 0.203727
H26   H     H_    0.766794 0.973584 0.338609 0.198608
H27   H     H_    0.796936 0.159127 0.252584 0.189066
H28   H     H_    0.878846 0.356840 0.309758 0.164932
C45   C     C_R   0.288967 0.572739 0.228032 0.142403
C46   C     C_R   0.251160 0.672798 0.182017 -0.008599
C47   C     C_R   0.123590 0.724692 0.194309 -0.057122
C48   C     C_R   0.030810 0.676971 0.252349 -0.076820
C49   C     C_R   0.063840 0.574268 0.295409 -0.102007
C50   C     C_R   0.190344 0.519228 0.281593 -0.102515
H29   H     H_    0.321560 0.711377 0.136162 0.173736
H30   H     H_    0.097281 0.802452 0.159103 0.154709
H31   H     H_    0.932157 0.717507 0.262674 0.145524
H32   H     H_    0.988699 0.536608 0.337797 0.129711
H33   H     H_    0.209248 0.433294 0.310280 0.145139
S4    S     S_3+6 0.842529 0.748248 0.667272 0.037565
O18   O     O_2   0.694264 0.725904 0.687113 -0.318948
O19   O     O_2   0.906898 0.790174 0.741869 -0.277101
O20   O     O_3   0.866978 0.858363 0.597885 -0.535619
H34   H     H_    0.849601 0.938037 0.627136 0.366995

loop_
_geom_bond_atom_site_label_1
_geom_bond_atom_site_label_2
_ccdc_geom_bond_type
C10   C27   S    
C18   C33   S    
C40   C41   A    
C49   C50   A    
O6    Zn2   S    
C23   O5    A    
C36   C37   A    
O20   H34   S    
C45   C46   A    
O4    Zn2   S    
C43   H27   S    
C18   S2    S    
C11   C19   S    
C9    H10   S    
C35   H19   S    
C12   C28   S    
S1    O11   S    
C5    C6    A    
C2    C32   A    
C28   C29   A    
C3    C7    A    
C19   H4    S    
C30   C31   A    
O8    Zn2   S    
C16   C17   A    
C46   H29   S    
C29   H1    S    
C24   N2    A    
S4    O18   D    
S1    O10   D    
C18   C19   S    
C42   H26   S    
C20   C24   A    
C12   O3    A    
C44   H28   S    
C41   H25   S    
C31   C32   A    
O7    Zn1   S    
O14   H17   S    
S2    O13   D    
C36   H20   S    
C33   C34   A    
C38   H22   S    
C12   O4    A    
C21   N1    A    
C47   H30   S    
C13   C14   A    
C15   H3    S    
S3    O16   D    
S3    O15   D    
C2    H13   S    
C3    H12   S    
C37   C38   A    
O1    Zn1   S    
C6    S1    S    
C30   H15   S    
C24   C25   S    
C27   O8    A    
C26   S4    S    
C39   C40   A    
C8    C9    D    
C25   C26   S    
C22   H5    S    
N2    Zn1   S    
S1    O9    D    
C29   C30   A    
C1    O1    A    
C25   H6    S    
C47   C48   A    
S2    O14   S    
C17   C18   S    
C48   H31   S    
C50   H33   S    
O17   H23   S    
C1    O2    A    
C20   N1    A    
O3    Zn1   S    
C22   N2    A    
C46   C47   A    
C16   C23   S    
C37   H21   S    
C1    C13   S    
C4    C10   A    
C3    C4    A    
S3    O17   S    
C40   H24   S    
N1    Zn2   S    
O5    Zn1   S    
C49   H32   S    
C7    C9    S    
C5    H9    S    
C21   C39   S    
C11   C17   A    
C27   O7    A    
C8    C31   S    
C45   C50   A    
C35   C36   A    
C14   H2    S    
C23   O6    A    
C6    C7    A    
S4    O20   S    
C39   C44   A    
C21   C22   A    
C34   C35   A    
C19   S3    S    
C25   H7    S    
C11   C13   A    
C26   H8    S    
C43   C44   A    
C34   H18   S    
C20   C26   S    
C48   C49   A    
C32   H11   S    
S4    O19   D    
C8    H14   S    
O11   H16   S    
C5    C10   A    
O2    Zn2   S    
C41   C42   A    
S2    O12   D    
C33   C38   A    
C14   C15   A    
C2    C28   A    
C42   C43   A    
C4    C45   S    
C15   C16   A    
