data_mof_unit_24164.cif
_audit_creation_date              2012-10-26T20:48:50-0400
_audit_creation_method            fapswitch 2.2
_symmetry_space_group_name_H-M    P1
_symmetry_Int_Tables_number       1
_space_group_crystal_system       triclinic
_cell_length_a                    15.206159
_cell_length_b                    13.952188
_cell_length_c                    9.074384
_cell_angle_alpha                 90.00004
_cell_angle_beta                  90.865109
_cell_angle_gamma                 89.999963
_cell_volume                      1924.99450047

loop_
_atom_site_label
_atom_site_type_symbol
_atom_type_description
_atom_site_fract_x
_atom_site_fract_y
_atom_site_fract_z
_atom_type_partial_charge
C1    C     C_R   0.329706 0.500463 0.498937 0.526465
C2    C     C_R   0.559943 0.891665 0.587452 -0.152842
C3    C     C_R   0.500187 0.499983 0.220733 0.531379
C4    C     C_R   0.499812 0.499983 0.779266 0.531376
C5    C     C_R   0.500000 0.053258 0.500000 -0.009081
C6    C     C_R   0.500000 0.944520 0.500000 -0.009468
C7    C     C_1   0.500074 0.499856 0.065555 -0.079901
C8    C     C_1   0.499925 0.499856 0.934445 -0.079902
C9    C     C_R   0.094799 0.572221 0.584687 -0.118549
C10   C     C_R   0.909154 0.441611 0.589159 -0.115488
C11   C     C_R   0.905200 0.572220 0.415311 -0.118549
C12   C     C_R   0.670294 0.500463 0.501062 0.526464
C13   C     C_R   0.090847 0.441611 0.410838 -0.115489
C14   C     C_R   0.186799 0.571680 0.586812 -0.020381
C15   C     C_R   0.817403 0.439490 0.593572 -0.022976
C16   C     C_R   0.813201 0.571679 0.413185 -0.020381
C17   C     C_R   0.182597 0.439490 0.406426 -0.022976
C18   C     C_R   0.232343 0.503052 0.498542 0.031226
C19   C     C_R   0.767656 0.503051 0.501456 0.031225
C20   C     C_R   0.047756 0.507184 0.498878 -0.003395
C21   C     C_R   0.952244 0.507184 0.501120 -0.003395
C22   C     C_3   0.231959 0.644451 0.687351 -0.247390
C23   C     C_R   0.532951 0.207472 0.618573 0.226839
C24   C     C_3   0.272168 0.596122 0.823828 -0.287103
C25   C     C_3   0.317638 0.668606 0.925118 -0.451031
C26   C     C_3   0.777103 0.373354 0.706449 -0.252181
C27   C     C_3   0.740242 0.430246 0.836681 -0.279255
C28   C     C_3   0.732876 0.368513 0.975181 -0.447852
C29   C     C_3   0.768040 0.644449 0.312644 -0.247391
C30   C     C_3   0.727833 0.596117 0.176167 -0.287104
C31   C     C_3   0.682363 0.668600 0.074874 -0.451032
C32   C     C_3   0.222897 0.373356 0.293547 -0.252182
C33   C     C_3   0.259755 0.430249 0.163313 -0.279255
C34   C     C_R   0.441617 0.790517 0.412203 0.223291
C35   C     C_3   0.267125 0.368514 0.024816 -0.447851
C36   C     C_R   0.467050 0.207472 0.381427 0.226840
C37   C     C_R   0.558383 0.790516 0.587797 0.223291
C38   C     C_R   0.530892 0.106171 0.621209 -0.150479
C39   C     C_R   0.440057 0.891665 0.412549 -0.152842
C40   C     C_R   0.469109 0.106170 0.378792 -0.150479
Cu1   Cu    Cu3+1 0.500000 0.596430 0.500000 0.969497
Cu2   Cu    Cu3+1 0.500000 0.403570 0.500000 0.981648
H1    H     H_    0.058956 0.622619 0.652134 0.106117
H2    H     H_    0.533108 0.240717 0.833901 0.208577
H3    H     H_    0.317709 0.758837 0.346615 0.196760
H4    H     H_    0.392093 0.761091 0.210180 0.198289
H5    H     H_    0.367015 0.223789 0.238181 0.180013
H6    H     H_    0.466892 0.240714 0.166098 0.208574
H7    H     H_    0.682291 0.758834 0.653382 0.196762
H8    H     H_    0.607909 0.761093 0.789820 0.198287
H9    H     H_    0.372641 0.704048 0.867129 0.172303
H10   H     H_    0.270093 0.723756 0.961918 0.138020
H11   H     H_    0.344525 0.631099 0.023817 0.154138
H12   H     H_    0.948038 0.393481 0.657729 0.107529
H13   H     H_    0.219186 0.559768 0.885583 0.154312
H14   H     H_    0.320831 0.541602 0.790533 0.171497
H15   H     H_    0.281283 0.687090 0.627268 0.179440
H16   H     H_    0.183663 0.698469 0.726019 0.118426
H17   H     H_    0.693848 0.406586 0.058963 0.143453
H18   H     H_    0.699679 0.299635 0.951197 0.156423
H19   H     H_    0.799391 0.353507 0.021910 0.142216
H20   H     H_    0.783788 0.492130 0.863065 0.154707
H21   H     H_    0.674593 0.458879 0.806241 0.186051
H22   H     H_    0.726328 0.327803 0.653874 0.181885
H23   H     H_    0.941043 0.622618 0.347862 0.106117
H24   H     H_    0.827521 0.322283 0.749460 0.123345
H25   H     H_    0.627359 0.704042 0.132859 0.172302
H26   H     H_    0.729908 0.723749 0.038073 0.138020
H27   H     H_    0.655478 0.631091 0.976174 0.154139
H28   H     H_    0.780815 0.559762 0.114414 0.154314
H29   H     H_    0.679169 0.541598 0.209463 0.171496
H30   H     H_    0.718715 0.687087 0.372724 0.179439
H31   H     H_    0.816335 0.698467 0.273975 0.118427
H32   H     H_    0.306143 0.406592 0.941027 0.143450
H33   H     H_    0.300335 0.299644 0.048800 0.156429
H34   H     H_    0.051962 0.393481 0.342267 0.107529
H35   H     H_    0.200611 0.353494 0.978095 0.142216
H36   H     H_    0.216203 0.492128 0.136926 0.154708
H37   H     H_    0.325401 0.458889 0.193752 0.186045
H38   H     H_    0.273675 0.327807 0.346119 0.181889
H39   H     H_    0.172481 0.322282 0.250539 0.123344
H40   H     H_    0.554251 0.069864 0.719593 0.086368
H41   H     H_    0.391049 0.927740 0.345089 0.087079
H42   H     H_    0.445750 0.069864 0.280407 0.086368
H43   H     H_    0.608951 0.927740 0.654911 0.087079
H44   H     H_    0.632985 0.223789 0.761820 0.180015
N1    N     N_R   0.500000 0.258690 0.500000 -0.158031
N2    N     N_R   0.500000 0.741310 0.500000 -0.162834
N3    N     N_3   0.571653 0.255317 0.742087 -0.568605
N4    N     N_3   0.381673 0.739146 0.318671 -0.564677
N5    N     N_3   0.428347 0.255317 0.257912 -0.568606
N6    N     N_3   0.618327 0.739146 0.681329 -0.564677
O1    O     O_R   0.371460 0.581430 0.500010 -0.485133
O2    O     O_R   0.628540 0.418570 0.499990 -0.498990
O3    O     O_R   0.628540 0.581430 0.499990 -0.485134
O4    O     O_R   0.371460 0.418570 0.500010 -0.498991
O5    O     O_R   0.500000 0.581420 0.288390 -0.479966
O6    O     O_R   0.500000 0.418580 0.711610 -0.465818
O7    O     O_R   0.500000 0.581420 0.711610 -0.479964
O8    O     O_R   0.500000 0.418580 0.288390 -0.465815

loop_
_geom_bond_atom_site_label_1
_geom_bond_atom_site_label_2
_ccdc_geom_bond_type
C35   H32   S    
C4    O6    A    
Cu1   Cu2   S    
C40   H42   S    
C37   N2    A    
C4    C8    S    
C22   H15   S    
C25   H9    S    
C30   H29   S    
C7    C8    T    
C24   H13   S    
C31   H25   S    
C32   H39   S    
C35   H33   S    
C26   C27   S    
Cu2   O4    S    
C5    C6    S    
C25   H11   S    
C3    C7    S    
C10   C15   A    
Cu2   O6    S    
C30   C31   S    
C33   H36   S    
C29   H31   S    
C2    H43   S    
C14   C18   A    
C26   H22   S    
C3    O8    A    
Cu1   O1    S    
H6    N5    S    
Cu1   O7    S    
C12   O3    A    
C37   N6    S    
C29   H30   S    
C28   H19   S    
C36   N1    A    
C23   N1    A    
C5    C38   A    
C38   H40   S    
C12   O2    A    
C2    C6    A    
C30   H28   S    
C28   H18   S    
C10   C21   A    
C16   C19   A    
C31   H26   S    
C9    H1    S    
C34   C39   A    
C26   H24   S    
C36   C40   A    
C24   C25   S    
C33   H37   S    
C15   C26   S    
C16   C29   S    
C35   H35   S    
C15   C19   A    
C9    C14   A    
C34   N4    S    
C29   C30   S    
C27   H20   S    
Cu2   O8    S    
C32   H38   S    
C11   C16   A    
C3    O5    A    
C9    C20   A    
C13   H34   S    
C23   N3    S    
C17   C18   A    
C1    C18   S    
C34   N2    A    
H3    N4    S    
C27   H21   S    
C36   N5    S    
H8    N6    S    
Cu1   O5    S    
C5    C40   A    
H7    N6    S    
C28   H17   S    
Cu1   N2    S    
C13   C20   A    
Cu2   O2    S    
H5    N5    S    
H44   N3    S    
C22   H16   S    
H4    N4    S    
C24   H14   S    
C23   C38   A    
C13   C17   A    
C32   C33   S    
C14   C22   S    
C25   H10   S    
C39   H41   S    
C2    C37   A    
Cu1   O3    S    
C1    O4    A    
C12   C19   S    
C33   C35   S    
C11   C21   A    
C22   C24   S    
C10   H12   S    
C31   H27   S    
C20   C21   S    
C1    O1    A    
C4    O7    A    
C27   C28   S    
C17   C32   S    
C6    C39   A    
Cu2   N1    S    
H2    N3    S    
C11   H23   S    
