data_mof_unit_61675.cif
_audit_creation_date              2012-12-10T19:30:27-0500
_audit_creation_method            fapswitch 2.2
_symmetry_space_group_name_H-M    P1
_symmetry_Int_Tables_number       1
_space_group_crystal_system       triclinic
_cell_length_a                    17.776434
_cell_length_b                    16.425875
_cell_length_c                    19.353059
_cell_angle_alpha                 89.849776
_cell_angle_beta                  90.164286
_cell_angle_gamma                 89.953619
_cell_volume                      5650.92256144

loop_
_atom_site_label
_atom_site_type_symbol
_atom_type_description
_atom_site_fract_x
_atom_site_fract_y
_atom_site_fract_z
_atom_type_partial_charge
C1    C     C_R   0.355107 0.500034 0.499940 0.848434
C2    C     C_R   0.453244 0.171275 0.454952 -0.292174
C3    C     C_R   0.453079 0.829075 0.455126 -0.292913
C4    C     C_R   0.546923 0.170925 0.544872 -0.292911
C5    C     C_R   0.545802 0.742853 0.544334 0.084048
C6    C     C_R   0.454196 0.257147 0.455668 0.084055
C7    C     C_R   0.453918 0.743212 0.455980 0.080997
C8    C     C_R   0.546084 0.256788 0.544018 0.080987
C9    C     C_R   0.499997 0.873060 0.500011 0.155607
C10   C     C_R   0.500003 0.126940 0.499989 0.155608
C11   C     C_1   0.499999 0.962691 0.500002 -0.044051
C12   C     C_R   0.644893 0.499966 0.500059 0.848435
C13   C     C_1   0.500000 0.037309 0.499998 -0.044051
C14   C     C_R   0.500556 0.500036 0.367484 0.785309
C15   C     C_R   0.499444 0.499964 0.632516 0.785308
C16   C     C_R   0.437119 0.530494 0.255057 0.097426
C17   C     C_R   0.562875 0.469496 0.744944 0.097424
C18   C     C_R   0.437061 0.531314 0.744586 0.129738
C19   C     C_R   0.562942 0.468696 0.255414 0.129732
C20   C     C_R   0.437800 0.529424 0.182739 -0.173010
C21   C     C_R   0.562194 0.470565 0.817261 -0.173011
C22   C     C_R   0.438271 0.531422 0.816901 -0.186062
C23   C     C_R   0.728155 0.499956 0.499958 -0.257312
C24   C     C_R   0.561731 0.468587 0.183099 -0.186061
C25   C     C_R   0.499708 0.498958 0.146380 -0.019870
C26   C     C_R   0.500289 0.501040 0.853620 -0.019869
C27   C     C_R   0.500201 0.499939 0.291819 -0.070098
C28   C     C_R   0.499798 0.500061 0.708182 -0.070096
C29   C     C_R   0.500210 0.500665 0.929878 0.434643
C30   C     C_R   0.499786 0.499333 0.070122 0.434643
C31   C     C_R   0.847029 0.569390 0.479047 -0.250530
C32   C     C_R   0.152970 0.430612 0.520953 -0.250527
C33   C     C_R   0.152702 0.569367 0.479180 -0.248102
C34   C     C_R   0.271844 0.500044 0.500041 -0.257316
C35   C     C_R   0.847298 0.430634 0.520819 -0.248098
C36   C     C_R   0.768224 0.571004 0.480537 0.423175
C37   C     C_R   0.231776 0.428997 0.519463 0.423181
C38   C     C_R   0.231419 0.571103 0.480972 0.428042
C39   C     C_R   0.768582 0.428897 0.519027 0.428043
C40   C     C_3   0.367301 0.562803 0.290658 -0.395916
C41   C     C_3   0.361125 0.655010 0.282330 -0.780401
C42   C     C_3   0.632686 0.437171 0.709344 -0.395918
C43   C     C_3   0.638842 0.344964 0.717672 -0.780435
C44   C     C_3   0.366892 0.562082 0.708131 -0.458431
C45   C     C_R   0.886021 0.500079 0.500097 -0.001830
C46   C     C_3   0.317285 0.491514 0.684764 -0.765534
C47   C     C_3   0.633117 0.437940 0.291870 -0.458436
C48   C     C_3   0.682715 0.508517 0.315232 -0.765509
C49   C     C_3   0.740621 0.703880 0.503086 -0.281898
C50   C     C_3   0.259378 0.296122 0.496912 -0.281901
C51   C     C_3   0.262416 0.700728 0.510150 -0.302691
C52   C     C_3   0.737582 0.299274 0.489848 -0.302704
C53   C     C_R   0.113979 0.499923 0.499903 -0.001830
C54   C     C_1   0.966300 0.500032 0.500031 -0.009532
C55   C     C_1   0.033700 0.499970 0.499969 -0.009532
C56   C     C_R   0.546753 0.828725 0.545050 -0.292175
Cu1   Cu    Cu3+1 0.500000 0.580420 0.500000 0.956311
Cu2   Cu    Cu3+1 0.500000 0.419580 0.500000 0.956309
H1    H     H_    0.389235 0.552334 0.154856 0.162550
H2    H     H_    0.416231 0.139824 0.419403 0.132065
H3    H     H_    0.415862 0.860778 0.419735 0.137137
H4    H     H_    0.584142 0.139222 0.580260 0.137137
H5    H     H_    0.581971 0.709519 0.579429 0.114941
H6    H     H_    0.418025 0.290481 0.420574 0.114940
H7    H     H_    0.417071 0.710121 0.421653 0.156253
H8    H     H_    0.582934 0.289879 0.578342 0.156260
H9    H     H_    0.313370 0.678066 0.313565 0.259557
H10   H     H_    0.413707 0.684911 0.300080 0.248580
H11   H     H_    0.351008 0.671376 0.227377 0.239691
H12   H     H_    0.610754 0.447646 0.845145 0.162551
H13   H     H_    0.316605 0.533622 0.267885 0.195444
H14   H     H_    0.366290 0.547783 0.346521 0.207275
H15   H     H_    0.586257 0.315077 0.699915 0.248591
H16   H     H_    0.686594 0.321898 0.686441 0.259546
H17   H     H_    0.648949 0.328595 0.772625 0.239701
H18   H     H_    0.633702 0.452193 0.653482 0.207288
H19   H     H_    0.683388 0.466339 0.732120 0.195453
H20   H     H_    0.266526 0.515741 0.658180 0.232052
H21   H     H_    0.348043 0.451405 0.648478 0.272014
H22   H     H_    0.299095 0.455018 0.730125 0.255615
H23   H     H_    0.389907 0.554503 0.844609 0.157702
H24   H     H_    0.333258 0.601196 0.743261 0.202421
H25   H     H_    0.381568 0.601070 0.663284 0.217592
H26   H     H_    0.651953 0.548623 0.351519 0.272022
H27   H     H_    0.733480 0.484300 0.341814 0.232057
H28   H     H_    0.700898 0.545016 0.269869 0.255608
H29   H     H_    0.618447 0.398953 0.336718 0.217581
H30   H     H_    0.666754 0.398828 0.256740 0.202422
H31   H     H_    0.799202 0.727324 0.501340 0.147077
H32   H     H_    0.725426 0.686003 0.556835 0.139703
H33   H     H_    0.702939 0.754624 0.487584 0.188455
H34   H     H_    0.610098 0.445513 0.155391 0.157703
H35   H     H_    0.274576 0.313999 0.443164 0.139702
H36   H     H_    0.200797 0.272679 0.498655 0.147076
H37   H     H_    0.297058 0.245376 0.512414 0.188455
H38   H     H_    0.286286 0.679419 0.560323 0.165359
H39   H     H_    0.203144 0.720793 0.516935 0.149714
H40   H     H_    0.295099 0.754796 0.493634 0.179041
H41   H     H_    0.796854 0.279217 0.483053 0.149714
H42   H     H_    0.713699 0.320579 0.439681 0.165369
H43   H     H_    0.704909 0.245201 0.506370 0.179038
H44   H     H_    0.877859 0.622262 0.461190 0.156014
H45   H     H_    0.122140 0.377740 0.538810 0.156014
H46   H     H_    0.121809 0.622622 0.461921 0.156497
H47   H     H_    0.878192 0.377380 0.538077 0.156500
H48   H     H_    0.583764 0.860176 0.580601 0.132066
N1    N     N_R   0.559465 0.469700 0.034524 -0.245162
N2    N     N_R   0.440532 0.530298 0.965476 -0.245162
N3    N     N_R   0.559662 0.470327 0.965811 -0.246899
N4    N     N_R   0.440334 0.529671 0.034189 -0.246898
N5    N     N_R   0.500000 0.701220 0.500000 -0.163241
N6    N     N_R   0.500000 0.298780 0.500000 -0.163241
O1    O     O_R   0.391260 0.567930 0.500000 -0.552835
O2    O     O_3   0.269764 0.360961 0.543646 -0.557106
O3    O     O_3   0.268674 0.640281 0.458789 -0.577020
O4    O     O_3   0.731327 0.359719 0.541211 -0.577017
O5    O     O_R   0.608740 0.432070 0.500000 -0.552845
O6    O     O_R   0.608740 0.567930 0.500000 -0.547905
O7    O     O_R   0.391260 0.432070 0.500000 -0.547906
O8    O     O_R   0.499990 0.567930 0.400140 -0.570902
O9    O     O_R   0.500010 0.432070 0.599860 -0.570899
O10   O     O_R   0.500010 0.567930 0.599860 -0.605056
O11   O     O_R   0.499990 0.432070 0.400140 -0.605055
O12   O     O_3   0.730235 0.639039 0.456353 -0.557112

loop_
_geom_bond_atom_site_label_1
_geom_bond_atom_site_label_2
_ccdc_geom_bond_type
C43   H15   S    
C21   C26   A    
C51   H39   S    
C15   O10   A    
C30   N1    A    
C33   H46   S    
C5    C56   A    
C49   H32   S    
C4    C8    A    
C44   H25   S    
C42   H18   S    
Cu1   Cu2   S    
C41   H9    S    
C8    H8    S    
C12   C23   S    
Cu2   O11   S    
C30   N4    A    
C3    C9    A    
C29   N3    A    
C40   H13   S    
C44   H24   S    
C8    N6    A    
C46   H21   S    
C19   C47   S    
C50   H37   S    
C20   C25   A    
C34   C37   A    
C4    H4    S    
C5    H5    S    
C1    O7    A    
C6    H6    S    
C42   H19   S    
C17   C42   S    
Cu1   O10   S    
C7    N5    A    
C29   N2    A    
C14   C27   S    
C19   C27   A    
C31   C36   A    
C51   H38   S    
C43   H16   S    
C52   O4    S    
C34   C38   A    
C33   C53   A    
N1    N3    A    
C51   H40   S    
C2    C6    A    
C2    H2    S    
C1    O1    A    
C49   H33   S    
C24   H34   S    
C44   C46   S    
C1    C34   S    
C41   H10   S    
C3    H3    S    
C43   H17   S    
C52   H43   S    
C22   H23   S    
C18   C28   A    
C24   C25   A    
C46   H20   S    
C50   H36   S    
Cu1   O1    S    
C37   O2    S    
C5    N5    A    
C49   O12   S    
C52   H42   S    
Cu2   O5    S    
C17   C21   A    
C48   H26   S    
C50   O2    S    
C47   H29   S    
C35   C39   A    
C31   H44   S    
C35   H47   S    
C18   C44   S    
C7    H7    S    
C47   C48   S    
C16   C20   A    
C32   H45   S    
C9    C56   A    
C32   C37   A    
C20   H1    S    
C9    C11   S    
C56   H48   S    
C16   C40   S    
Cu1   O8    S    
C12   O6    A    
C40   C41   S    
C45   C54   S    
C23   C36   A    
C14   O8    A    
C22   C26   A    
Cu2   N6    S    
C42   C43   S    
C53   C55   S    
C4    C10   A    
C35   C45   A    
C32   C53   A    
C41   H11   S    
C25   C30   S    
C54   C55   T    
Cu2   O9    S    
C14   O11   A    
C40   H14   S    
C36   O12   S    
C18   C22   A    
C17   C28   A    
C6    N6    A    
C49   H31   S    
C10   C13   S    
C50   H35   S    
C52   H41   S    
C3    C7    A    
C33   C38   A    
C21   H12   S    
C47   H30   S    
C19   C24   A    
C46   H22   S    
C38   O3    S    
C11   C13   T    
C15   C28   S    
Cu1   N5    S    
C16   C27   A    
C23   C39   A    
Cu2   O7    S    
N2    N4    A    
C48   H28   S    
C15   O9    A    
C51   O3    S    
C12   O5    A    
C26   C29   S    
C39   O4    S    
C31   C45   A    
C48   H27   S    
Cu1   O6    S    
C2    C10   A    
