data_mof_unit_68345.cif
_audit_creation_date              2013-03-05T16:10:58-0500
_audit_creation_method            fapswitch 2.2
_symmetry_space_group_name_H-M    P1
_symmetry_Int_Tables_number       1
_space_group_crystal_system       triclinic
_cell_length_a                    16.722313
_cell_length_b                    28.055025
_cell_length_c                    8.512948
_cell_angle_alpha                 90.260803
_cell_angle_beta                  103.233322
_cell_angle_gamma                 90.574912
_cell_volume                      3887.46248203

loop_
_atom_site_label
_atom_site_type_symbol
_atom_site_description
_atom_site_fract_x
_atom_site_fract_y
_atom_site_fract_z
_atom_type_partial_charge
P1    P     P_3+3 0.171820 0.553000 0.158080 0.501347
P2    P     P_3+3 0.171820 0.447000 0.658080 0.491111
P3    P     P_3+3 0.671820 0.053000 0.158080 0.501349
P4    P     P_3+3 0.671820 0.947000 0.658080 0.491143
O1    O     O_2   0.163830 0.569270 0.980510 -0.366817
O2    O     O_2   0.163830 0.430730 0.480510 -0.371548
O3    O     O_2   0.663830 0.069270 0.980510 -0.366771
O4    O     O_2   0.663830 0.930730 0.480510 -0.371496
O5    O     O_3   0.095420 0.524330 0.188510 -0.412018
O6    O     O_3   0.095420 0.475670 0.688510 -0.410108
O7    O     O_3   0.595420 0.024330 0.188510 -0.412036
O8    O     O_3   0.595420 0.975670 0.688510 -0.410101
O9    O     O_3   0.028940 0.612400 0.656050 -0.421241
O10   O     O_3   0.028940 0.387600 0.156050 -0.407397
O11   O     O_3   0.528940 0.112400 0.656050 -0.421247
O12   O     O_3   0.528940 0.887600 0.156050 -0.407341
O13   O     O_2   0.151502 0.654540 0.865188 -0.369636
O14   O     O_2   0.152075 0.344950 0.351141 -0.381214
O15   O     O_2   0.651506 0.154538 0.865181 -0.369579
O16   O     O_2   0.652136 0.845018 0.351185 -0.381076
O17   O     O_3   0.256306 0.514956 0.192577 -0.521362
O18   O     O_3   0.260284 0.482918 0.702565 -0.526223
O19   O     O_3   0.756316 0.014963 0.192598 -0.521401
O20   O     O_3   0.760274 0.982925 0.702556 -0.526234
O21   O     O_3   0.057096 0.711415 0.662106 -0.532612
O22   O     O_3   0.043570 0.289157 0.164858 -0.556045
O23   O     O_3   0.557091 0.211417 0.662130 -0.532622
O24   O     O_3   0.543661 0.789161 0.165195 -0.556142
H1    H     H_    0.950070 0.683955 0.715085 0.156026
H2    H     H_    0.940078 0.319867 0.215216 0.179125
H3    H     H_    0.450065 0.183955 0.715100 0.156013
H4    H     H_    0.440062 0.819971 0.214867 0.179176
C1    C     C_3   0.926697 0.751470 0.593883 -0.706498
C2    C     C_3   0.908949 0.253725 0.088010 -0.802989
C3    C     C_3   0.426689 0.251470 0.593893 -0.706504
C4    C     C_3   0.409086 0.753643 0.088788 -0.802364
H5    H     H_    0.904376 0.761579 0.702132 0.257928
H6    H     H_    0.843431 0.262171 0.040837 0.228611
H7    H     H_    0.404331 0.261568 0.702108 0.257871
H8    H     H_    0.343753 0.761980 0.039087 0.227828
H9    H     H_    0.967533 0.780301 0.567248 0.305303
H10   H     H_    0.913977 0.234128 0.201698 0.297418
H11   H     H_    0.467537 0.280306 0.567335 0.305267
H12   H     H_    0.413066 0.734591 0.203156 0.297584
P5    P     P_3+3 0.829210 0.554130 0.532500 0.479067
P6    P     P_3+3 0.829210 0.445870 0.032500 0.475477
P7    P     P_3+3 0.329210 0.054130 0.532500 0.479140
P8    P     P_3+3 0.329210 0.945870 0.032500 0.475554
P9    P     P_3+3 0.893146 0.655293 0.010769 0.461108
P10   P     P_3+3 0.892813 0.344447 0.511598 0.498626
P11   P     P_3+3 0.393136 0.155286 0.010763 0.461134
P12   P     P_3+3 0.392823 0.844444 0.511591 0.498654
O25   O     O_2   0.837400 0.570350 0.710350 -0.378639
O26   O     O_2   0.837400 0.429650 0.210350 -0.341254
O27   O     O_2   0.337400 0.070350 0.710350 -0.378661
O28   O     O_2   0.337400 0.929650 0.210350 -0.341208
O29   O     O_3   0.972820 0.612580 0.035550 -0.349533
O30   O     O_3   0.972820 0.387420 0.535550 -0.360314
O31   O     O_3   0.472820 0.112580 0.035550 -0.349510
O32   O     O_3   0.472820 0.887420 0.535550 -0.360142
O33   O     O_2   0.830625 0.642157 0.853974 -0.372498
O34   O     O_2   0.831228 0.355756 0.352191 -0.371731
O35   O     O_2   0.330618 0.142144 0.853975 -0.372516
O36   O     O_2   0.331239 0.855755 0.352186 -0.371638
O37   O     O_3   0.744351 0.514637 0.488062 -0.597594
O38   O     O_3   0.744615 0.484384 0.988075 -0.630891
O39   O     O_3   0.244342 0.014645 0.488030 -0.597498
O40   O     O_3   0.244625 0.984392 0.988076 -0.630896
O41   O     O_3   0.921500 0.714374 0.970653 -0.581589
O42   O     O_3   0.925192 0.286103 0.478947 -0.567637
O43   O     O_3   0.421464 0.214369 0.970628 -0.581596
O44   O     O_3   0.425208 0.786102 0.478929 -0.568086
C5    C     C_3   0.005242 0.723920 0.037096 0.234171
C6    C     C_3   0.008752 0.279042 0.553654 0.287574
C7    C     C_3   0.505197 0.223933 0.037087 0.234134
C8    C     C_3   0.508769 0.779039 0.553616 0.287253
H13   H     H_    0.042562 0.698316 0.985197 0.146458
H14   H     H_    0.047345 0.307705 0.518008 0.120818
H15   H     H_    0.542541 0.198343 0.985190 0.146414
H16   H     H_    0.547356 0.807695 0.517901 0.121124
C9    C     C_3   0.031059 0.774331 0.993313 -0.723087
C10   C     C_3   0.038969 0.231405 0.495843 -0.711090
C11   C     C_3   0.530970 0.274355 0.993327 -0.722964
C12   C     C_3   0.538992 0.731393 0.495864 -0.711061
H17   H     H_    0.040041 0.774146 0.868666 0.224911
H18   H     H_    0.049697 0.235354 0.373809 0.238618
H19   H     H_    0.539995 0.274178 0.868706 0.224852
H20   H     H_    0.549701 0.735332 0.373816 0.238992
C13   C     C_3   0.716479 0.498626 0.124032 0.125031
C14   C     C_3   0.717134 0.500104 0.624816 0.268676
C15   C     C_3   0.216462 0.998619 0.124019 0.124992
C16   C     C_3   0.217150 0.000074 0.624769 0.268619
H21   H     H_    0.767347 0.499883 0.232113 0.156446
H22   H     H_    0.768215 0.499711 0.732589 0.119701
H23   H     H_    0.267298 0.999834 0.232154 0.156628
H24   H     H_    0.268224 0.999703 0.732556 0.119621
C17   C     C_3   0.648166 0.463977 0.149151 -0.582508
C18   C     C_3   0.648324 0.533354 0.651934 -0.683696
C19   C     C_3   0.148085 0.963991 0.148959 -0.582351
C20   C     C_3   0.148274 0.033276 0.651876 -0.683445
H25   H     H_    0.675081 0.428113 0.176130 0.225179
H26   H     H_    0.673523 0.570138 0.673393 0.217019
H27   H     H_    0.174930 0.928101 0.175743 0.225062
H28   H     H_    0.173387 0.070081 0.673192 0.216940
H29   H     H_    0.624395 0.475388 0.254538 0.198183
H30   H     H_    0.627767 0.522562 0.761531 0.201344
H31   H     H_    0.124345 0.975369 0.254418 0.198129
H32   H     H_    0.127784 0.022486 0.761544 0.201220
Ba1   Ba    Ba6+2 0.000400 0.534870 0.845190 1.589982
Ba2   Ba    Ba6+2 0.000400 0.465130 0.345190 1.594671
Ba3   Ba    Ba6+2 0.500400 0.034870 0.845190 1.590016
Ba4   Ba    Ba6+2 0.500400 0.965130 0.345190 1.594725
C21   C     C_3   0.235245 0.470861 0.117898 0.418601
C22   C     C_3   0.246099 0.526062 0.622164 0.449272
C23   C     C_3   0.735270 0.970868 0.117907 0.418524
C24   C     C_3   0.746089 0.026061 0.622103 0.449280
H33   H     H_    0.204688 0.475611 0.989283 0.092918
H34   H     H_    0.218766 0.520055 0.492049 0.096910
H35   H     H_    0.704729 0.975620 0.989285 0.092943
H36   H     H_    0.718744 0.020044 0.491999 0.096936
H37   H     H_    0.194587 0.450738 0.181249 0.099196
H38   H     H_    0.205560 0.548155 0.679044 0.087149
H39   H     H_    0.694606 0.950742 0.181234 0.099187
H40   H     H_    0.705560 0.048164 0.678975 0.087114
C25   C     C_3   0.314438 0.443280 0.129128 -0.886027
C26   C     C_3   0.328379 0.551588 0.639017 -0.937601
C27   C     C_3   0.814472 0.943292 0.129172 -0.886029
C28   C     C_3   0.828372 0.051581 0.638900 -0.937597
H41   H     H_    0.353138 0.461271 0.056572 0.277671
H42   H     H_    0.369639 0.529887 0.582653 0.290717
H43   H     H_    0.853183 0.961290 0.056655 0.277659
H44   H     H_    0.869640 0.029855 0.582635 0.290702
H45   H     H_    0.301376 0.406356 0.083871 0.196451
H46   H     H_    0.319661 0.586529 0.578505 0.196291
H47   H     H_    0.801421 0.906371 0.083891 0.196460
H48   H     H_    0.819660 0.086501 0.578258 0.196320
H49   H     H_    0.349334 0.441690 0.256684 0.276204
H50   H     H_    0.357799 0.557451 0.768480 0.263032
H51   H     H_    0.849350 0.941699 0.256740 0.276208
H52   H     H_    0.857777 0.057483 0.768350 0.262923
O45   O     O_3   0.904940 0.476110 0.001150 -0.378375
O46   O     O_3   0.904940 0.523890 0.501150 -0.362694
O47   O     O_3   0.404940 0.976110 0.001150 -0.378358
O48   O     O_3   0.404940 0.023890 0.501150 -0.362746
P13   P     P_3+3 0.100176 0.342292 0.176134 0.465571
P14   P     P_3+3 0.106207 0.655948 0.685410 0.449671
P15   P     P_3+3 0.600210 0.842309 0.176211 0.465570
P16   P     P_3+3 0.606205 0.155951 0.685407 0.449696
C29   C     C_3   0.971114 0.704013 0.620190 0.396627
C30   C     C_3   0.959122 0.299436 0.119116 0.363973
C31   C     C_3   0.471109 0.204013 0.620208 0.396662
C32   C     C_3   0.459200 0.799392 0.119174 0.363095
H53   H     H_    0.951922 0.683287 0.507296 0.050175
H54   H     H_    0.943850 0.320503 0.007449 0.122072
H55   H     H_    0.451920 0.183286 0.507317 0.050154
H56   H     H_    0.443967 0.820296 0.007157 0.122097
H57   H     H_    0.872555 0.748341 0.490903 0.230558
H58   H     H_    0.929581 0.230891 0.998556 0.284888
H59   H     H_    0.372573 0.248346 0.490858 0.230625
H60   H     H_    0.430595 0.730339 0.001713 0.285783
H61   H     H_    0.091876 0.783613 0.069121 0.164212
H62   H     H_    0.100088 0.222888 0.571113 0.184428
H63   H     H_    0.591755 0.283664 0.069204 0.164197
H64   H     H_    0.600118 0.722882 0.571126 0.184426
C33   C     C_2   0.860273 0.382077 0.786613 -0.414192
C34   C     C_2   0.862163 0.618226 0.288237 -0.508889
C35   C     C_2   0.360304 0.882056 0.786663 -0.414423
C36   C     C_2   0.362157 0.118221 0.288229 -0.508973
C37   C     C_R   0.158886 0.609937 0.434670 -0.465106
C38   C     C_R   0.144929 0.384371 0.910759 -0.423561
C39   C     C_R   0.658874 0.109946 0.434644 -0.465163
C40   C     C_R   0.644965 0.884384 0.910825 -0.423208
C41   C     C_2   0.751612 0.357669 0.923337 -0.188326
C42   C     C_2   0.755539 0.642996 0.428449 -0.152150
C43   C     C_2   0.251599 0.857669 0.923300 -0.187885
C44   C     C_2   0.255550 0.143001 0.428463 -0.151848
C45   C     C_2   0.813825 0.390333 0.911417 0.225418
C46   C     C_2   0.815841 0.609889 0.413822 0.239507
C47   C     C_2   0.313834 0.890324 0.911429 0.225492
C48   C     C_2   0.315849 0.109891 0.413835 0.239608
C49   C     C_2   0.837025 0.347111 0.675844 0.257463
C50   C     C_2   0.838670 0.652661 0.177251 0.224040
C51   C     C_2   0.337040 0.847101 0.675850 0.257111
C52   C     C_2   0.338655 0.152650 0.177229 0.224002
C53   C     C_3   0.763012 0.319111 0.674476 -0.086723
C54   C     C_3   0.764924 0.679762 0.178229 0.046579
C55   C     C_3   0.263008 0.819113 0.674419 -0.086583
C56   C     C_3   0.264907 0.179750 0.178202 0.046604
C57   C     C_3   0.739791 0.314650 0.829460 0.033570
C58   C     C_3   0.746458 0.686172 0.336894 0.038646
C59   C     C_3   0.239746 0.814659 0.829371 0.033482
C60   C     C_3   0.246464 0.186173 0.336883 0.038630
C61   C     C_2   0.745959 0.275050 0.565213 -0.057816
C62   C     C_2   0.742220 0.720653 0.058414 -0.140835
C63   C     C_2   0.245985 0.775042 0.565177 -0.057876
C64   C     C_2   0.242207 0.220640 0.058369 -0.140878
C65   C     C_2   0.252918 0.729767 0.623877 -0.164446
C66   C     C_2   0.242620 0.267263 0.106489 -0.178535
C67   C     C_2   0.752918 0.229771 0.623874 -0.164148
C68   C     C_2   0.742652 0.767276 0.106551 -0.178752
C69   C     C_R   0.275686 0.678826 0.388445 0.155684
C70   C     C_R   0.261156 0.316444 0.864054 0.171739
C71   C     C_R   0.775640 0.178850 0.388364 0.156085
C72   C     C_R   0.761205 0.816461 0.864144 0.171801
C73   C     C_R   0.233987 0.686105 0.520776 -0.051610
C74   C     C_R   0.219318 0.308722 0.995954 -0.077052
C75   C     C_R   0.733963 0.186118 0.520735 -0.051633
C76   C     C_R   0.719355 0.808736 0.996027 -0.077125
C77   C     C_R   0.255486 0.638037 0.276374 -0.322680
C78   C     C_R   0.244502 0.358253 0.757434 -0.367815
C79   C     C_R   0.755462 0.138052 0.276327 -0.322963
C80   C     C_R   0.744538 0.858266 0.757504 -0.367809
C81   C     C_R   0.197105 0.606096 0.293416 0.284346
C82   C     C_R   0.188442 0.390831 0.778167 0.232227
C83   C     C_R   0.697093 0.106104 0.293388 0.284525
C84   C     C_R   0.688464 0.890839 0.778211 0.232230
C85   C     C_R   0.175755 0.648106 0.545971 0.258246
C86   C     C_R   0.162014 0.346664 0.021793 0.270412
C87   C     C_R   0.675744 0.148114 0.545949 0.258144
C88   C     C_R   0.662043 0.846676 0.021855 0.270310
H65   H     H_    0.714295 0.363552 0.010175 0.167917
H66   H     H_    0.717198 0.636992 0.513498 0.158673
H67   H     H_    0.214266 0.863560 0.010104 0.167776
H68   H     H_    0.217203 0.136996 0.513503 0.158612
H69   H     H_    0.911801 0.405492 0.782534 0.183096
H70   H     H_    0.913049 0.595053 0.282924 0.183612
H71   H     H_    0.411847 0.905462 0.782620 0.183175
H72   H     H_    0.413047 0.095049 0.282920 0.183627
H73   H     H_    0.111894 0.584067 0.444704 0.161062
H74   H     H_    0.099195 0.410270 0.922952 0.165901
H75   H     H_    0.611887 0.084074 0.444684 0.161057
H76   H     H_    0.599232 0.910284 0.923018 0.165852
H77   H     H_    0.270728 0.724418 0.753319 0.182953
H78   H     H_    0.259138 0.275534 0.234553 0.196309
H79   H     H_    0.770777 0.224413 0.753309 0.182967
H80   H     H_    0.759184 0.775544 0.234616 0.196314
C89   C     C_2   0.576874 0.460081 0.005200 1.144935
O49   O     O_2   0.562807 0.422328 0.931617 -0.567994
O50   O     O_R   0.525359 0.498955 0.959056 -0.783331
H81   H     H_    0.479355 0.491618 0.861370 0.339172
C90   C     C_2   0.574564 0.534033 0.512354 1.142693
O51   O     O_2   0.531267 0.498410 0.477536 -0.626970
O52   O     O_R   0.554198 0.576089 0.426267 -0.739778
H82   H     H_    0.503426 0.572141 0.335435 0.380322
C91   C     C_2   0.076776 0.960195 0.005005 1.144274
O53   O     O_2   0.062644 0.922488 0.931153 -0.567690
O54   O     O_R   0.025317 0.999110 0.959166 -0.783443
H83   H     H_    0.979294 0.991842 0.861445 0.339075
C92   C     C_2   0.074473 0.033874 0.512368 1.142482
O55   O     O_2   0.031241 0.998218 0.477745 -0.627018
O56   O     O_R   0.053993 0.075890 0.426127 -0.739069
H84   H     H_    0.003209 0.071887 0.335353 0.380265
C93   C     C_2   0.302407 0.633930 0.149824 1.191059
O57   O     O_2   0.306422 0.667860 0.062733 -0.639810
O58   O     O_R   0.344809 0.592227 0.133527 -0.755814
H85   H     H_    0.375956 0.594416 0.044679 0.331202
C94   C     C_2   0.292961 0.362148 0.632749 1.193476
O59   O     O_2   0.301306 0.326942 0.553537 -0.637265
O60   O     O_R   0.332793 0.404754 0.610595 -0.749174
H86   H     H_    0.365633 0.401984 0.524651 0.337261
C95   C     C_2   0.802400 0.133943 0.149804 1.190645
O61   O     O_2   0.806434 0.167875 0.062729 -0.639805
O62   O     O_R   0.844792 0.092237 0.133506 -0.755807
H87   H     H_    0.875945 0.094424 0.044667 0.331260
C96   C     C_2   0.793001 0.862163 0.632826 1.193456
O63   O     O_2   0.801349 0.826959 0.553611 -0.637259
O64   O     O_R   0.832831 0.904771 0.610679 -0.749121
H88   H     H_    0.865672 0.902003 0.524738 0.337322
C97   C     C_2   0.710560 0.284385 0.392701 1.079197
O65   O     O_2   0.648717 0.308379 0.354558 -0.639639
O66   O     O_R   0.751021 0.268990 0.275479 -0.780487
H89   H     H_    0.725772 0.281265 0.163901 0.305979
C98   C     C_2   0.709207 0.705195 0.888912 1.156119
O67   O     O_2   0.731215 0.724650 0.777698 -0.662206
O68   O     O_R   0.657361 0.665171 0.858366 -0.699593
H90   H     H_    0.642106 0.655840 0.740081 0.322191
C99   C     C_2   0.210649 0.784364 0.392624 1.079211
O69   O     O_2   0.148817 0.808363 0.354373 -0.639646
O70   O     O_R   0.251163 0.768957 0.275491 -0.780573
H91   H     H_    0.225958 0.781219 0.163871 0.306225
C100  C     C_2   0.209215 0.205177 0.888863 1.156312
O71   O     O_2   0.231233 0.224631 0.777658 -0.662198
O72   O     O_R   0.157374 0.165151 0.858302 -0.699686
H92   H     H_    0.142120 0.155824 0.740014 0.322037
C101  C     C_2   0.024293 0.716941 0.214718 0.982164
O73   O     O_2   0.004002 0.745534 0.306173 -0.576987
O74   O     O_R   0.054539 0.673153 0.269098 -0.828900
H93   H     H_    0.028794 0.661247 0.357228 0.293009
C102  C     C_2   0.022556 0.279724 0.734391 0.933247
O75   O     O_2   0.016655 0.317176 0.802647 -0.708966
O76   O     O_R   0.044356 0.238497 0.823930 -0.762066
H94   H     H_    0.061518 0.244306 0.943715 0.351505
C103  C     C_2   0.524247 0.216952 0.214709 0.982173
O77   O     O_2   0.503940 0.245539 0.306163 -0.577008
O78   O     O_R   0.554523 0.173171 0.269092 -0.828888
H95   H     H_    0.528785 0.161257 0.357223 0.293008
C104  C     C_2   0.522590 0.779759 0.734344 0.933232
O79   O     O_2   0.516794 0.817240 0.802509 -0.709048
O80   O     O_R   0.544283 0.738539 0.823979 -0.761762
H96   H     H_    0.561552 0.744389 0.943731 0.351113
C105  C     C_2   0.972913 0.813794 0.008773 1.243108
O81   O     O_2   0.951221 0.820380 0.134706 -0.581903
O82   O     O_R   0.948439 0.845190 0.880771 -0.778853
H97   H     H_    0.916509 0.873000 0.910740 0.319217
C106  C     C_2   0.982397 0.189147 0.495161 1.204529
O83   O     O_2   0.963636 0.164001 0.374611 -0.651485
O84   O     O_R   0.954308 0.177267 0.632485 -0.735091
H98   H     H_    0.920583 0.146748 0.618237 0.309871
C107  C     C_2   0.472768 0.313794 0.008719 1.243237
O85   O     O_2   0.450981 0.320344 0.134573 -0.582058
O86   O     O_R   0.448354 0.345212 0.880761 -0.778834
H99   H     H_    0.416407 0.373016 0.910721 0.319144
C108  C     C_2   0.482432 0.689132 0.495159 1.204483
O87   O     O_2   0.463320 0.664141 0.374291 -0.651863
O88   O     O_R   0.454797 0.677050 0.632796 -0.734697
H100  H     H_    0.420966 0.646570 0.618392 0.309952
C109  C     C_2   0.686430 0.549390 0.101266 1.005602
O89   O     O_2   0.637242 0.564204 0.175286 -0.549584
O90   O     O_R   0.716255 0.580746 0.001040 -0.749519
H101  H     H_    0.763592 0.567604 0.959376 0.324536
C110  C     C_2   0.688096 0.449113 0.601143 0.962186
O91   O     O_2   0.647564 0.431509 0.689013 -0.586659
O92   O     O_R   0.709371 0.421530 0.480760 -0.785518
H102  H     H_    0.682109 0.389033 0.470570 0.352775
C111  C     C_2   0.186478 0.049399 0.101392 1.005593
O93   O     O_2   0.137470 0.064245 0.175781 -0.549536
O94   O     O_R   0.216163 0.080733 0.000902 -0.749411
H103  H     H_    0.263422 0.067584 0.959008 0.324616
C112  C     C_2   0.188201 0.949070 0.601042 0.962102
O95   O     O_2   0.147747 0.931415 0.688967 -0.586590
O96   O     O_R   0.209448 0.921537 0.480514 -0.785387
H104  H     H_    0.182236 0.889025 0.470284 0.352783

loop_
_geom_bond_atom_site_label_1
_geom_bond_atom_site_label_2
_geom_bond_distance
_ccdc_geom_bond_type
C19   H27   1.109775 S    
C66   C74   1.497095 S    
C112  O96   1.393156 S    
C37   C85   1.409374 A    
O76   H94   1.006144 S    
C42   H66   1.084039 S    
C40   H76   1.081864 S    
C105  O81   1.221730 D    
P5    Ba1   3.482539 S    
P3    C83   1.863825 S    
O66   H89   1.010624 S    
C20   H28   1.109141 S    
C29   H53   1.102125 S    
C77   C93   1.475535 S    
O29   Ba1   2.814618 S    
C32   H56   1.102296 S    
C2    H10   1.102071 S    
P2    O18   1.748517 S    
O31   Ba3   2.814618 S    
Ba1   O46   3.010376 S    
C31   H55   1.102127 S    
P4    O8    1.586360 S    
C112  O95   1.221337 D    
C17   H29   1.108414 S    
C68   C76   1.497071 S    
P9    O41   1.775483 S    
C91   O53   1.221097 D    
P11   O43   1.775455 S    
C5    C9    1.546515 S    
P6    O45   1.590577 S    
C92   O56   1.395230 S    
O92   H102  1.009660 S    
O56   H84   1.013797 S    
C18   H26   1.109130 S    
C77   C81   1.351169 D    
C54   C58   1.463545 A    
P12   O44   1.769814 S    
C67   H79   1.085197 S    
O82   H97   1.013820 S    
C72   C80   1.475719 S    
C10   C106  1.508434 S    
P2    C82   1.870535 S    
C97   O66   1.396858 S    
P5    O46   1.602789 S    
C61   C67   1.363359 D    
C4    H12   1.101745 S    
C17   C89   1.504071 S    
C93   O58   1.396793 S    
O25   Ba1   2.893172 S    
O5    Ba2   2.828389 S    
O24   P15   1.748168 S    
O27   Ba3   2.893172 S    
O7    Ba4   2.828389 S    
O30   Ba2   2.818873 S    
C12   H20   1.099827 S    
C9    C105  1.505790 S    
C37   C81   1.489336 S    
O15   P16   1.545302 D    
C18   H30   1.107991 S    
O4    Ba4   2.889465 S    
O13   P14   1.545302 D    
P10   O42   1.769810 S    
C101  O74   1.374655 S    
C1    C29   1.523459 S    
P7    Ba3   3.482539 S    
O39   C16   1.404213 S    
P16   C87   1.856035 S    
C27   H43   1.111020 S    
P3    O7    1.574514 S    
H1    C29   1.106074 S    
C25   H41   1.111021 S    
C26   H46   1.104800 S    
C110  O91   1.221332 D    
C5    H13   1.110408 S    
C94   O60   1.397008 S    
C40   C84   1.487150 S    
C7    H15   1.110419 S    
P4    C84   1.870557 S    
C63   C99   1.478015 S    
C33   C45   1.471378 S    
Ba3   Ba4   4.676525 S    
C34   C50   1.351415 D    
C78   C94   1.479302 S    
C73   C85   1.485802 S    
C92   O55   1.222873 D    
P7    C48   1.853579 S    
C93   O57   1.219942 D    
C22   C26   1.521682 S    
C108  O88   1.396303 S    
C16   H24   1.101357 S    
P9    O29   1.777985 S    
O26   Ba2   2.870672 S    
O6    Ba1   2.839961 S    
O21   C29   1.412869 S    
C94   O59   1.220471 D    
C111  O94   1.394091 S    
O9    Ba1   2.813233 S    
P12   O32   1.767854 S    
C62   C68   1.368359 D    
P13   C86   1.852471 S    
C106  O84   1.396476 S    
C41   C45   1.400873 A    
C3    H11   1.110603 S    
C40   C88   1.409154 A    
Ba3   O47   2.822408 S    
P5    O25   1.554238 D    
C99   O69   1.220766 D    
C104  O80   1.393151 S    
P6    C45   1.847229 S    
C71   C79   1.472605 S    
C69   C77   1.472613 S    
C107  O86   1.393745 S    
C39   H75   1.082305 S    
C20   H32   1.107970 S    
C23   H39   1.111186 S    
C72   C76   1.468365 S    
O17   C21   1.392916 S    
C20   C92   1.504444 S    
C65   H77   1.085177 S    
C4    C32   1.514155 S    
C10   H62   1.103973 S    
C24   H36   1.108681 S    
Ba2   O45   3.016377 S    
O42   C6    1.412815 S    
C103  O77   1.218801 D    
H3    C31   1.106069 S    
H4    C32   1.103709 S    
C33   H69   1.085223 S    
C102  O75   1.214143 D    
C96   O64   1.397003 S    
P5    C46   1.853591 S    
C21   H33   1.106436 S    
P8    Ba4   3.469843 S    
O20   C24   1.388809 S    
C23   H35   1.106437 S    
P5    O37   1.761605 S    
C19   C91   1.504089 S    
C15   C111  1.513523 S    
O10   Ba2   2.809299 S    
C43   H67   1.084107 S    
C44   H68   1.084044 S    
C54   C62   1.530590 S    
C8    H16   1.112091 S    
C11   H19   1.105235 S    
C36   H72   1.085013 S    
O64   H88   1.013506 S    
C53   C57   1.463647 A    
C100  O72   1.398112 S    
C56   C60   1.463556 A    
C99   O70   1.396913 S    
C28   H52   1.110056 S    
C38   H74   1.081866 S    
O28   Ba4   2.870672 S    
C98   O68   1.398113 S    
C13   H21   1.100984 S    
C15   H23   1.100946 S    
C44   C48   1.403678 A    
C21   H37   1.111185 S    
O72   H92   1.013022 S    
C69   C73   1.468811 S    
Ba1   O45   2.822408 S    
C15   C19   1.544996 S    
C39   C87   1.409378 A    
O58   H85   1.013550 S    
C63   C65   1.363376 D    
C35   C47   1.471401 S    
C65   C73   1.492058 S    
O50   H81   1.013949 S    
O14   P13   1.544041 D    
C41   H65   1.084110 S    
C8    C12   1.550884 S    
C2    C30   1.514028 S    
O62   H87   1.013551 S    
O10   P13   1.732957 S    
O12   P15   1.732955 S    
P1    O1    1.557661 D    
Ba4   O47   3.016377 S    
C27   H47   1.105667 S    
P6    O38   1.761011 S    
P3    O3    1.557661 D    
C28   H48   1.104788 S    
P4    O20   1.748518 S    
H2    C30   1.103595 S    
C26   H42   1.110991 S    
O52   H82   1.013801 S    
C61   C97   1.477952 S    
C50   C54   1.456851 A    
C109  O90   1.394067 S    
C13   C109  1.513506 S    
P15   C88   1.852515 S    
P1    Ba1   3.468905 S    
C16   C112  1.503800 S    
P3    Ba3   3.468905 S    
O23   P16   1.757612 S    
O70   H91   1.010651 S    
O41   C5    1.407513 S    
O21   P14   1.757610 S    
C34   C46   1.474939 S    
O38   C13   1.403371 S    
C42   C46   1.403671 A    
O44   C8    1.412801 S    
C39   C83   1.489339 S    
C30   H54   1.102350 S    
O88   H100  1.011891 S    
C97   O65   1.220769 D    
C3    C31   1.523466 S    
C6    C10   1.550829 S    
C1    H57   1.109174 S    
C14   H22   1.101357 S    
C105  O82   1.393748 S    
O37   C14   1.404239 S    
P9    O33   1.536037 D    
O84   H98   1.011897 S    
P10   O30   1.767922 S    
O22   C30   1.409397 S    
P11   O35   1.536005 D    
C64   C66   1.368369 D    
P11   C52   1.853212 S    
P12   O36   1.540572 D    
O78   H95   1.003534 S    
C25   H49   1.110176 S    
C10   H18   1.099859 S    
P7    O48   1.602789 S    
C1    H5    1.107319 S    
P8    O47   1.590577 S    
C3    H7    1.107318 S    
O80   H96   1.006154 S    
C101  O73   1.218804 D    
C51   C55   1.456982 A    
C35   H71   1.085221 S    
O74   H93   1.003534 S    
P6    O26   1.559069 D    
P1    O5    1.574514 S    
P8    O40   1.761018 S    
C12   C108  1.508371 S    
C14   C110  1.503812 S    
C42   C58   1.433839 A    
C80   C96   1.479291 S    
C64   C100  1.483182 S    
C91   O54   1.397743 S    
P1    C81   1.863796 S    
O12   Ba4   2.809299 S    
C11   H63   1.100529 S    
P2    Ba2   3.480873 S    
C62   C98   1.483164 S    
O23   C31   1.412869 S    
C24   H40   1.110938 S    
C9    H61   1.100563 S    
C38   C82   1.487144 S    
C19   H31   1.108423 S    
C6    C102  1.502665 S    
C1    H9    1.110605 S    
O94   H103  1.010699 S    
C7    C103  1.486489 S    
O96   H104  1.009656 S    
C36   C48   1.474917 S    
Ba1   Ba2   4.676525 S    
C7    C11   1.546506 S    
C108  O87   1.220997 D    
C95   O61   1.219944 D    
O1    Ba1   2.867561 S    
O3    Ba3   2.867561 S    
C111  O93   1.219911 D    
O90   H101  1.010712 S    
C5    C101  1.486487 S    
C11   C107  1.505773 S    
C106  O83   1.221004 D    
C6    H14   1.112083 S    
C76   C88   1.488151 S    
C79   C83   1.351197 D    
O86   H99   1.013819 S    
P1    O17   1.750602 S    
C104  O79   1.214128 D    
P3    O19   1.750597 S    
P12   C51   1.851674 S    
P4    O4    1.552836 D    
C107  O85   1.221737 D    
C74   C86   1.488153 S    
C109  O89   1.219889 D    
C90   O51   1.222887 D    
C43   C59   1.431264 A    
C44   C60   1.433853 A    
C21   C25   1.524766 S    
O40   C15   1.403386 S    
C23   C27   1.524764 S    
Ba2   O46   2.834036 S    
C18   C90   1.504429 S    
P14   C85   1.856014 S    
C35   C51   1.348652 D    
C80   C84   1.355298 D    
C110  O92   1.393142 S    
C96   O63   1.220471 D    
C55   C59   1.463688 A    
C12   H64   1.103989 S    
P4    Ba4   3.480873 S    
O2    Ba2   2.889465 S    
P2    O2    1.552836 D    
C27   H51   1.110176 S    
O9    P14   1.744227 S    
C70   C78   1.475712 S    
C28   H44   1.110992 S    
P7    O39   1.761586 S    
C3    H59   1.109174 S    
C79   C95   1.475542 S    
O11   Ba3   2.813233 S    
C4    H8    1.105307 S    
C66   H78   1.084999 S    
C95   O62   1.396790 S    
C49   C53   1.456983 A    
C43   C47   1.400883 A    
C36   C52   1.351398 D    
C100  O71   1.220608 D    
C78   C82   1.355295 D    
C71   C75   1.468825 S    
C52   C56   1.456854 A    
C13   C17   1.545006 S    
C90   O52   1.395275 S    
O22   P13   1.748195 S    
O32   Ba4   2.818873 S    
O18   C22   1.388809 S    
C34   H70   1.085012 S    
C67   C75   1.492057 S    
C98   O67   1.220607 D    
O16   P15   1.544010 D    
C22   H34   1.108685 S    
Ba3   O48   3.010376 S    
C2    H58   1.108891 S    
O68   H90   1.013021 S    
O24   C32   1.409428 S    
C89   O50   1.397730 S    
C24   C28   1.521676 S    
P10   O34   1.540579 D    
P10   C49   1.851643 S    
P11   O31   1.777965 S    
O60   H86   1.013506 S    
P2    O6    1.586360 S    
C16   C20   1.545540 S    
P7    O27   1.554238 D    
C25   H45   1.105666 S    
P8    O28   1.559069 D    
C26   H50   1.110054 S    
C55   C63   1.528342 S    
C2    H6    1.105617 S    
C68   H80   1.085000 S    
C53   C61   1.528256 S    
O54   H83   1.013954 S    
O11   P16   1.744240 S    
C75   C87   1.485802 S    
C33   C49   1.348611 D    
Ba4   O48   2.834036 S    
P6    Ba2   3.469843 S    
C103  O78   1.374656 S    
O43   C7    1.407502 S    
C41   C57   1.431244 A    
C102  O76   1.393192 S    
C37   H73   1.082307 S    
O8    Ba3   2.839961 S    
C8    C104  1.502566 S    
C9    H17   1.105213 S    
C4    H60   1.108457 S    
O19   C23   1.392904 S    
P9    C50   1.853274 S    
C22   H38   1.110946 S    
C56   C64   1.530631 S    
C70   C74   1.468357 S    
C89   O49   1.221087 D    
C14   C18   1.545555 S    
P8    C47   1.847384 S    
C17   H25   1.109756 S    
C38   C86   1.409134 A    
