data_mof_unit_36567.cif
_audit_creation_date              2012-12-10T20:27:51-0500
_audit_creation_method            fapswitch 2.2
_symmetry_space_group_name_H-M    P1
_symmetry_Int_Tables_number       1
_space_group_crystal_system       triclinic
_cell_length_a                    12.823031
_cell_length_b                    10.729148
_cell_length_c                    9.922799
_cell_angle_alpha                 90.570685
_cell_angle_beta                  96.571123
_cell_angle_gamma                 89.565319
_cell_volume                      1356.11635212

loop_
_atom_site_label
_atom_site_type_symbol
_atom_type_description
_atom_site_fract_x
_atom_site_fract_y
_atom_site_fract_z
_atom_type_partial_charge
C1    C     C_R   0.502229 0.259621 0.498947 0.914553
C2    C     C_R   0.023681 0.555463 0.536606 -0.026064
C3    C     C_R   0.977916 0.448028 0.468007 0.017075
C4    C     C_R   0.874328 0.416353 0.482778 0.435630
C5    C     C_R   0.858652 0.604303 0.618781 -0.239538
C6    C     C_R   0.964125 0.627359 0.618966 -0.121773
C7    C     C_R   0.525130 0.064756 0.621319 0.146464
C8    C     C_R   0.519509 0.127200 0.497914 -0.075064
C9    C     C_R   0.538303 0.059138 0.378726 0.169393
C10   C     C_R   0.538922 0.930172 0.384202 -0.160612
C11   C     C_R   0.522753 0.870053 0.504230 -0.142329
C12   C     C_R   0.298829 0.502266 0.473592 0.969609
C13   C     C_R   0.527321 0.937601 0.624773 0.107069
C14   C     C_3   0.460155 0.932788 0.738050 -0.378358
C15   C     C_3   0.457360 0.074003 0.734069 -0.508211
C16   C     C_R   0.408815 0.484806 0.057258 0.135375
C17   C     C_R   0.586023 0.539876 0.080651 0.455348
C18   C     C_R   0.586337 0.531802 0.938299 -0.179618
C19   C     C_R   0.408774 0.485496 0.915713 0.249292
C20   C     C_3   0.333471 0.380007 0.897223 -0.469300
C21   C     C_3   0.332541 0.380470 0.050645 -0.483896
C22   C     C_R   0.504756 0.739443 0.501326 0.980987
C23   C     C_R   0.701434 0.497696 0.526678 0.992899
C24   C     C_R   0.813396 0.503266 0.545597 -0.142101
C25   C     C_R   0.187195 0.499130 0.455984 -0.143086
C26   C     C_R   0.036190 0.376140 0.384348 -0.041084
C27   C     C_R   0.140849 0.399835 0.381238 -0.307005
C28   C     C_R   0.128407 0.585208 0.523644 0.320031
H1    H     H_    0.503488 0.895438 0.832702 0.214578
H2    H     H_    0.377990 0.112559 0.700389 0.215922
H3    H     H_    0.498908 0.118166 0.826696 0.219222
H4    H     H_    0.655518 0.555238 0.891323 0.219453
H5    H     H_    0.257041 0.408463 0.841303 0.212956
H6    H     H_    0.369134 0.294520 0.857771 0.205018
H7    H     H_    0.255875 0.410554 0.082590 0.218942
H8    H     H_    0.365774 0.294722 0.099590 0.203210
H9    H     H_    0.811513 0.667381 0.673207 0.183277
H10   H     H_    0.002814 0.299526 0.322888 0.224716
H11   H     H_    0.996759 0.702824 0.682438 0.207416
H12   H     H_    0.186976 0.337167 0.324902 0.170598
H13   H     H_    0.543279 0.877457 0.291415 0.211173
H14   H     H_    0.382410 0.890024 0.707469 0.287953
N1    N     N_R   0.499290 0.499140 0.142710 -0.181637
N2    N     N_R   0.499290 0.499180 0.857070 -0.150699
O1    O     O_R   0.500010 0.316790 0.614690 -0.620043
O2    O     O_R   0.500000 0.316760 0.385350 -0.629673
O3    O     O_R   0.346360 0.499990 0.595720 -0.597437
O4    O     O_R   0.346350 0.499960 0.366370 -0.625100
O5    O     O_R   0.500000 0.683240 0.614650 -0.604424
O6    O     O_R   0.499990 0.683210 0.385310 -0.593552
O7    O     O_R   0.653650 0.500040 0.633630 -0.645201
O8    O     O_R   0.653640 0.500010 0.404280 -0.519379
Zn1   Zn    Zn3+2 0.500010 0.500020 0.653130 1.001453
Zn2   Zn    Zn3+2 0.499990 0.499980 0.346870 1.042140
S1    S     S_3+6 0.825166 0.265149 0.436292 0.004604
O9    O     O_2   0.732478 0.235578 0.509360 -0.352397
O10   O     O_2   0.794253 0.260143 0.285702 -0.304753
O11   O     O_3   0.918871 0.157281 0.478461 -0.543636
H15   H     H_    0.888064 0.077452 0.442820 0.402367
S2    S     S_3+6 0.698976 0.616908 0.161574 0.031429
O12   O     O_2   0.674935 0.700792 0.275744 -0.313760
O13   O     O_2   0.780128 0.521453 0.211494 -0.282242
O14   O     O_3   0.750613 0.706277 0.047792 -0.589196
H16   H     H_    0.817171 0.738092 0.095988 0.396119
S3    S     S_3+6 0.185489 0.730353 0.582794 0.010251
O15   O     O_2   0.272184 0.763994 0.500440 -0.318794
O16   O     O_2   0.105931 0.834430 0.569311 -0.269690
O17   O     O_3   0.235435 0.717025 0.746346 -0.552266
H17   H     H_    0.182928 0.668867 0.789587 0.333873
C29   C     C_3   0.548377 0.116209 0.242371 -0.741760
H18   H     H_    0.608157 0.190388 0.251471 0.308740
H19   H     H_    0.573063 0.046856 0.168165 0.224767
H20   H     H_    0.471335 0.153607 0.199823 0.209774

loop_
_geom_bond_atom_site_label_1
_geom_bond_atom_site_label_2
_ccdc_geom_bond_type
C29   H19   S    
C23   C24   S    
C17   N1    A    
C15   H3    S    
C16   C21   S    
C21   H7    S    
C5    H9    S    
C25   C27   A    
C1    C8    S    
O7    Zn1   S    
C9    C10   A    
C27   H12   S    
C11   C22   S    
C23   O7    A    
C19   C20   S    
C14   C15   S    
C14   H14   S    
C12   C25   S    
O3    Zn1   S    
S3    O17   S    
C20   H6    S    
C20   C21   S    
O2    Zn2   S    
S1    O9    D    
C7    C15   S    
C17   C18   A    
C23   O8    A    
O1    Zn1   S    
C7    C8    A    
C21   H8    S    
O6    Zn2   S    
C13   C14   S    
C9    C29   S    
C25   C28   A    
O4    Zn2   S    
C11   C13   A    
C16   N1    A    
C1    O1    A    
C26   C27   A    
C29   H18   S    
C5    C24   A    
C29   H20   S    
C12   O3    A    
O5    Zn1   S    
C20   H5    S    
C12   O4    A    
O8    Zn2   S    
C2    C3    A    
C18   N2    A    
S2    O14   S    
C4    S1    S    
C16   C19   A    
C5    C6    A    
C4    C24   A    
C1    O2    A    
C18   H4    S    
C10   C11   A    
C17   S2    S    
O14   H16   S    
C22   O6    A    
C7    C13   A    
C19   N2    A    
C15   H2    S    
S2    O13   D    
S3    O15   D    
S1    O11   S    
C22   O5    A    
C6    H11   S    
O17   H17   S    
C2    C28   A    
N1    Zn2   S    
S2    O12   D    
S3    O16   D    
O11   H15   S    
S1    O10   D    
C28   S3    S    
N2    Zn1   S    
C3    C26   A    
C26   H10   S    
C3    C4    A    
C2    C6    A    
C14   H1    S    
C8    C9    A    
C10   H13   S    
