data_mof_unit_40100.cif
_audit_creation_date              2012-10-26T20:15:03-0400
_audit_creation_method            fapswitch 2.2
_symmetry_space_group_name_H-M    P1
_symmetry_Int_Tables_number       1
_space_group_crystal_system       triclinic
_cell_length_a                    17.743634
_cell_length_b                    9.091154
_cell_length_c                    7.788655
_cell_angle_alpha                 90.002899
_cell_angle_beta                  90.000287
_cell_angle_gamma                 89.999653
_cell_volume                      1256.38878703

loop_
_atom_site_label
_atom_site_type_symbol
_atom_type_description
_atom_site_fract_x
_atom_site_fract_y
_atom_site_fract_z
_atom_type_partial_charge
C1    C     C_R   0.499984 0.220030 0.499997 0.623367
C2    C     C_R   0.846731 0.611756 0.416053 -0.141788
C3    C     C_R   0.767910 0.384796 0.582996 -0.020401
C4    C     C_R   0.232081 0.385155 0.416313 -0.020363
C5    C     C_R   0.232090 0.614854 0.583709 -0.020355
C6    C     C_R   0.767914 0.615266 0.417052 -0.020436
C7    C     C_R   0.727500 0.500019 0.500003 0.041826
C8    C     C_R   0.272498 0.500003 0.500004 0.041718
C9    C     C_R   0.885635 0.500032 0.500053 0.016855
C10   C     C_R   0.114363 0.500013 0.500023 0.016796
C11   C     C_1   0.966200 0.500024 0.500049 -0.020577
C12   C     C_R   0.499985 0.779970 0.500003 0.623350
C13   C     C_1   0.033798 0.500018 0.500038 -0.020591
C14   C     C_2   0.731634 0.255667 0.665939 0.227313
C15   C     C_2   0.268358 0.256373 0.332620 0.227527
C16   C     C_2   0.268376 0.743624 0.667418 0.227541
C17   C     C_2   0.731651 0.744426 0.334112 0.227309
C18   C     C_1   0.499980 0.065370 0.499996 0.044670
C19   C     C_1   0.499980 0.934629 0.500004 0.044661
C20   C     C_R   0.355363 0.499998 0.500000 0.629044
C21   C     C_R   0.644636 0.500009 0.500000 0.629456
C22   C     C_R   0.846727 0.388314 0.584048 -0.141772
C23   C     C_R   0.153265 0.388691 0.415283 -0.141746
C24   C     C_R   0.153275 0.611328 0.584757 -0.141738
Cu1   Cu    Cu3+1 0.500000 0.500000 0.669080 1.129387
Cu2   Cu    Cu3+1 0.500000 0.500000 0.330920 1.129489
H1    H     H_    0.878195 0.301543 0.647398 0.101527
H2    H     H_    0.121794 0.302211 0.351389 0.101597
H3    H     H_    0.121812 0.697812 0.648663 0.101600
H4    H     H_    0.878206 0.698534 0.352725 0.101504
H5    H     H_    0.763473 0.189883 0.756899 0.106682
H6    H     H_    0.236588 0.191231 0.240870 0.106614
H7    H     H_    0.236630 0.808722 0.759246 0.106634
H8    H     H_    0.763560 0.810404 0.243469 0.106685
N1    N     N_1   0.500000 0.500000 0.076820 -0.076493
N2    N     N_1   0.500000 0.500000 0.923180 -0.076510
O1    O     O_R   0.500000 0.288390 0.642760 -0.483548
O2    O     O_2   0.332065 0.217104 0.369315 -0.499099
O3    O     O_2   0.332060 0.782940 0.630643 -0.499129
O4    O     O_2   0.667773 0.783044 0.370194 -0.499184
O5    O     O_R   0.500000 0.711610 0.357240 -0.483476
O6    O     O_R   0.500000 0.711610 0.642760 -0.483463
O7    O     O_R   0.500000 0.288390 0.357240 -0.483436
O8    O     O_R   0.391250 0.500000 0.642840 -0.485020
O9    O     O_R   0.608750 0.500000 0.357160 -0.484807
O10   O     O_R   0.608750 0.500000 0.642840 -0.484959
O11   O     O_R   0.391250 0.500000 0.357160 -0.484994
O12   O     O_2   0.667830 0.216851 0.629481 -0.499265

loop_
_geom_bond_atom_site_label_1
_geom_bond_atom_site_label_2
_ccdc_geom_bond_type
Cu1   O6    S    
C5    C8    A    
C14   O12   D    
C10   C13   S    
C15   O2    D    
C6    C7    A    
C16   H7    S    
C11   C13   T    
C3    C7    A    
N1    N2    T    
C1    O1    A    
C14   H5    S    
C4    C8    A    
C10   C24   A    
C4    C15   S    
C5    C24   A    
C15   H6    S    
C8    C20   S    
C23   H2    S    
C9    C11   S    
C1    C18   S    
C12   O5    A    
C3    C14   S    
Cu2   O11   S    
Cu1   O8    S    
C20   O8    A    
Cu2   O7    S    
C21   O10   A    
C21   O9    A    
C22   H1    S    
C10   C23   A    
C9    C22   A    
C20   O11   A    
C2    H4    S    
Cu1   N2    S    
Cu2   N1    S    
C12   C19   S    
C18   C19   T    
C17   H8    S    
C4    C23   A    
C6    C17   S    
C24   H3    S    
C3    C22   A    
C12   O6    A    
C16   O3    D    
Cu2   O9    S    
Cu1   O1    S    
Cu1   Cu2   S    
C7    C21   S    
C2    C9    A    
Cu1   O10   S    
C1    O7    A    
C2    C6    A    
Cu2   O5    S    
C5    C16   S    
C17   O4    D    
