data_mof_unit_40474.cif
_audit_creation_date              2012-12-10T17:18:53-0500
_audit_creation_method            fapswitch 2.2
_symmetry_space_group_name_H-M    P1
_symmetry_Int_Tables_number       1
_space_group_crystal_system       triclinic
_cell_length_a                    9.600691
_cell_length_b                    10.768598
_cell_length_c                    13.390125
_cell_angle_alpha                 92.524642
_cell_angle_beta                  72.416089
_cell_angle_gamma                 90.093524
_cell_volume                      1318.28817161

loop_
_atom_site_label
_atom_site_type_symbol
_atom_type_description
_atom_site_fract_x
_atom_site_fract_y
_atom_site_fract_z
_atom_type_partial_charge
C1    C     C_R   0.498692 0.737416 0.503278 0.799466
C2    C     C_R   0.433242 0.467140 0.978820 0.077951
C3    C     C_R   0.470614 0.443018 0.869387 0.032151
C4    C     C_R   0.542719 0.453266 0.029119 0.046997
C5    C     C_R   0.681960 0.400590 0.972584 0.097762
C6    C     C_R   0.709377 0.357446 0.866823 0.110859
C7    C     C_R   0.601672 0.377969 0.817850 -0.199047
C8    C     C_R   0.518327 0.494229 0.134004 -0.232497
C9    C     C_R   0.759923 0.427723 0.129664 -0.210925
C10   C     C_R   0.373581 0.482108 0.814651 -0.091877
C11   C     C_R   0.292048 0.879918 0.675670 -0.186153
C12   C     C_R   0.421570 0.492792 0.699817 0.759200
C13   C     C_R   0.194101 0.949377 0.757130 -0.136452
C14   C     C_R   0.195095 0.078580 0.757492 -0.138927
C15   C     C_R   0.293149 0.139180 0.675984 -0.186983
C16   C     C_R   0.392501 0.070692 0.591967 0.098717
C17   C     C_R   0.392284 0.939355 0.591982 0.097725
C18   C     C_R   0.496161 0.871608 0.510020 -0.103261
C19   C     C_R   0.601482 0.932372 0.432768 -0.195900
C20   C     C_R   0.601362 0.060492 0.432552 -0.206271
C21   C     C_R   0.496062 0.129537 0.509695 -0.089684
C22   C     C_R   0.914372 0.336743 0.359299 -0.152163
C23   C     C_R   0.498806 0.262896 0.502760 0.760145
C24   C     C_R   0.015042 0.256758 0.290181 -0.223535
C25   C     C_R   0.158341 0.255534 0.290666 -0.200430
C26   C     C_R   0.201884 0.334408 0.360161 -0.139128
C27   C     C_R   0.103429 0.418954 0.431157 0.204917
C28   C     C_R   0.953996 0.419564 0.430884 0.198643
C29   C     C_R   0.898515 0.576528 0.565915 -0.061524
C30   C     C_R   0.046400 0.576488 0.565898 -0.061225
C31   C     C_R   0.578532 0.496939 0.299774 0.777108
C32   C     C_R   0.789727 0.390545 0.024338 -0.211875
C33   C     C_R   0.622781 0.477098 0.185422 -0.048227
C34   C     C_R   0.231171 0.521111 0.871383 -0.204089
C35   C     C_R   0.187376 0.527856 0.980116 -0.159694
C36   C     C_R   0.287220 0.503688 0.033675 -0.166725
Cu1   Cu    Cu3+1 0.359340 0.500010 0.500010 0.922665
Cu2   Cu    Cu3+1 0.640660 0.499990 0.499990 0.923972
H1    H     H_    0.842745 0.414157 0.168049 0.151390
H2    H     H_    0.290214 0.779912 0.680355 0.137124
H3    H     H_    0.118476 0.902747 0.820986 0.131209
H4    H     H_    0.120724 0.132172 0.821810 0.130936
H5    H     H_    0.291940 0.239615 0.680836 0.148326
H6    H     H_    0.682010 0.106071 0.370580 0.136663
H7    H     H_    0.820730 0.639214 0.620027 0.146616
H8    H     H_    0.807173 0.329561 0.353022 0.193509
H9    H     H_    0.981161 0.194899 0.236098 0.145873
H10   H     H_    0.236635 0.192619 0.236981 0.153701
H11   H     H_    0.313948 0.324447 0.354452 0.199148
H12   H     H_    0.079001 0.639173 0.619940 0.132396
H13   H     H_    0.897230 0.351947 0.985096 0.133204
H14   H     H_    0.418028 0.540789 0.178099 0.151447
H15   H     H_    0.153804 0.548393 0.831680 0.147400
H16   H     H_    0.245428 0.511093 0.118043 0.133581
H17   H     H_    0.076492 0.555967 0.023232 0.146926
H18   H     H_    0.617511 0.339188 0.739737 0.187433
H19   H     H_    0.682219 0.880088 0.370966 0.149202
N1    N     N_R   0.852480 0.498790 0.499000 -0.204639
N2    N     N_R   0.148360 0.498710 0.498970 -0.196541
O1    O     O_R   0.381190 0.680360 0.500010 -0.574049
O2    O     O_R   0.618760 0.680340 0.500000 -0.568147
O3    O     O_R   0.323240 0.499990 0.650990 -0.589977
O4    O     O_R   0.560820 0.499960 0.650980 -0.579193
O5    O     O_R   0.381240 0.319660 0.500000 -0.597957
O6    O     O_R   0.618810 0.319640 0.499990 -0.597318
O7    O     O_R   0.439180 0.500040 0.349020 -0.595988
O8    O     O_R   0.676760 0.500010 0.349010 -0.595589
C37   C     C_3   0.853605 0.291215 0.807944 -0.421870
C38   C     C_3   0.870824 0.242991 0.695525 -0.799149
H20   H     H_    0.786032 0.173110 0.694352 0.249281
H21   H     H_    0.864235 0.320895 0.645639 0.260206
H22   H     H_    0.979674 0.197517 0.661851 0.251758
H23   H     H_    0.944929 0.356118 0.804589 0.202681
H24   H     H_    0.866606 0.210013 0.852896 0.198719

loop_
_geom_bond_atom_site_label_1
_geom_bond_atom_site_label_2
_ccdc_geom_bond_type
C31   O7    A    
C16   C21   A    
C35   C36   A    
C4    C8    A    
C13   H3    S    
Cu1   O3    S    
C19   H19   S    
C31   O8    A    
C1    C18   S    
Cu1   Cu2   S    
C34   C35   A    
C3    C7    A    
C5    C6    A    
C37   H24   S    
C15   C16   A    
C9    H1    S    
C18   C19   A    
C38   H21   S    
C9    C32   A    
Cu2   N1    S    
C19   C20   A    
C16   C17   A    
C31   C33   S    
C8    H14   S    
C14   H4    S    
Cu2   O2    S    
C6    C37   S    
C30   H12   S    
C22   C28   A    
C13   C14   A    
C30   N2    A    
C9    C33   A    
C38   H20   S    
C7    H18   S    
C20   H6    S    
C35   H17   S    
C24   C25   A    
C26   H11   S    
C12   O4    A    
C37   C38   S    
C37   H23   S    
C5    C32   A    
C29   H7    S    
C38   H22   S    
C2    C4    A    
C32   H13   S    
C29   C30   A    
C12   O3    A    
Cu2   O6    S    
Cu1   O7    S    
C20   C21   A    
C17   C18   A    
C26   C27   A    
C10   C34   A    
Cu2   O8    S    
C25   H10   S    
Cu1   N2    S    
C10   C12   S    
C23   O5    A    
C22   H8    S    
C21   C23   S    
C22   C24   A    
C1    O1    A    
Cu1   O5    S    
Cu2   O4    S    
C2    C36   A    
C11   C17   A    
C24   H9    S    
C4    C5    A    
C1    O2    A    
C6    C7    A    
C28   N1    A    
C23   O6    A    
C2    C3    A    
C25   C26   A    
C15   H5    S    
C3    C10   A    
C27   N2    A    
C11   C13   A    
C8    C33   A    
C11   H2    S    
Cu1   O1    S    
C36   H16   S    
C29   N1    A    
C34   H15   S    
C27   C28   A    
C14   C15   A    
