data_mof_unit_46213.cif
_audit_creation_date              2012-12-10T18:09:55-0500
_audit_creation_method            fapswitch 2.2
_symmetry_space_group_name_H-M    P1
_symmetry_Int_Tables_number       1
_space_group_crystal_system       triclinic
_cell_length_a                    10.682061
_cell_length_b                    12.559051
_cell_length_c                    13.199666
_cell_angle_alpha                 81.465746
_cell_angle_beta                  91.770372
_cell_angle_gamma                 102.34382
_cell_volume                      1710.72933387

loop_
_atom_site_label
_atom_site_type_symbol
_atom_type_description
_atom_site_fract_x
_atom_site_fract_y
_atom_site_fract_z
_atom_type_partial_charge
C1    C     C_R   0.469638 0.439476 0.689762 0.891003
C2    C     C_R   0.459809 0.450321 0.969990 0.002497
C3    C     C_R   0.436406 0.481266 0.865171 0.114691
C4    C     C_R   0.741798 0.500208 0.498377 0.857681
C5    C     C_R   0.483470 0.535999 0.031991 0.094073
C6    C     C_R   0.509957 0.648073 0.987121 0.174131
C7    C     C_R   0.474782 0.675073 0.886251 -0.209797
C8    C     C_R   0.425070 0.591181 0.829773 -0.171869
C9    C     C_R   0.471496 0.514555 0.137246 -0.206062
C10   C     C_R   0.576058 0.702297 0.151900 -0.202519
C11   C     C_R   0.431626 0.403402 0.797553 -0.143756
C12   C     C_3   0.120008 0.491742 0.509742 0.056767
C13   C     C_R   0.267055 0.076229 0.406562 -0.260333
C14   C     C_R   0.663881 0.796856 0.621531 -0.042321
C15   C     C_R   0.691522 0.894364 0.664036 -0.169709
C16   C     C_R   0.516079 0.561088 0.308555 0.892675
C17   C     C_R   0.619806 0.976329 0.632181 -0.110425
C18   C     C_R   0.521982 0.957712 0.556213 -0.066423
C19   C     C_R   0.493764 0.853064 0.521940 0.153893
C20   C     C_R   0.453084 0.037663 0.507785 0.032205
C21   C     C_R   0.335846 0.001072 0.457009 0.164441
C22   C     C_R   0.298011 0.891309 0.444054 -0.322145
C23   C     C_3   0.090767 0.576790 0.418463 -0.371167
C24   C     C_R   0.392403 0.830058 0.451751 -0.031981
C25   C     C_R   0.500355 0.152028 0.497854 -0.036062
C26   C     C_R   0.318217 0.187675 0.401233 0.044817
C27   C     C_R   0.257899 0.496639 0.506097 0.825726
C28   C     C_3   0.898169 0.375821 0.487722 0.025945
C29   C     C_3   0.041842 0.373057 0.498342 -0.039173
C30   C     C_3   0.949370 0.583200 0.416249 -0.439900
C31   C     C_3   0.936957 0.530056 0.605431 -0.211506
C32   C     C_3   0.877495 0.495592 0.501073 0.021667
C33   C     C_3   0.839369 0.318046 0.393397 -0.434538
C34   C     C_3   0.080372 0.524032 0.611276 -0.484958
C35   C     C_3   0.868646 0.381686 0.286109 -0.745837
C36   C     C_2   0.524336 0.304155 0.105547 0.948734
C37   C     C_2   0.421741 0.137470 0.971729 0.973753
C38   C     C_2   0.641116 0.074215 0.685545 0.948978
C39   C     C_2   0.789423 0.903150 0.746722 0.954452
C40   C     C_2   0.420211 0.804039 0.351397 0.991632
C41   C     C_3   0.064921 0.280920 0.586955 -0.406247
C42   C     C_3   0.022973 0.164953 0.558360 -0.793059
C43   C     C_2   0.862204 0.470970 0.701020 0.896847
C44   C     C_R   0.561786 0.730637 0.046612 -0.173181
C45   C     C_R   0.521592 0.595373 0.198191 -0.077190
C46   C     C_R   0.408286 0.291658 0.836134 -0.278226
C47   C     C_R   0.427236 0.257004 0.939729 -0.053266
C48   C     C_R   0.465197 0.337316 0.006014 -0.102667
H1    H     H_    0.138767 0.606091 0.622854 0.195227
H2    H     H_    0.382786 0.614242 0.756470 0.172095
H3    H     H_    0.264803 0.247197 0.365273 0.136139
H4    H     H_    0.213863 0.867002 0.397678 0.176136
H5    H     H_    0.176959 0.049097 0.368531 0.151807
H6    H     H_    0.590546 0.187686 0.529847 0.126240
H7    H     H_    0.715153 0.732169 0.647162 0.198118
H8    H     H_    0.075414 0.352371 0.426040 0.180153
H9    H     H_    0.908299 0.576143 0.339320 0.190950
H10   H     H_    0.118458 0.555666 0.344631 0.186997
H11   H     H_    0.935077 0.618848 0.603834 0.171539
H12   H     H_    0.941521 0.667105 0.429525 0.187212
H13   H     H_    0.100673 0.465249 0.678162 0.177688
H14   H     H_    0.804057 0.440132 0.266918 0.275343
H15   H     H_    0.970558 0.424037 0.277542 0.234116
H16   H     H_    0.849058 0.322890 0.229602 0.279801
H17   H     H_    0.875003 0.240930 0.395739 0.203430
H18   H     H_    0.734601 0.287372 0.399700 0.237981
H19   H     H_    0.508364 0.203526 0.240473 0.351552
H20   H     H_    0.504229 0.018398 0.047348 0.355414
H21   H     H_    0.568013 0.167168 0.768310 0.340603
H22   H     H_    0.841945 0.947567 0.885233 0.359121
H23   H     H_    0.148046 0.660036 0.426303 0.227870
H24   H     H_    0.350598 0.740575 0.224041 0.343962
H25   H     H_    0.917338 0.141883 0.551517 0.269169
H26   H     H_    0.066771 0.159822 0.484751 0.234477
H27   H     H_    0.053723 0.104502 0.618910 0.284445
H28   H     H_    0.166874 0.291579 0.609846 0.229355
H29   H     H_    0.013380 0.283788 0.657474 0.282676
H30   H     H_    0.797364 0.329560 0.795655 0.367881
H31   H     H_    0.624875 0.763925 0.196408 0.219947
H32   H     H_    0.479659 0.760113 0.852869 0.173249
H33   H     H_    0.590837 0.815937 0.011941 0.179547
H34   H     H_    0.419044 0.434847 0.171948 0.160626
H35   H     H_    0.387893 0.231586 0.783683 0.212712
H36   H     H_    0.846720 0.319998 0.553485 0.206661
N1    N     N_R   0.433240 0.222190 0.444680 -0.120837
N2    N     N_R   0.566070 0.776970 0.554790 -0.141708
O1    O     O_R   0.468120 0.366740 0.627160 -0.605944
O2    O     O_R   0.456168 0.219812 0.176808 -0.792813
O3    O     O_2   0.334506 0.069847 0.940887 -0.590786
O4    O     O_R   0.518615 0.101677 0.032443 -0.765139
O5    O     O_2   0.749053 0.130331 0.691081 -0.618324
O6    O     O_R   0.538340 0.101458 0.730881 -0.778894
O7    O     O_2   0.886152 0.867205 0.739942 -0.614182
O8    O     O_R   0.769082 0.947881 0.834196 -0.776258
O9    O     O_2   0.524188 0.846560 0.311728 -0.650337
O10   O     O_R   0.323651 0.743447 0.296275 -0.847499
O11   O     O_2   0.811389 0.523537 0.752292 -0.603455
O12   O     O_R   0.510770 0.544830 0.662520 -0.611312
O13   O     O_R   0.850640 0.358042 0.731204 -0.802487
O14   O     O_R   0.663880 0.410950 0.482330 -0.629226
O15   O     O_R   0.706530 0.589040 0.517700 -0.621940
O16   O     O_R   0.489230 0.455170 0.337480 -0.613092
O17   O     O_R   0.531880 0.633260 0.372840 -0.593317
O18   O     O_R   0.293470 0.410960 0.482300 -0.645227
O19   O     O_R   0.336120 0.589050 0.517670 -0.631545
O20   O     O_2   0.632970 0.351053 0.124941 -0.624818
Zn1   Zn    Zn3+2 0.471520 0.381090 0.476390 0.948002
Zn2   Zn    Zn3+2 0.528480 0.618910 0.523610 0.968610

loop_
_geom_bond_atom_site_label_1
_geom_bond_atom_site_label_2
_ccdc_geom_bond_type
C1    O1    A    
C23   H10   S    
C9    C45   A    
C12   C29   S    
C28   H36   S    
C41   C42   S    
C1    C11   S    
C19   N2    A    
C33   H17   S    
C7    C8    A    
C36   O2    S    
C12   C23   S    
H19   O2    S    
C31   C43   S    
C37   O4    S    
C28   C29   S    
H22   O8    S    
C43   O13   S    
C41   H29   S    
C5    C6    A    
C20   C25   A    
C27   O19   A    
C30   H9    S    
C38   O6    S    
C27   O18   A    
O12   Zn2   S    
C18   C19   A    
C31   H11   S    
C39   O7    D    
C33   C35   S    
C47   C48   A    
O14   Zn1   S    
C30   H12   S    
H20   O4    S    
C36   C48   S    
O17   Zn2   S    
C37   C47   S    
H21   O6    S    
C9    H34   S    
O15   Zn2   S    
C14   H7    S    
C6    C44   A    
C21   C22   A    
C40   O10   S    
C33   H18   S    
C13   H5    S    
O19   Zn2   S    
C42   H26   S    
C12   C27   S    
C10   C44   A    
C23   C30   S    
C23   H23   S    
C28   C32   S    
C25   H6    S    
C14   N2    A    
C3    C8    A    
C2    C48   A    
C36   O20   D    
C38   O5    D    
C34   H13   S    
C1    O12   A    
C39   O8    S    
C5    C9    A    
C16   O17   A    
C31   C32   S    
C4    O15   A    
C10   C45   A    
C25   N1    A    
C17   C18   A    
C42   H27   S    
C31   C34   S    
C13   C21   A    
O16   Zn1   S    
C4    C32   S    
C15   C39   S    
C35   H16   S    
C16   O16   A    
C28   C33   S    
C44   H33   S    
C4    O14   A    
C22   C24   A    
C13   C26   A    
C2    C5    A    
C40   O9    D    
C12   C34   S    
C8    H2    S    
C22   H4    S    
C15   C17   A    
C46   C47   A    
C42   H25   S    
C29   C41   S    
N2    Zn2   S    
C43   O11   D    
C16   C45   S    
C10   H31   S    
C6    C7    A    
C29   H8    S    
C37   O3    D    
C19   C24   A    
C26   H3    S    
C41   H28   S    
C30   C32   S    
C26   N1    A    
C24   C40   S    
C2    C3    A    
C35   H14   S    
C18   C20   A    
C17   C38   S    
C3    C11   A    
C46   H35   S    
H24   O10   S    
O1    Zn1   S    
C20   C21   A    
C34   H1    S    
H30   O13   S    
C14   C15   A    
C11   C46   A    
C35   H15   S    
N1    Zn1   S    
O18   Zn1   S    
C7    H32   S    
