data_mof_unit_12961.cif
_audit_creation_date              2012-12-10T20:35:54-0500
_audit_creation_method            fapswitch 2.2
_symmetry_space_group_name_H-M    P1
_symmetry_Int_Tables_number       1
_space_group_crystal_system       triclinic
_cell_length_a                    15.782181
_cell_length_b                    10.670621
_cell_length_c                    9.881571
_cell_angle_alpha                 88.390761
_cell_angle_beta                  87.6663
_cell_angle_gamma                 90.686109
_cell_volume                      1661.93327151

loop_
_atom_site_label
_atom_site_type_symbol
_atom_type_description
_atom_site_fract_x
_atom_site_fract_y
_atom_site_fract_z
_atom_type_partial_charge
C1    C     C_R   0.508529 0.261222 0.500946 0.925996
C2    C     C_R   0.529854 0.131795 0.503342 -0.163527
C3    C     C_R   0.559790 0.072272 0.385255 0.105088
C4    C     C_R   0.338286 0.501128 0.502583 0.927678
C5    C     C_R   0.546233 0.942583 0.377591 0.134288
C6    C     C_R   0.515441 0.874240 0.495105 -0.152399
C7    C     C_R   0.508378 0.934551 0.618144 0.029536
C8    C     C_3   0.440513 0.928765 0.728923 0.018724
C9    C     C_3   0.449558 0.070282 0.734456 -0.487069
C10   C     C_R   0.459562 0.406745 0.076754 0.176203
C11   C     C_R   0.554346 0.576317 0.064235 0.238334
C12   C     C_3   0.945548 0.391641 0.593441 -0.037629
C13   C     C_R   0.550419 0.580138 0.920600 -0.125933
C14   C     C_R   0.460192 0.405851 0.935035 0.136836
C15   C     C_3   0.369534 0.362005 0.938771 -0.045341
C16   C     C_R   0.502149 0.740858 0.497883 0.922481
C17   C     C_3   0.369582 0.364754 0.093392 -0.515351
C18   C     C_R   0.661590 0.499870 0.497327 0.897640
C19   C     C_3   0.044499 0.396776 0.601684 -0.057032
C20   C     C_3   0.056892 0.480484 0.357600 -0.028628
C21   C     C_3   0.958457 0.475996 0.351793 0.001171
C22   C     C_1   0.750222 0.498898 0.491426 -0.119760
C23   C     C_3   0.916555 0.499415 0.495800 0.048577
C24   C     C_3   0.082506 0.504439 0.505778 0.016015
C25   C     C_3   0.484484 0.894808 0.165824 -0.676409
C26   C     C_3   0.703746 0.625699 0.083644 -0.759138
C27   C     C_3   0.225955 0.408568 0.876311 -0.652133
C28   C     C_3   0.915327 0.682617 0.239698 -0.650886
C29   C     C_3   0.946724 0.626079 0.555209 -0.057448
C30   C     C_3   0.045580 0.632582 0.550851 -0.012965
C31   C     C_1   0.825335 0.498456 0.490344 0.018000
C32   C     C_1   0.174123 0.506158 0.509736 0.049374
C33   C     C_1   0.249417 0.504483 0.508206 -0.097497
C34   C     C_R   0.515574 0.061424 0.622541 0.078754
H1    H     H_    0.058700 0.420162 0.707420 0.167849
H2    H     H_    0.363402 0.269941 0.142524 0.204990
H3    H     H_    0.080527 0.386189 0.330388 0.170783
H4    H     H_    0.943344 0.376622 0.329754 0.161725
H5    H     H_    0.065874 0.704938 0.472655 0.173904
H6    H     H_    0.613633 0.904785 0.199362 0.259076
H7    H     H_    0.473828 0.994470 0.136452 0.236461
H8    H     H_    0.426533 0.855702 0.219893 0.260098
H9    H     H_    0.496089 0.841392 0.072300 0.223495
H10   H     H_    0.609114 0.661704 0.225632 0.298366
H11   H     H_    0.719995 0.528766 0.116416 0.259624
H12   H     H_    0.918443 0.407156 0.696989 0.183429
H13   H     H_    0.746265 0.692814 0.132292 0.240249
H14   H     H_    0.714806 0.637439 0.972455 0.265851
H15   H     H_    0.318448 0.542721 0.915433 0.261375
H16   H     H_    0.188344 0.478839 0.821889 0.255653
H17   H     H_    0.197879 0.393629 0.980496 0.254886
H18   H     H_    0.223061 0.319585 0.820925 0.248577
H19   H     H_    0.874485 0.503979 0.193684 0.239428
H20   H     H_    0.909042 0.719016 0.134285 0.266571
H21   H     H_    0.971487 0.729189 0.280312 0.258348
H22   H     H_    0.856890 0.707059 0.298918 0.203936
H23   H     H_    0.924177 0.706662 0.495074 0.161976
H24   H     H_    0.461655 0.879102 0.821749 0.142696
H25   H     H_    0.392725 0.122484 0.703004 0.221701
H26   H     H_    0.476947 0.101826 0.829856 0.190925
H27   H     H_    0.588693 0.647098 0.859984 0.166312
H28   H     H_    0.362615 0.266419 0.898208 0.163135
H29   H     H_    0.328139 0.437072 0.139293 0.236749
I1    I     I_    0.887670 0.210409 0.553071 -0.271151
I2    I     I_    0.624175 0.172892 0.218789 -0.363795
I3    I     I_    0.318485 0.871933 0.662855 -0.289678
I4    I     I_    0.109604 0.219352 0.576225 -0.297487
I5    I     I_    0.124455 0.596880 0.202961 -0.359075
I6    I     I_    0.101068 0.705538 0.730579 -0.224888
I7    I     I_    0.881015 0.664480 0.748620 -0.339328
N1    N     N_R   0.499430 0.499140 0.142800 -0.130814
N2    N     N_R   0.499430 0.499180 0.857150 -0.125300
N3    N     N_2   0.556868 0.884013 0.250773 -0.297055
N4    N     N_2   0.616669 0.651864 0.123665 -0.313986
N5    N     N_2   0.312641 0.452686 0.880962 -0.248393
N6    N     N_2   0.924514 0.547860 0.237973 -0.266390
O1    O     O_R   0.500010 0.316790 0.614690 -0.618412
O2    O     O_R   0.500000 0.316760 0.385350 -0.590817
O3    O     O_R   0.377150 0.500020 0.614720 -0.580943
O4    O     O_R   0.377140 0.499990 0.385380 -0.616692
O5    O     O_R   0.500000 0.683240 0.614650 -0.620631
O6    O     O_R   0.499990 0.683210 0.385310 -0.622275
O7    O     O_R   0.622860 0.500010 0.614620 -0.605927
O8    O     O_R   0.622850 0.499980 0.385280 -0.631231
Zn1   Zn    Zn3+2 0.500010 0.500020 0.653130 0.980015
Zn2   Zn    Zn3+2 0.499990 0.499980 0.346870 0.970538

loop_
_geom_bond_atom_site_label_1
_geom_bond_atom_site_label_2
_ccdc_geom_bond_type
C15   N5    S    
C8    I3    S    
C1    O1    A    
C25   H9    S    
N2    Zn1   S    
C28   H22   S    
C7    C8    S    
C12   C23   S    
C23   C29   S    
O8    Zn2   S    
C4    O4    A    
C5    C6    A    
C12   I1    S    
C11   N1    A    
C10   C17   S    
H6    N3    S    
C1    C2    S    
O4    Zn2   S    
C26   H11   S    
C8    H24   S    
C21   H4    S    
C20   C24   S    
C8    C9    S    
C18   O8    A    
H15   N5    S    
C19   I4    S    
C17   H2    S    
C27   H16   S    
C26   H14   S    
C10   N1    A    
O2    Zn2   S    
O1    Zn1   S    
C1    O2    A    
C3    I2    S    
C27   N5    S    
C28   H21   S    
C27   H17   S    
C22   C31   T    
C4    O3    A    
C12   H12   S    
C10   C14   A    
C25   H7    S    
C28   H20   S    
O6    Zn2   S    
C9    H25   S    
C23   C31   S    
C24   C32   S    
C29   C30   S    
N1    Zn2   S    
C21   N6    S    
C16   O6    A    
C18   O7    A    
H10   N4    S    
C26   H13   S    
O7    Zn1   S    
C29   H23   S    
C21   C23   S    
C9    C34   S    
C7    C34   A    
H19   N6    S    
C28   N6    S    
O3    Zn1   S    
C30   I6    S    
C27   H18   S    
C29   I7    S    
C15   C17   S    
C4    C33   S    
C18   C22   S    
C14   N2    A    
C20   I5    S    
C3    C5    A    
C11   N4    S    
C25   H8    S    
C6    C7    A    
C13   N2    A    
C9    H26   S    
C32   C33   T    
C2    C3    A    
C19   H1    S    
C17   H29   S    
C20   H3    S    
C11   C13   A    
C2    C34   A    
C12   C19   S    
C16   O5    A    
C26   N4    S    
C15   H28   S    
C30   H5    S    
C19   C24   S    
C25   N3    S    
C5    N3    S    
C24   C30   S    
C6    C16   S    
C13   H27   S    
C20   C21   S    
C14   C15   S    
O5    Zn1   S    
