data_mof_unit_31326.cif
_audit_creation_date              2012-12-10T18:42:28-0500
_audit_creation_method            fapswitch 2.2
_symmetry_space_group_name_H-M    P1
_symmetry_Int_Tables_number       1
_space_group_crystal_system       triclinic
_cell_length_a                    8.569256
_cell_length_b                    10.749844
_cell_length_c                    9.969431
_cell_angle_alpha                 91.860662
_cell_angle_beta                  98.113972
_cell_angle_gamma                 93.247423
_cell_volume                      906.951253945

loop_
_atom_site_label
_atom_site_type_symbol
_atom_type_description
_atom_site_fract_x
_atom_site_fract_y
_atom_site_fract_z
_atom_type_partial_charge
C1    C     C_R   0.512135 0.260876 0.498912 0.879540
C2    C     C_R   0.487865 0.739124 0.501088 0.879540
C3    C     C_R   0.201687 0.499424 0.464590 0.963577
C4    C     C_R   0.798312 0.500576 0.535410 0.963577
C5    C     C_2   0.036524 0.498900 0.445587 -0.373568
C6    C     C_2   0.963476 0.501100 0.554413 -0.373568
C7    C     C_R   0.474556 0.056313 0.374383 -0.062968
C8    C     C_R   0.525445 0.943687 0.625617 -0.062968
C9    C     C_R   0.433150 0.930853 0.381586 -0.062386
C10   C     C_R   0.566852 0.069147 0.618415 -0.062385
C11   C     C_R   0.473484 0.872479 0.504621 -0.151459
C12   C     C_R   0.526517 0.127521 0.495379 -0.151459
C13   C     C_R   0.607097 0.576993 0.085714 0.163391
C14   C     C_R   0.392903 0.423007 0.914286 0.163390
C15   C     C_R   0.608884 0.572784 0.942079 0.021910
C16   C     C_R   0.391116 0.427215 0.057921 0.021910
H1    H     H_    0.975486 0.496460 0.342078 0.182177
H2    H     H_    0.024514 0.503540 0.657922 0.182177
N1    N     N_R   0.499960 0.499970 0.857200 -0.140948
N2    N     N_R   0.500040 0.500030 0.142800 -0.140948
O1    O     O_R   0.499990 0.316750 0.614620 -0.624174
O2    O     O_R   0.500010 0.683250 0.385380 -0.624173
O3    O     O_R   0.499990 0.316780 0.385290 -0.611621
O4    O     O_R   0.500010 0.683220 0.614710 -0.611621
O5    O     O_R   0.271750 0.499990 0.587840 -0.646743
O6    O     O_R   0.728250 0.500010 0.412160 -0.646743
O7    O     O_R   0.271750 0.500010 0.358510 -0.615715
O8    O     O_R   0.728250 0.499990 0.641490 -0.615715
Zn1   Zn    Zn3+2 0.500000 0.499980 0.653120 0.956025
Zn2   Zn    Zn3+2 0.500000 0.500020 0.346880 0.956025
C17   C     C_1   0.484928 0.105003 0.241985 0.236080
N3    N     N_1   0.497009 0.142336 0.136305 -0.211772
C18   C     C_1   0.515074 0.894997 0.758016 0.236079
N4    N     N_1   0.502993 0.857664 0.863696 -0.211772
C19   C     C_1   0.338187 0.865074 0.265458 0.200967
N5    N     N_1   0.262037 0.812899 0.173303 -0.193865
C20   C     C_1   0.661814 0.134926 0.734543 0.200969
N6    N     N_1   0.737964 0.187102 0.826698 -0.193865
C21   C     C_3   0.727032 0.666989 0.172926 -0.394327
C22   C     C_3   0.703290 0.804444 0.145608 -0.821726
H3    H     H_    0.759947 0.834651 0.057920 0.265852
H4    H     H_    0.576135 0.821267 0.127008 0.281032
H5    H     H_    0.758809 0.863786 0.234916 0.245029
H6    H     H_    0.721353 0.659534 0.280030 0.276893
H7    H     H_    0.848700 0.644907 0.157991 0.185478
C23   C     C_3   0.272968 0.333010 0.827074 -0.394325
C24   C     C_3   0.296710 0.195556 0.854393 -0.821724
H8    H     H_    0.423866 0.178733 0.872997 0.281032
H9    H     H_    0.240049 0.165349 0.942079 0.265851
H10   H     H_    0.241195 0.136213 0.765084 0.245029
H11   H     H_    0.151300 0.355093 0.842009 0.185477
H12   H     H_    0.278648 0.340465 0.719970 0.276892
C25   C     C_1   0.729774 0.642646 0.883937 0.269788
N7    N     N_1   0.827267 0.699036 0.838254 -0.216470
C26   C     C_1   0.270225 0.357354 0.116063 0.269788
N8    N     N_1   0.172733 0.300964 0.161745 -0.216470

loop_
_geom_bond_atom_site_label_1
_geom_bond_atom_site_label_2
_ccdc_geom_bond_type
C2    O2    A    
C4    O6    A    
C26   N8    T    
C1    O1    A    
C20   N6    T    
C19   N5    T    
C13   C15   A    
C16   N2    A    
C21   H7    S    
C1    O3    A    
C3    O7    A    
C18   N4    T    
C16   C26   S    
C24   H9    S    
C14   N1    A    
N2    Zn2   S    
C25   N7    T    
O7    Zn2   S    
C15   N1    A    
C9    C11   A    
C7    C12   A    
C1    C12   S    
C10   C12   A    
C8    C11   A    
C2    C11   S    
C15   C25   S    
C8    C10   A    
C22   H3    S    
C4    O8    A    
O6    Zn2   S    
C24   H10   S    
C7    C9    A    
C8    C18   S    
C10   C20   S    
C2    O4    A    
C5    C6    D    
C6    H2    S    
C17   N3    T    
C14   C16   A    
C13   C21   S    
C4    C6    S    
C7    C17   S    
C21   H6    S    
N1    Zn1   S    
O3    Zn2   S    
C23   H12   S    
C3    O5    A    
C5    H1    S    
O5    Zn1   S    
C14   C23   S    
C21   C22   S    
C9    C19   S    
C23   C24   S    
O8    Zn1   S    
O2    Zn2   S    
C13   N2    A    
O4    Zn1   S    
O1    Zn1   S    
C23   H11   S    
C22   H5    S    
C24   H8    S    
C22   H4    S    
C3    C5    S    
