data_mof_unit_50100.cif
_audit_creation_date              2012-12-11T14:56:30-0500
_audit_creation_method            fapswitch 2.2
_symmetry_space_group_name_H-M    P1
_symmetry_Int_Tables_number       1
_space_group_crystal_system       triclinic
_cell_length_a                    10.561026
_cell_length_b                    10.660508
_cell_length_c                    17.03471
_cell_angle_alpha                 80.109187
_cell_angle_beta                  90.171427
_cell_angle_gamma                 119.252974
_cell_volume                      1641.08679848

loop_
_atom_site_label
_atom_site_type_symbol
_atom_type_description
_atom_site_fract_x
_atom_site_fract_y
_atom_site_fract_z
_atom_type_partial_charge
C1    C     C_R   0.222268 0.853824 0.128683 0.541573
C2    C     C_R   0.825219 0.455727 0.253333 0.296265
C3    C     C_R   0.805910 0.421162 0.178151 -0.100400
C4    C     C_R   0.667255 0.363386 0.150139 -0.082063
C5    C     C_1   0.634512 0.872072 0.211237 -0.012574
C6    C     C_1   0.661196 0.856170 0.279101 -0.004383
C7    C     C_1   0.181822 0.826089 0.211474 0.025340
C8    C     C_1   0.153162 0.820949 0.280149 0.033253
C9    C     C_1   0.660068 0.353921 0.780035 0.094695
C10   C     C_1   0.683281 0.397886 0.709584 0.034653
C11   C     C_R   0.652693 0.728614 0.802228 0.159061
C12   C     C_R   0.638539 0.282671 0.085412 0.557311
C13   C     C_R   0.641655 0.709099 0.724413 -0.176379
C14   C     C_R   0.662737 0.824103 0.662340 -0.031390
C15   C     C_R   0.695547 0.960229 0.677293 0.444341
C16   C     C_R   0.703821 0.979947 0.755621 0.407187
C17   C     C_R   0.678970 0.862615 0.818255 0.029610
C18   C     C_R   0.062361 0.886652 0.797825 0.251289
C19   C     C_R   0.042239 0.884799 0.717368 0.167974
C20   C     C_R   0.052768 0.778656 0.682026 -0.039029
C21   C     C_R   0.082749 0.675762 0.729528 0.333802
C22   C     C_R   0.122371 0.692210 0.806478 -0.127553
C23   C     C_R   0.601075 0.882141 0.130822 0.547118
C24   C     C_R   0.121749 0.803829 0.838885 -0.059295
C25   C     C_R   0.683154 0.813429 0.358701 0.546439
C26   C     C_R   0.726548 0.459434 0.383035 0.587822
C27   C     C_R   0.105017 0.810931 0.359540 0.558399
C28   C     C_R   0.675464 0.802635 0.583262 0.587492
C29   C     C_R   0.716729 0.444694 0.626069 0.519437
C30   C     C_R   0.030262 0.775551 0.597127 0.549612
C31   C     C_R   0.210578 0.856036 0.904478 0.573817
C32   C     C_R   0.639317 0.288587 0.861559 0.636529
C33   C     C_R   0.644370 0.869189 0.897940 0.643155
C34   C     C_R   0.553046 0.360887 0.192905 -0.097743
C35   C     C_R   0.572766 0.399692 0.267622 0.330498
C36   C     C_R   0.707024 0.438176 0.300504 0.013309
Cr1   Cr    Cr6+3 0.402240 0.783890 0.019450 1.082812
Cr2   Cr    Cr6+3 0.382360 0.097900 0.991800 1.121905
Cr3   Cr    Cr6+3 0.715380 0.118170 0.988700 1.128220
Cr4   Cr    Cr6+3 0.936650 0.882420 0.465510 1.134394
Cr5   Cr    Cr6+3 0.605770 0.565620 0.493360 1.137994
Cr6   Cr    Cr6+3 0.921340 0.550490 0.496380 1.196536
H1    H     H_    0.446065 0.319593 0.171248 0.181378
H2    H     H_    0.162013 0.623419 0.838625 0.188454
H3    H     H_    0.897274 0.428495 0.144803 0.184158
H4    H     H_    0.619610 0.604909 0.711940 0.153150
O1    O     O_R   0.521780 0.757110 0.108900 -0.474083
O2    O     O_R   0.513330 0.228330 0.898660 -0.463840
O3    O     O_R   0.739230 0.266130 0.888050 -0.443673
O4    O     O_R   0.712580 0.991850 0.918770 -0.421642
O5    O     O_3   0.499990 0.999980 0.999980 -0.322393
O6    O     O_R   0.083770 0.911170 0.376030 -0.488021
O7    O     O_R   0.808770 0.880340 0.383890 -0.492208
O8    O     O_R   0.584340 0.689460 0.394160 -0.470064
O9    O     O_R   0.614320 0.443940 0.423590 -0.417875
O10   O     O_R   0.805020 0.410040 0.421340 -0.417775
O11   O     O_R   0.049240 0.685450 0.403290 -0.468719
O12   O     O_R   0.275160 0.783810 0.101120 -0.501737
O13   O     O_R   0.077520 0.903010 0.551800 -0.430025
O14   O     O_R   0.802980 0.872780 0.546830 -0.456536
O15   O     O_R   0.578090 0.681300 0.569920 -0.510948
O16   O     O_R   0.608530 0.436370 0.586530 -0.479063
O17   O     O_R   0.798770 0.401880 0.597100 -0.370976
O18   O     O_R   0.043450 0.677890 0.566230 -0.437993
O19   O     O_3   0.821250 0.666180 0.485090 -0.398336
O20   O     O_R   0.237900 0.972600 0.090980 -0.508327
O21   O     O_R   0.511190 0.220540 0.061620 -0.494849
O22   O     O_R   0.736920 0.257720 0.063840 -0.528348
O23   O     O_R   0.710450 0.984050 0.081720 -0.488856
O24   O     O_R   0.524090 0.765520 0.933110 -0.475712
O25   O     O_R   0.277300 0.791600 0.938160 -0.518238
O26   O     O_R   0.240210 0.981010 0.915190 -0.433486
Cl1   Cl    Cl    0.023058 0.030369 0.661996 -0.431091
F1    F     F_    0.086881 0.567295 0.699920 -0.554636
F2    F     F_    0.457457 0.389458 0.309114 -0.577467
F3    F     F_    0.957451 0.497785 0.281616 -0.613295
Cl2   Cl    Cl    0.631670 0.584046 0.878766 -0.597153
F4    F     F_    0.720753 0.072729 0.616520 -0.536784
F5    F     F_    0.729734 0.110997 0.770235 -0.565036
Cl3   Cl    Cl    0.021058 0.001420 0.844098 -0.458986

loop_
_geom_bond_atom_site_label_1
_geom_bond_atom_site_label_2
_ccdc_geom_bond_type
Cr3   O5    S    
C29   O17   A    
Cr4   O14   S    
C30   O18   A    
Cr3   O22   S    
C23   O23   A    
C19   C20   A    
Cr5   O15   S    
C26   O9    A    
C7    C8    T    
C20   C30   S    
C12   O22   A    
C35   F2    S    
C18   C24   A    
C21   C22   A    
C25   O7    A    
C34   C35   A    
C5    C6    T    
Cr1   O5    S    
C6    C25   S    
C15   C16   A    
C18   C19   A    
Cr5   O9    S    
C11   Cl2   S    
C9    C32   S    
Cr6   O10   S    
C22   H2    S    
Cr2   O20   S    
C16   C17   A    
Cr6   O19   S    
C4    C12   S    
C9    C10   T    
Cr2   O2    S    
Cr1   O12   S    
C28   O15   A    
C31   O25   A    
Cr4   O13   S    
Cr1   O24   S    
C32   O2    A    
C17   C33   S    
Cr5   O16   S    
Cr6   O11   S    
Cr2   O26   S    
C28   O14   A    
Cr5   O8    S    
C12   O21   A    
C4    C34   A    
C23   O1    A    
C19   Cl1   S    
C25   O8    A    
C27   O11   A    
Cr5   O19   S    
Cr2   O5    S    
C33   O4    A    
Cr4   O6    S    
C21   F1    S    
C3    H3    S    
C35   C36   A    
C5    C23   S    
C30   O13   A    
C1    O20   A    
Cr3   O23   S    
C20   C21   A    
C33   O24   A    
C26   C36   S    
C31   O26   A    
Cr3   O3    S    
Cr4   O19   S    
Cr1   O25   S    
C22   C24   A    
Cr1   O1    S    
C3    C4    A    
Cr6   O18   S    
C2    F3    S    
C27   O6    A    
C2    C36   A    
C29   O16   A    
C11   C17   A    
C1    C7    S    
C34   H1    S    
C26   O10   A    
C16   F5    S    
C2    C3    A    
C24   C31   S    
C1    O12   A    
C11   C13   A    
C10   C29   S    
C13   H4    S    
C32   O3    A    
C15   F4    S    
Cr3   O4    S    
Cr2   O21   S    
C18   Cl3   S    
Cr4   O7    S    
C8    C27   S    
C14   C15   A    
C14   C28   S    
C13   C14   A    
Cr6   O17   S    
