data_mof_unit_34472.cif
_audit_creation_date              2012-12-10T19:44:26-0500
_audit_creation_method            fapswitch 2.2
_symmetry_space_group_name_H-M    P1
_symmetry_Int_Tables_number       1
_space_group_crystal_system       triclinic
_cell_length_a                    10.884421
_cell_length_b                    12.540329
_cell_length_c                    13.198436
_cell_angle_alpha                 116.80087
_cell_angle_beta                  74.269546
_cell_angle_gamma                 101.69645
_cell_volume                      1540.9609218

loop_
_atom_site_label
_atom_site_type_symbol
_atom_type_description
_atom_site_fract_x
_atom_site_fract_y
_atom_site_fract_z
_atom_type_partial_charge
C1    C     C_R   0.518299 0.855585 0.285895 0.771137
C2    C     C_R   0.296177 0.268139 0.315044 -0.172387
C3    C     C_R   0.376552 0.191602 0.218340 -0.132877
C4    C     C_R   0.736502 0.001849 0.502278 0.807959
C5    C     C_R   0.363085 0.069185 0.191050 -0.107374
C6    C     C_R   0.269471 0.022551 0.260028 -0.158271
C7    C     C_R   0.189386 0.098780 0.358651 0.130685
C8    C     C_R   0.310902 0.301933 0.031924 -0.139939
C9    C     C_R   0.449960 0.232312 0.840176 -0.094764
C10   C     C_R   0.657170 0.799287 0.090526 -0.227431
C11   C     C_R   0.703154 0.712782 0.981016 -0.137718
C12   C     C_R   0.611946 0.852069 0.815458 0.159227
C13   C     C_R   0.642443 0.596720 0.942269 -0.175794
C14   C     C_R   0.530563 0.565154 0.011636 0.096175
C15   C     C_R   0.478975 0.656821 0.120123 0.059196
C16   C     C_R   0.477889 0.145454 0.715088 0.777136
C17   C     C_R   0.470466 0.445263 0.979185 0.020405
C18   C     C_R   0.363902 0.420073 0.057907 0.094361
C19   C     C_R   0.308689 0.513395 0.159894 0.119703
C20   C     C_R   0.363057 0.630491 0.187179 -0.252582
C21   C     C_R   0.511412 0.349647 0.870793 -0.249540
C22   C     C_R   0.351735 0.209282 0.925278 0.083948
C23   C     C_R   0.030399 0.960184 0.574107 0.108786
C24   C     C_R   0.545840 0.772777 0.161546 -0.107366
C25   C     C_R   0.697285 0.336621 0.313262 -0.259115
C26   C     C_R   0.328298 0.755201 0.653381 0.350142
C27   C     C_R   0.294344 0.658329 0.682864 -0.229455
C28   C     C_R   0.262477 0.999763 0.499878 0.800338
C29   C     C_R   0.356440 0.556650 0.621475 -0.244813
C30   C     C_R   0.459425 0.548992 0.529628 -0.009001
C31   C     C_R   0.495755 0.650254 0.497799 0.252652
C32   C     C_R   0.528856 0.443686 0.470929 0.001154
C33   C     C_R   0.628866 0.436407 0.376142 0.085102
C34   C     C_R   0.127468 0.000913 0.500687 -0.102068
C35   C     C_R   0.662731 0.528301 0.342371 -0.324605
C36   C     C_R   0.604614 0.634486 0.401523 0.176950
C37   C     C_R   0.504835 0.344219 0.501734 0.002317
C38   C     C_R   0.667037 0.241039 0.342603 0.367412
C39   C     C_R   0.648612 0.975283 0.845281 0.142724
C40   C     C_R   0.742940 0.012555 0.768061 0.115237
C41   C     C_R   0.801701 0.925931 0.661254 0.023339
C42   C     C_R   0.770125 0.803718 0.635456 -0.233525
C43   C     C_R   0.677821 0.765950 0.712459 0.178624
C44   C     C_R   0.093684 0.048465 0.433607 -0.030146
C45   C     C_R   0.965149 0.048819 0.436948 -0.208857
C46   C     C_R   0.869304 0.004513 0.506367 -0.134637
C47   C     C_R   0.901293 0.962089 0.577463 -0.005732
C48   C     C_R   0.202480 0.222942 0.386570 0.202723
Cu1   Cu    Cu3+1 0.529370 0.098270 0.475420 0.932235
Cu2   Cu    Cu3+1 0.470630 0.901730 0.524580 0.951515
H1    H     H_    0.449718 0.227568 0.164968 0.152990
H2    H     H_    0.818320 0.737211 0.555008 0.155515
H3    H     H_    0.940006 0.082275 0.383117 0.168435
H4    H     H_    0.308588 0.362933 0.335212 0.138377
H5    H     H_    0.529331 0.849528 0.971103 0.237552
H6    H     H_    0.425820 0.850618 0.896684 0.239161
H7    H     H_    0.425680 0.010200 0.116916 0.152454
H8    H     H_    0.349627 0.033239 0.878385 0.270360
H9    H     H_    0.231677 0.076362 0.841686 0.230640
H10   H     H_    0.215596 0.522689 0.318253 0.218445
H11   H     H_    0.123783 0.538429 0.241994 0.220390
H12   H     H_    0.260743 0.927346 0.237861 0.109048
H13   H     H_    0.664933 0.107746 0.002612 0.232547
H14   H     H_    0.554857 0.124271 0.943469 0.248315
H15   H     H_    0.314029 0.700605 0.263432 0.158326
H16   H     H_    0.755136 0.093166 0.303095 0.253960
H17   H     H_    0.662773 0.078138 0.209196 0.225715
H18   H     H_    0.771839 0.330299 0.237491 0.154758
H19   H     H_    0.431470 0.341403 0.574104 0.125659
H20   H     H_    0.162173 0.829043 0.743844 0.194869
H21   H     H_    0.270021 0.912387 0.688993 0.294574
H22   H     H_    0.321875 0.485734 0.649681 0.140830
H23   H     H_    0.232306 0.280828 0.092828 0.196388
H24   H     H_    0.763496 0.739053 0.370867 0.195646
H25   H     H_    0.672332 0.687210 0.271338 0.206451
H26   H     H_    0.759662 0.161203 0.739471 0.216941
H27   H     H_    0.877532 0.154862 0.797727 0.221591
H28   H     H_    0.581572 0.621816 0.745994 0.258708
H29   H     H_    0.737865 0.611701 0.685702 0.200686
H30   H     H_    0.022485 0.976185 0.735885 0.212727
H31   H     H_    0.026845 0.833227 0.630046 0.219103
H32   H     H_    0.140700 0.389563 0.493615 0.213426
H33   H     H_    0.147790 0.305269 0.560419 0.210453
H34   H     H_    0.587461 0.365022 0.805756 0.156553
H35   H     H_    0.712918 0.885019 0.121645 0.146555
H36   H     H_    0.687528 0.533565 0.858845 0.120303
H37   H     H_    0.789703 0.734583 0.927328 0.138523
H38   H     H_    0.742252 0.520179 0.269362 0.148924
H39   H     H_    0.217259 0.662459 0.756213 0.149314
N1    N     N_R   0.573890 0.246290 0.438210 -0.193809
N2    N     N_3   0.778921 0.138373 0.800228 -0.609503
N3    N     N_3   0.654533 0.639748 0.684141 -0.582949
N4    N     N_3   0.063303 0.922557 0.650093 -0.620526
N5    N     N_3   0.122247 0.302209 0.488221 -0.597209
N6    N     N_R   0.426890 0.754320 0.561170 -0.208322
N7    N     N_3   0.507954 0.814204 0.889046 -0.595181
N8    N     N_3   0.283368 0.094963 0.904605 -0.592200
N9    N     N_3   0.195318 0.490006 0.235741 -0.617836
N10   N     N_3   0.592229 0.061981 0.956150 -0.636102
N11   N     N_3   0.726793 0.134596 0.261769 -0.619125
N12   N     N_3   0.260017 0.856955 0.728980 -0.619936
N13   N     N_3   0.668298 0.722593 0.360680 -0.498617
O1    O     O_R   0.536940 0.972510 0.318130 -0.592860
O2    O     O_R   0.487330 0.806530 0.359650 -0.554508
O3    O     O_R   0.705160 0.082990 0.479250 -0.597903
O4    O     O_R   0.655550 0.917010 0.520760 -0.539871
O5    O     O_R   0.512670 0.193470 0.640350 -0.581435
O6    O     O_R   0.463060 0.027490 0.681870 -0.586118
O7    O     O_R   0.344450 0.082990 0.479240 -0.581120
O8    O     O_R   0.294840 0.917010 0.520750 -0.583269

loop_
_geom_bond_atom_site_label_1
_geom_bond_atom_site_label_2
_ccdc_geom_bond_type
C10   H35   S    
Cu2   O2    S    
H32   N5    S    
C37   H19   S    
C27   C29   A    
C41   C42   A    
H11   N9    S    
Cu1   N1    S    
H20   N12   S    
Cu1   O5    S    
C4    C46   S    
C45   C46   A    
C25   H18   S    
C2    C48   A    
C26   C27   A    
C48   N5    S    
C37   N1    A    
C9    C16   S    
C12   C43   A    
H10   N9    S    
C26   N12   S    
C30   C31   A    
Cu2   N6    S    
Cu2   O8    S    
C36   N13   S    
C18   C19   A    
H16   N11   S    
H13   N10   S    
C16   O5    A    
H14   N10   S    
C19   C20   A    
C11   H37   S    
C13   H36   S    
H25   N13   S    
C8    C22   A    
C1    O1    A    
H24   N13   S    
C29   H22   S    
H21   N12   S    
C28   C34   S    
C22   N8    S    
C13   C14   A    
Cu2   O6    S    
C14   C17   A    
H8    N8    S    
C19   N9    S    
C15   C20   A    
C23   C47   A    
C20   H15   S    
C34   C44   A    
C38   N11   S    
C2    H4    S    
C39   C40   A    
C3    H1    S    
Cu1   O3    S    
C28   O8    A    
C32   C37   A    
H33   N5    S    
C4    O4    A    
C8    C18   A    
C23   N4    S    
C35   C36   A    
C29   C30   A    
C25   C38   A    
H31   N4    S    
C35   H38   S    
C39   N10   S    
C21   H34   S    
C23   C34   A    
C17   C18   A    
C41   C47   S    
C7    C44   S    
C1    O2    A    
H29   N3    S    
H17   N11   S    
C15   C24   A    
H9    N8    S    
C42   C43   A    
C44   C45   A    
Cu1   O7    S    
C26   N6    A    
H6    N7    S    
C46   C47   A    
H27   N2    S    
C31   C36   A    
H5    N7    S    
C3    C5    A    
Cu1   O1    S    
C6    C7    A    
C28   O7    A    
C4    O3    A    
C38   N1    A    
C43   N3    S    
C5    H7    S    
H28   N3    S    
C7    C48   A    
C6    H12   S    
C12   C39   A    
C2    C3    A    
C32   C33   A    
C30   C32   A    
C11   C13   A    
C9    C21   A    
C5    C6    A    
C31   N6    A    
C8    H23   S    
C33   C35   A    
C27   H39   S    
C40   N2    S    
C9    C22   A    
C17   C21   A    
C10   C11   A    
C16   O6    A    
H26   N2    S    
C45   H3    S    
C1    C24   S    
C10   C24   A    
Cu1   Cu2   S    
C25   C33   A    
Cu2   O4    S    
C14   C15   A    
C12   N7    S    
C40   C41   A    
H30   N4    S    
C42   H2    S    
