data_mof_unit_37025.cif
_audit_creation_date              2012-12-10T17:32:21-0500
_audit_creation_method            fapswitch 2.2
_symmetry_space_group_name_H-M    P1
_symmetry_Int_Tables_number       1
_space_group_crystal_system       triclinic
_cell_length_a                    12.356665
_cell_length_b                    13.301019
_cell_length_c                    15.016023
_cell_angle_alpha                 77.292283
_cell_angle_beta                  101.439594
_cell_angle_gamma                 116.965406
_cell_volume                      2131.94021591

loop_
_atom_site_label
_atom_site_type_symbol
_atom_type_description
_atom_site_fract_x
_atom_site_fract_y
_atom_site_fract_z
_atom_type_partial_charge
C1    C     C_R   0.854905 0.286548 0.510669 0.759582
C2    C     C_R   0.010486 0.601400 0.075068 -0.028193
C3    C     C_R   0.010573 0.317893 0.084309 -0.189082
C4    C     C_R   0.010656 0.317209 0.991634 -0.191381
C5    C     C_R   0.007791 0.409007 0.925932 0.129326
C6    C     C_R   0.006117 0.503197 0.953642 0.069754
C7    C     C_R   0.001784 0.595037 0.887735 0.017736
C8    C     C_R   0.005774 0.690466 0.915316 -0.266122
C9    C     C_R   0.013182 0.696350 0.008384 0.442395
C10   C     C_R   0.006681 0.408543 0.832832 -0.246293
C11   C     C_R   0.999352 0.498875 0.767615 -0.061563
C12   C     C_R   0.999147 0.498829 0.670984 0.799186
C13   C     C_R   0.995513 0.590947 0.794830 -0.185315
C14   C     C_R   0.289021 0.001909 0.568655 -0.230132
C15   C     C_R   0.227781 0.832202 0.501057 -0.110989
C16   C     C_R   0.811524 0.106419 0.459203 -0.173085
C17   C     C_R   0.728864 0.000875 0.434218 -0.141706
C18   C     C_R   0.607138 0.954508 0.450697 -0.168585
C19   C     C_R   0.566968 0.010645 0.497661 0.088978
C20   C     C_R   0.655166 0.112902 0.530474 0.089652
C21   C     C_R   0.442586 0.970473 0.512595 0.082874
C22   C     C_R   0.411115 0.032231 0.560547 0.137195
C23   C     C_R   0.144943 0.712892 0.491686 0.825678
C24   C     C_R   0.502144 0.121508 0.603338 -0.197296
C25   C     C_R   0.623077 0.159938 0.590093 -0.195166
C26   C     C_R   0.348702 0.870156 0.483574 -0.241457
C27   C     C_R   0.195917 0.902835 0.538667 -0.016204
C28   C     C_R   0.774565 0.165135 0.504591 -0.087572
C29   C     C_R   0.357091 0.346761 0.658611 -0.291764
C30   C     C_R   0.753974 0.643346 0.373253 0.195625
C31   C     C_R   0.657258 0.674519 0.349117 -0.270239
C32   C     C_R   0.557748 0.622344 0.398211 -0.213213
C33   C     C_R   0.552961 0.537759 0.473706 0.009310
C34   C     C_R   0.001297 0.501296 0.329030 0.801004
C35   C     C_R   0.655689 0.510083 0.498942 0.280098
C36   C     C_R   0.450040 0.480482 0.525504 -0.019962
C37   C     C_R   0.455994 0.404332 0.606368 0.167157
C38   C     C_R   0.560032 0.385059 0.633833 -0.281633
C39   C     C_R   0.653773 0.431299 0.578356 -0.152906
C40   C     C_R   0.340774 0.495458 0.500777 0.032503
C41   C     C_R   0.252310 0.364777 0.630441 0.101074
C42   C     C_R   0.009178 0.598649 0.168771 -0.110906
C43   C     C_R   0.004648 0.503193 0.232507 -0.083417
C44   C     C_R   0.007496 0.410906 0.204970 -0.225584
C45   C     C_R   0.009115 0.410991 0.112461 0.134110
C46   C     C_R   0.008431 0.505288 0.047061 0.001036
Cu1   Cu    Cu3+1 0.098270 0.475420 0.521130 0.949094
Cu2   Cu    Cu3+1 0.901730 0.524580 0.478870 0.994491
H1    H     H_    0.013333 0.670467 0.193667 0.219742
H2    H     H_    0.478842 0.159577 0.648615 0.145340
H3    H     H_    0.266632 0.053394 0.602248 0.159757
H4    H     H_    0.367727 0.816528 0.450709 0.144118
H5    H     H_    0.903131 0.144522 0.439358 0.171525
H6    H     H_    0.547368 0.875012 0.425773 0.128370
H7    H     H_    0.758082 0.956817 0.398294 0.163227
H8    H     H_    0.692334 0.225228 0.628065 0.124780
H9    H     H_    0.176217 0.321655 0.671093 0.131149
H10   H     H_    0.567333 0.330122 0.697481 0.150027
H11   H     H_    0.360708 0.288033 0.720635 0.147921
H12   H     H_    0.006442 0.338410 0.255575 0.143653
H13   H     H_    0.328297 0.552098 0.440629 0.123053
H14   H     H_    0.486911 0.651391 0.376040 0.141740
H15   H     H_    0.658435 0.739503 0.290708 0.163688
H16   H     H_    0.722890 0.402329 0.599706 0.191550
H17   H     H_    0.011594 0.245559 0.134036 0.158024
H18   H     H_    0.011998 0.244553 0.971259 0.167207
H19   H     H_    0.009393 0.337418 0.810766 0.140666
H20   H     H_    0.991172 0.660837 0.743893 0.196314
H21   H     H_    0.004644 0.761305 0.863772 0.199004
N1    N     N_R   0.246280 0.438190 0.553160 -0.187575
N2    N     N_R   0.754320 0.561190 0.447410 -0.242957
O1    O     O_R   0.972510 0.318130 0.526570 -0.581492
O2    O     O_R   0.806530 0.359650 0.490890 -0.591286
O3    O     O_R   0.082980 0.479210 0.647590 -0.582276
O4    O     O_R   0.917000 0.520730 0.611900 -0.582001
O5    O     O_R   0.193470 0.640350 0.509110 -0.591525
O6    O     O_R   0.027490 0.681870 0.473430 -0.529451
O7    O     O_R   0.083000 0.479270 0.388100 -0.589841
O8    O     O_R   0.917020 0.520790 0.352410 -0.567489
C47   C     C_2   0.849754 0.699239 0.311811 0.886831
O9    O     O_2   0.830947 0.665789 0.238340 -0.568022
O10   O     O_R   0.952809 0.798779 0.330955 -0.756041
H22   H     H_    0.009733 0.831380 0.281321 0.335874
S1    S     S_3+6 0.026872 0.824222 0.037521 -0.006601
O11   O     O_2   0.050643 0.916147 0.955258 -0.291413
O12   O     O_2   0.910075 0.801824 0.070966 -0.256793
O13   O     O_3   0.143352 0.868985 0.120907 -0.565681
H23   H     H_    0.140521 0.935910 0.137218 0.371488
C48   C     C_2   0.069716 0.876462 0.552446 0.887676
O14   O     O_2   0.003739 0.783106 0.590650 -0.606803
O15   O     O_R   0.028720 0.962056 0.525770 -0.758045
H24   H     H_    0.942062 0.935272 0.539762 0.334477

loop_
_geom_bond_atom_site_label_1
_geom_bond_atom_site_label_2
_ccdc_geom_bond_type
C16   C28   A    
C21   C26   A    
C12   O3    A    
C9    S1    S    
C19   C20   A    
S1    O13   S    
C23   O5    A    
O13   H23   S    
C30   N2    A    
C7    C8    A    
C10   H19   S    
C2    C46   A    
C39   H16   S    
C8    H21   S    
C40   N1    A    
C5    C6    A    
Cu2   O8    S    
C36   C37   A    
C19   C21   A    
S1    O12   D    
Cu1   O5    S    
C30   C31   A    
C20   C25   A    
C33   C36   A    
C18   C19   A    
C16   H5    S    
C38   H10   S    
Cu1   Cu2   S    
C8    C9    A    
C1    C28   S    
C25   H8    S    
C14   C27   A    
C48   O15   S    
C17   H7    S    
C30   C47   S    
C15   C23   S    
C35   N2    A    
C21   C22   A    
Cu2   O4    S    
C3    H17   S    
C24   H2    S    
C44   H12   S    
C1    O1    A    
C31   H15   S    
C36   C40   A    
C24   C25   A    
C47   O10   S    
O15   H24   S    
C16   C17   A    
C15   C26   A    
C20   C28   A    
C45   C46   A    
C3    C45   A    
C23   O6    A    
C40   H13   S    
Cu2   O6    S    
C35   C39   A    
C43   C44   A    
Cu1   N1    S    
C37   C38   A    
C26   H4    S    
C34   O8    A    
C15   C27   A    
C14   H3    S    
C7    C13   A    
C17   C18   A    
S1    O11   D    
C22   C24   A    
C42   C43   A    
Cu2   N2    S    
C3    C4    A    
C44   C45   A    
C6    C46   A    
C29   C41   A    
Cu2   O2    S    
C31   C32   A    
C34   C43   S    
Cu1   O3    S    
C47   O9    D    
C11   C12   S    
C6    C7    A    
C1    O2    A    
C32   C33   A    
C14   C22   A    
C41   H9    S    
C5    C10   A    
C34   O7    A    
C4    H18   S    
C11   C13   A    
C38   C39   A    
C2    C42   A    
C33   C35   A    
C27   C48   S    
Cu1   O1    S    
C10   C11   A    
C18   H6    S    
C42   H1    S    
C32   H14   S    
C4    C5    A    
O10   H22   S    
C12   O4    A    
C29   C37   A    
C29   H11   S    
Cu1   O7    S    
C48   O14   D    
C2    C9    A    
C41   N1    A    
C13   H20   S    
