data_mof_unit_11452.cif
_audit_creation_date              2012-12-11T14:42:23-0500
_audit_creation_method            fapswitch 2.2
_symmetry_space_group_name_H-M    P1
_symmetry_Int_Tables_number       1
_space_group_crystal_system       triclinic
_cell_length_a                    18.931661
_cell_length_b                    10.93724
_cell_length_c                    18.770664
_cell_angle_alpha                 89.970497
_cell_angle_beta                  90.433819
_cell_angle_gamma                 89.93196
_cell_volume                      3886.54125776

loop_
_atom_site_label
_atom_site_type_symbol
_atom_type_description
_atom_site_fract_x
_atom_site_fract_y
_atom_site_fract_z
_atom_type_partial_charge
C1    C     C_R   0.727749 0.954062 0.853217 0.539955
C2    C     C_R   0.251201 0.400499 0.920706 0.027219
C3    C     C_R   0.276336 0.976354 0.063674 0.028824
C4    C     C_R   0.751201 0.900499 0.920706 0.027219
C5    C     C_R   0.833322 0.458157 0.018025 -0.134587
C6    C     C_R   0.208890 0.311043 0.952546 -0.131816
C7    C     C_R   0.333322 0.958157 0.018025 -0.134587
C8    C     C_R   0.708890 0.811043 0.952546 -0.131816
C9    C     C_R   0.821334 0.432703 0.946608 -0.120748
C10   C     C_R   0.218415 0.282030 0.023564 -0.132994
C11   C     C_R   0.321335 0.932703 0.946608 -0.120748
C12   C     C_R   0.290438 0.000419 0.138677 0.537525
C13   C     C_R   0.718415 0.782030 0.023564 -0.132994
C14   C     C_R   0.751951 0.424708 0.920339 0.032174
C15   C     C_R   0.271676 0.338801 0.063643 0.020714
C16   C     C_R   0.251951 0.924708 0.920339 0.032174
C17   C     C_R   0.771676 0.838801 0.063643 0.020714
C18   C     C_R   0.458745 0.269878 0.550958 -0.129792
C19   C     C_R   0.442748 0.273903 0.479536 -0.142920
C20   C     C_R   0.958745 0.769878 0.550958 -0.129793
C21   C     C_R   0.942748 0.773902 0.479536 -0.142920
C22   C     C_R   0.454824 0.171891 0.436956 0.035827
C23   C     C_R   0.227749 0.454062 0.853217 0.539955
C24   C     C_R   0.491773 0.165949 0.579021 0.037547
C25   C     C_R   0.954824 0.671891 0.436956 0.035827
C26   C     C_R   0.991773 0.665949 0.579021 0.037547
C27   C     C_R   0.484158 0.065158 0.465765 -0.136420
C28   C     C_R   0.503457 0.062774 0.536674 -0.152784
C29   C     C_R   0.984159 0.565159 0.465765 -0.136420
C30   C     C_R   0.003458 0.562775 0.536674 -0.152784
C31   C     C_R   0.809806 0.355038 0.535149 0.100655
C32   C     C_R   0.216655 0.279229 0.479500 0.098068
C33   C     C_R   0.309806 0.855037 0.535149 0.100655
C34   C     C_R   0.790438 0.500419 0.138677 0.537524
C35   C     C_R   0.716656 0.779229 0.479500 0.098067
C36   C     C_R   0.810998 0.346651 0.461440 0.108517
C37   C     C_R   0.216086 0.299895 0.553290 0.106080
C38   C     C_R   0.310998 0.846650 0.461440 0.108517
C39   C     C_R   0.716086 0.799895 0.553290 0.106078
C40   C     C_R   0.557246 0.181502 0.858708 0.562208
C41   C     C_R   0.472552 0.177778 0.150990 0.548714
C42   C     C_R   0.057246 0.681502 0.858708 0.562208
C43   C     C_R   0.972552 0.677778 0.150990 0.548714
C44   C     C_R   0.755084 0.399365 0.421073 0.054796
C45   C     C_R   0.706986 0.474703 0.036632 -0.139645
C46   C     C_R   0.251423 0.402455 0.581015 0.047468
C47   C     C_R   0.255083 0.899364 0.421073 0.054796
C48   C     C_R   0.751423 0.902455 0.581015 0.047468
C49   C     C_R   0.691181 0.425323 0.454011 -0.157384
C50   C     C_R   0.294792 0.473457 0.537527 -0.188242
C51   C     C_R   0.191181 0.925323 0.454011 -0.157381
C52   C     C_R   0.794791 0.973458 0.537527 -0.188242
C53   C     C_R   0.686153 0.415973 0.527735 -0.190740
C54   C     C_R   0.300643 0.446292 0.465937 -0.187735
C55   C     C_R   0.186153 0.915973 0.527735 -0.190738
C56   C     C_R   0.308279 0.450601 0.958902 -0.132105
C57   C     C_R   0.800643 0.946292 0.465936 -0.187736
C58   C     C_R   0.746285 0.387345 0.569072 0.034564
C59   C     C_R   0.262718 0.349045 0.436479 0.032130
C60   C     C_R   0.246285 0.887345 0.569072 0.034564
C61   C     C_R   0.762718 0.849045 0.436478 0.032131
C62   C     C_R   0.738930 0.366213 0.851969 0.544160
C63   C     C_R   0.275886 0.313024 0.139956 0.547355
C64   C     C_R   0.238930 0.866213 0.851969 0.544160
C65   C     C_R   0.775887 0.813024 0.139956 0.547355
C66   C     C_R   0.728990 0.952286 0.648934 0.575858
C67   C     C_R   0.206986 0.974704 0.036632 -0.139645
C68   C     C_R   0.271503 0.950320 0.351037 0.570334
C69   C     C_R   0.228990 0.452286 0.648934 0.575858
C70   C     C_R   0.771503 0.450320 0.351037 0.570333
C71   C     C_R   0.528207 0.176020 0.645940 0.559924
C72   C     C_R   0.437605 0.180310 0.362548 0.547473
C73   C     C_R   0.028207 0.676020 0.645940 0.559924
C74   C     C_R   0.937605 0.680310 0.362548 0.547473
C75   C     C_R   0.738397 0.358190 0.644382 0.573582
C76   C     C_R   0.272596 0.316636 0.361679 0.568315
C77   C     C_R   0.238397 0.858190 0.644382 0.573582
C78   C     C_R   0.808279 0.950601 0.958902 -0.132105
C79   C     C_R   0.772596 0.816637 0.361679 0.568315
C80   C     C_2   0.532423 0.173324 0.931971 -0.114845
C81   C     C_2   0.515653 0.171770 0.086873 -0.103687
C82   C     C_2   0.032423 0.673324 0.931971 -0.114845
C83   C     C_2   0.015653 0.671771 0.086873 -0.103687
C84   C     C_2   0.522509 0.069899 0.047920 -0.162035
C85   C     C_2   0.546461 0.075562 0.973338 -0.165804
C86   C     C_2   0.022509 0.569899 0.047920 -0.162035
C87   C     C_2   0.046461 0.575562 0.973338 -0.165804
C88   C     C_R   0.694893 0.450013 0.965091 -0.145755
C89   C     C_R   0.776336 0.476354 0.063674 0.028824
C90   C     C_R   0.318934 0.418869 0.030140 -0.130631
C91   C     C_R   0.194893 0.950014 0.965091 -0.145755
C92   C     C_R   0.818934 0.918869 0.030140 -0.130631
Cr1   Cr    Cr6+3 0.769270 0.163730 0.750710 1.026178
Cr2   Cr    Cr6+3 0.385840 0.322500 0.252290 1.017496
Cr3   Cr    Cr6+3 0.114160 0.822500 0.747710 1.014843
Cr4   Cr    Cr6+3 0.885840 0.822500 0.252290 1.017495
Cr5   Cr    Cr6+3 0.230730 0.163730 0.249290 1.019699
Cr6   Cr    Cr6+3 0.269270 0.663730 0.750710 1.026178
Cr7   Cr    Cr6+3 0.730730 0.663730 0.249290 1.019700
Cr8   Cr    Cr6+3 0.612620 0.009790 0.748780 1.028663
Cr9   Cr    Cr6+3 0.387380 0.009790 0.251220 1.025310
Cr10  Cr    Cr6+3 0.112620 0.509790 0.748780 1.028663
Cr11  Cr    Cr6+3 0.887380 0.509790 0.251220 1.025310
Cr12  Cr    Cr6+3 0.614160 0.322500 0.747710 1.014843
H1    H     H_    0.507034 0.981774 0.069310 0.144185
H2    H     H_    0.334193 0.502414 0.433106 0.137825
H3    H     H_    0.135580 0.933290 0.552412 0.140301
H4    H     H_    0.834193 0.002414 0.433106 0.137825
H5    H     H_    0.535907 0.258118 0.066999 0.108813
H6    H     H_    0.503811 0.251444 0.952862 0.108769
H7    H     H_    0.035907 0.758118 0.066999 0.108813
H8    H     H_    0.003811 0.751444 0.952862 0.108769
H9    H     H_    0.640891 0.442683 0.946063 0.125700
H10   H     H_    0.361698 0.461409 0.059625 0.138786
H11   H     H_    0.140891 0.942685 0.946063 0.125700
H12   H     H_    0.572583 0.995806 0.951230 0.155944
H13   H     H_    0.861698 0.961409 0.059625 0.138786
H14   H     H_    0.662020 0.489245 0.070944 0.131270
H15   H     H_    0.342027 0.519073 0.935145 0.134346
H16   H     H_    0.162020 0.989247 0.070944 0.131270
H17   H     H_    0.842027 0.019074 0.935145 0.134346
H18   H     H_    0.886905 0.460875 0.038091 0.119635
H19   H     H_    0.165160 0.269264 0.924103 0.135027
H20   H     H_    0.386905 0.960874 0.038091 0.119635
H21   H     H_    0.665161 0.769264 0.924102 0.135027
H22   H     H_    0.866068 0.413366 0.912733 0.135881
H23   H     H_    0.007034 0.481774 0.069310 0.144185
H24   H     H_    0.181921 0.218879 0.047971 0.130546
H25   H     H_    0.366068 0.913365 0.912733 0.135881
H26   H     H_    0.681922 0.718879 0.047971 0.130547
H27   H     H_    0.450694 0.351372 0.582723 0.131795
H28   H     H_    0.424461 0.358538 0.456621 0.125331
H29   H     H_    0.950693 0.851371 0.582723 0.131795
H30   H     H_    0.924461 0.858537 0.456621 0.125331
H31   H     H_    0.496325 0.986820 0.432907 0.130665
H32   H     H_    0.531132 0.983155 0.557055 0.131667
H33   H     H_    0.996326 0.486821 0.432907 0.130665
H34   H     H_    0.072583 0.495806 0.951230 0.155944
H35   H     H_    0.031133 0.483155 0.557055 0.131668
H36   H     H_    0.872420 0.196456 0.446542 0.207313
H37   H     H_    0.916217 0.330465 0.440823 0.220844
H38   H     H_    0.197028 0.131903 0.595132 0.233368
H39   H     H_    0.124095 0.224763 0.589025 0.225994
H40   H     H_    0.372420 0.696454 0.446541 0.207313
H41   H     H_    0.416216 0.830464 0.440823 0.220843
H42   H     H_    0.697028 0.631903 0.595132 0.233367
H43   H     H_    0.624095 0.724762 0.589025 0.225994
H44   H     H_    0.912527 0.388381 0.559865 0.223899
H45   H     H_    0.646114 0.456116 0.422962 0.150008
H46   H     H_    0.889181 0.239151 0.565846 0.216796
H47   H     H_    0.128236 0.248997 0.422178 0.240765
H48   H     H_    0.139729 0.145056 0.484348 0.206451
H49   H     H_    0.412527 0.888379 0.559865 0.223898
H50   H     H_    0.389181 0.739149 0.565846 0.216796
H51   H     H_    0.628234 0.749001 0.422181 0.240761
H52   H     H_    0.639731 0.645053 0.484347 0.206452
H53   H     H_    0.321527 0.553542 0.558036 0.136778
H54   H     H_    0.146114 0.956117 0.422963 0.150009
H55   H     H_    0.821526 0.053543 0.558036 0.136779
H56   H     H_    0.635580 0.433289 0.552412 0.140301
N1    N     N_3   0.869278 0.285917 0.427589 -0.589698
N2    N     N_3   0.178131 0.220898 0.600707 -0.609777
N3    N     N_3   0.369278 0.785916 0.427589 -0.589698
N4    N     N_3   0.678131 0.720898 0.600707 -0.609777
N5    N     N_3   0.872843 0.328767 0.575651 -0.600526
N6    N     N_3   0.167266 0.195878 0.446949 -0.604672
N7    N     N_3   0.372843 0.828766 0.575651 -0.600526
N8    N     N_3   0.667266 0.695880 0.446949 -0.604667
O1    O     O_R   0.784320 0.290430 0.830510 -0.517628
O2    O     O_R   0.456080 0.282180 0.333210 -0.514218
O3    O     O_R   0.043920 0.782180 0.666790 -0.524079
O4    O     O_R   0.956080 0.782180 0.333210 -0.514218
O5    O     O_R   0.679040 0.374160 0.674430 -0.513375
O6    O     O_R   0.320960 0.374160 0.325570 -0.512119
O7    O     O_R   0.179040 0.874160 0.674430 -0.513375
O8    O     O_R   0.820960 0.874160 0.325570 -0.512120
O9    O     O_3   0.665350 0.165340 0.749070 -0.267611
O10   O     O_3   0.334650 0.165340 0.250930 -0.328377
O11   O     O_3   0.165350 0.665340 0.749070 -0.267611
O12   O     O_R   0.215680 0.290430 0.169490 -0.507638
O13   O     O_3   0.834650 0.665340 0.250930 -0.328377
O14   O     O_R   0.762640 0.040960 0.825200 -0.504048
O15   O     O_R   0.237360 0.040960 0.174800 -0.519798
O16   O     O_R   0.262640 0.540960 0.825200 -0.504048
O17   O     O_R   0.737360 0.540960 0.174800 -0.519799
O18   O     O_R   0.667400 0.923970 0.829950 -0.532108
O19   O     O_R   0.332600 0.923970 0.170050 -0.496948
O20   O     O_R   0.167400 0.423970 0.829950 -0.532108
O21   O     O_R   0.832600 0.423970 0.170050 -0.496948
O22   O     O_R   0.553960 0.081340 0.821780 -0.490789
O23   O     O_R   0.284320 0.790430 0.830510 -0.517628
O24   O     O_R   0.446040 0.081340 0.178220 -0.507876
O25   O     O_R   0.053960 0.581340 0.821780 -0.490789
O26   O     O_R   0.946040 0.581340 0.178220 -0.507876
O27   O     O_R   0.543180 0.283240 0.826740 -0.515560
O28   O     O_R   0.456820 0.283240 0.173260 -0.519361
O29   O     O_R   0.043180 0.783240 0.826740 -0.515560
O30   O     O_R   0.956820 0.783240 0.173260 -0.519361
O31   O     O_R   0.678360 0.375140 0.822710 -0.515363
O32   O     O_R   0.321640 0.375140 0.177290 -0.485662
O33   O     O_R   0.178360 0.875140 0.822710 -0.515363
O34   O     O_R   0.715680 0.790430 0.169490 -0.507638
O35   O     O_R   0.821640 0.875140 0.177290 -0.485662
O36   O     O_R   0.785050 0.289380 0.670560 -0.472259
O37   O     O_R   0.214950 0.289380 0.329440 -0.478451
O38   O     O_R   0.285050 0.789380 0.670560 -0.472259
O39   O     O_R   0.714950 0.789380 0.329440 -0.478447
O40   O     O_R   0.763320 0.039990 0.676930 -0.516007
O41   O     O_R   0.236680 0.039990 0.323070 -0.498812
O42   O     O_R   0.263320 0.539990 0.676930 -0.516007
O43   O     O_R   0.736680 0.539990 0.323070 -0.498811
O44   O     O_R   0.668130 0.922920 0.670000 -0.483005
O45   O     O_R   0.554640 0.080370 0.673500 -0.500755
O46   O     O_R   0.331870 0.922920 0.330000 -0.476486
O47   O     O_R   0.168130 0.422920 0.670000 -0.483006
O48   O     O_R   0.831870 0.422920 0.330000 -0.476486
O49   O     O_R   0.445360 0.080370 0.326500 -0.497206
O50   O     O_R   0.054640 0.580370 0.673500 -0.500755
O51   O     O_R   0.945360 0.580370 0.326500 -0.497206
O52   O     O_R   0.543920 0.282180 0.666790 -0.524080

loop_
_geom_bond_atom_site_label_1
_geom_bond_atom_site_label_2
_ccdc_geom_bond_type
C44   C49   A    
C45   H14   S    
C64   O33   A    
H37   N1    S    
C8    C13   A    
H44   N5    S    
C53   C58   A    
C32   N6    S    
C75   O5    A    
C43   C83   S    
C47   C68   S    
Cr8   O18   S    
C69   O47   A    
C7    H20   S    
C4    C8    A    
Cr9   O24   S    
C64   O23   A    
C2    C6    A    
C1    O18   A    
Cr4   O30   S    
C72   O49   A    
Cr6   O42   S    
Cr1   O1    S    
C29   C30   A    
Cr5   O41   S    
C43   O26   A    
C18   C24   A    
C82   H8    S    
C31   C58   A    
H48   N6    S    
H51   N8    S    
C62   O31   A    
C18   C19   A    
C41   O28   A    
C3    C7    A    
C10   C15   A    
C23   O20   A    
C79   O39   A    
C12   O15   A    
C68   O41   A    
C82   C87   D    
C14   C62   S    
C26   C73   S    
C63   O32   A    
C25   C74   S    
Cr2   O10   S    
C88   H9    S    
Cr1   O36   S    
C78   H17   S    
Cr3   O7    S    
Cr12  O52   S    
C46   C69   S    
Cr9   O10   S    
C65   O34   A    
C31   N5    S    
C83   H7    S    
C42   C82   S    
C74   O51   A    
C13   H26   S    
C40   C80   S    
C44   C70   S    
C3    C12   S    
Cr11  O26   S    
C20   H29   S    
C73   O3    A    
C68   O46   A    
C67   H16   S    
Cr4   O13   S    
H39   N2    S    
C74   O4    A    
C71   O52   A    
C52   H55   S    
C56   C90   A    
C77   O7    A    
C28   H32   S    
C55   C60   A    
H49   N7    S    
Cr10  O11   S    
C9    H22   S    
C18   H27   S    
C33   N7    S    
C17   C92   A    
C6    H19   S    
C10   H24   S    
Cr8   O9    S    
C11   H25   S    
C22   C72   S    
C58   C75   S    
Cr5   O15   S    
C54   C59   A    
C42   O29   A    
C50   H53   S    
C25   C29   A    
C60   C77   S    
Cr8   O22   S    
Cr8   O45   S    
Cr2   O32   S    
C54   H2    S    
Cr6   O11   S    
C19   C22   A    
C84   C85   S    
C52   C57   A    
C85   H12   S    
Cr1   O9    S    
C86   C87   S    
Cr5   O12   S    
Cr7   O43   S    
H41   N3    S    
C78   C92   A    
H36   N1    S    
C71   O45   A    
H46   N5    S    
H42   N4    S    
C5    H18   S    
Cr8   O44   S    
Cr10  O20   S    
C63   O12   A    
Cr7   O39   S    
C72   O2    A    
C34   O17   A    
C35   C39   A    
C9    C14   A    
C5    C9    A    
C80   C85   D    
C66   O40   A    
C11   C16   A    
C8    H21   S    
C7    C11   A    
Cr12  O9    S    
C65   O35   A    
Cr9   O46   S    
Cr3   O29   S    
Cr1   O14   S    
C41   C81   S    
C45   C88   A    
C67   C91   A    
C35   N8    S    
C35   C61   A    
C50   C54   A    
C32   C37   A    
C38   C47   A    
Cr2   O6    S    
C92   H13   S    
Cr11  O21   S    
Cr3   O11   S    
C38   N3    S    
C81   H5    S    
C26   C30   A    
C33   C60   A    
C22   C27   A    
H40   N3    S    
C36   N1    S    
Cr12  O31   S    
Cr2   O28   S    
H50   N7    S    
C36   C44   A    
C84   H1    S    
C87   H34   S    
C66   O44   A    
Cr10  O25   S    
C21   H30   S    
Cr7   O17   S    
C81   C84   D    
C45   C89   A    
C76   O37   A    
Cr4   O35   S    
C70   O43   A    
C19   H28   S    
C62   O1    A    
C21   C25   A    
C53   H56   S    
C15   C63   S    
C30   H35   S    
Cr4   O8    S    
C41   O24   A    
C86   H23   S    
Cr11  O13   S    
C79   O8    A    
C34   O21   A    
C3    C67   A    
C42   O25   A    
C24   C28   A    
C75   O36   A    
Cr6   O23   S    
H38   N2    S    
C47   C51   A    
C1    O14   A    
C57   C61   A    
Cr12  O5    S    
C49   H45   S    
C4    C78   A    
H47   N6    S    
C29   H33   S    
C46   C50   A    
C51   H54   S    
C17   C65   S    
C33   C38   A    
C13   C17   A    
H43   N4    S    
C1    C4    S    
C27   H31   S    
C83   C86   D    
C76   O6    A    
C39   N4    S    
C34   C89   S    
C70   O48   A    
C23   O16   A    
Cr7   O34   S    
C2    C56   A    
Cr3   O33   S    
Cr2   O2    S    
C15   C90   A    
C12   O19   A    
Cr5   O10   S    
C20   C26   A    
C61   C79   S    
C49   C53   A    
C59   C76   S    
C56   H15   S    
Cr12  O27   S    
C91   H11   S    
C73   O50   A    
C43   O30   A    
C51   C55   A    
C90   H10   S    
Cr6   O16   S    
C5    C89   A    
Cr7   O13   S    
C6    C10   A    
Cr10  O50   S    
C14   C88   A    
Cr9   O49   S    
Cr10  O47   S    
C48   C52   A    
C57   H4    S    
C40   O22   A    
C20   C21   A    
C37   N2    S    
C16   C91   A    
Cr4   O4    S    
C80   H6    S    
C2    C23   S    
C48   C66   S    
H52   N8    S    
C31   C36   A    
Cr6   O38   S    
C69   O42   A    
C16   C64   S    
C32   C59   A    
Cr5   O37   S    
C37   C46   A    
C77   O38   A    
Cr1   O40   S    
Cr3   O3    S    
Cr11  O48   S    
C55   H3    S    
Cr9   O19   S    
C24   C71   S    
Cr11  O51   S    
C39   C48   A    
C27   C28   A    
C40   O27   A    
