data_mof_unit_23567.cif
_audit_creation_date              2012-12-10T16:37:27-0500
_audit_creation_method            fapswitch 2.2
_symmetry_space_group_name_H-M    P1
_symmetry_Int_Tables_number       1
_space_group_crystal_system       triclinic
_cell_length_a                    17.109224
_cell_length_b                    16.934689
_cell_length_c                    16.680268
_cell_angle_alpha                 64.921631
_cell_angle_beta                  65.17667
_cell_angle_gamma                 65.777609
_cell_volume                      3810.91011304

loop_
_atom_site_label
_atom_site_type_symbol
_atom_type_description
_atom_site_fract_x
_atom_site_fract_y
_atom_site_fract_z
_atom_type_partial_charge
C1    C     C_R   0.407177 0.108060 0.619527 0.391212
C2    C     C_R   0.422899 0.683300 0.999271 0.384516
C3    C     C_1   0.468043 0.816651 0.894711 0.278774
C4    C     C_1   0.872454 0.620492 0.233593 0.405388
C5    C     C_1   0.127549 0.379510 0.766405 0.405384
C6    C     C_R   0.943703 0.600950 0.341363 0.394404
C7    C     C_R   0.056296 0.399050 0.658638 0.394403
C8    C     C_R   0.959383 0.179825 0.439495 0.927566
C9    C     C_R   0.040617 0.820175 0.560504 0.927568
C10   C     C_R   0.176737 0.432462 0.977077 0.941389
C11   C     C_R   0.823262 0.567537 0.022924 0.941391
C12   C     C_R   0.439491 0.959360 0.179684 0.901990
C13   C     C_R   0.560509 0.040639 0.820316 0.901989
C14   C     C_R   0.567582 0.823309 0.022805 0.938801
C15   C     C_R   0.592824 0.891935 0.380476 0.391215
C16   C     C_R   0.432418 0.176691 0.977195 0.938798
C17   C     C_R   0.040269 0.561240 0.819722 0.913531
C18   C     C_R   0.959731 0.438760 0.180278 0.913529
C19   C     C_R   0.822363 0.022498 0.569670 0.937249
C20   C     C_R   0.177637 0.977502 0.430330 0.937244
C21   C     C_R   0.445337 0.102303 0.682024 -0.111138
C22   C     C_R   0.554664 0.897695 0.317976 -0.111142
C23   C     C_R   0.074376 0.703021 0.434416 -0.120671
C24   C     C_R   0.925625 0.296979 0.565584 -0.120670
C25   C     C_R   0.732930 0.473507 0.979397 -0.046228
C26   C     C_R   0.059621 0.654525 0.393716 0.379612
C27   C     C_R   0.267069 0.526491 0.020607 -0.046231
C28   C     C_R   0.268539 0.053903 0.491642 -0.057591
C29   C     C_R   0.731462 0.946090 0.508365 -0.057586
C30   C     C_R   0.520414 0.264724 0.027914 -0.032750
C31   C     C_R   0.479587 0.735275 0.972086 -0.032746
C32   C     C_R   0.921291 0.559470 0.299583 -0.114198
C33   C     C_R   0.078710 0.440530 0.700417 -0.114198
C34   C     C_R   0.544755 0.011662 0.547611 -0.042203
C35   C     C_R   0.455246 0.988332 0.452393 -0.042203
C36   C     C_R   0.027627 0.540604 0.539326 -0.056452
C37   C     C_R   0.940379 0.345476 0.606284 0.379612
C38   C     C_R   0.972373 0.459396 0.460674 -0.056453
C39   C     C_R   0.552025 0.551082 0.991794 -0.038448
C40   C     C_R   0.447975 0.448918 0.008206 -0.038448
C41   C     C_R   0.595211 0.968560 0.477619 -0.023669
C42   C     C_R   0.404790 0.031432 0.522387 -0.023668
C43   C     C_R   0.016895 0.452478 0.586321 0.000576
C44   C     C_R   0.983105 0.547522 0.413679 0.000577
C45   C     C_R   0.460152 0.592945 0.995963 -0.020739
C46   C     C_R   0.539848 0.407056 0.004037 -0.020737
C47   C     C_R   0.549462 0.951717 0.434417 0.004467
C48   C     C_R   0.679710 0.417916 0.006128 0.392179
C49   C     C_R   0.450539 0.048276 0.565588 0.004469
C50   C     C_R   0.408818 0.542511 0.000440 -0.018798
C51   C     C_R   0.591182 0.457488 0.999561 -0.018798
C52   C     C_R   0.980719 0.416127 0.550709 0.014160
C53   C     C_R   0.019281 0.583873 0.449291 0.014160
C54   C     C_R   0.539065 0.062473 0.668892 -0.038857
C55   C     C_R   0.460936 0.937525 0.331109 -0.038854
C56   C     C_R   0.062301 0.672195 0.532733 -0.025438
C57   C     C_R   0.937700 0.327805 0.467267 -0.025440
C58   C     C_R   0.691894 0.559945 0.992627 -0.073908
C59   C     C_R   0.320288 0.582083 0.993877 0.392178
C60   C     C_R   0.308106 0.440054 0.007375 -0.073906
C61   C     C_R   0.315854 0.002941 0.428602 -0.085733
C62   C     C_R   0.684147 0.997056 0.571401 -0.085734
C63   C     C_R   0.436723 0.307982 0.010426 -0.075069
C64   C     C_R   0.563277 0.692018 0.989574 -0.075070
C65   C     C_R   0.935973 0.463109 0.330924 -0.052819
C66   C     C_R   0.064028 0.536892 0.669076 -0.052823
C67   C     C_R   0.587222 0.066396 0.718967 -0.160571
C68   C     C_R   0.412778 0.933604 0.281033 -0.160569
C69   C     C_R   0.067880 0.719735 0.584650 -0.186334
C70   C     C_R   0.310034 0.052624 0.548687 0.403279
C71   C     C_R   0.932121 0.280266 0.415350 -0.186335
C72   C     C_R   0.731654 0.603338 0.017456 -0.161926
C73   C     C_R   0.268346 0.396661 0.982546 -0.161928
C74   C     C_R   0.273451 0.972266 0.392827 -0.197881
C75   C     C_R   0.726549 0.027733 0.607174 -0.197880
C76   C     C_R   0.395375 0.268618 0.983316 -0.161804
C77   C     C_R   0.604625 0.731382 0.016685 -0.161805
C78   C     C_R   0.930980 0.412777 0.282564 -0.184614
C79   C     C_R   0.069020 0.587224 0.717436 -0.184614
C80   C     C_R   0.673540 0.071093 0.674588 0.318590
C81   C     C_R   0.689968 0.947366 0.451320 0.403281
C82   C     C_R   0.326460 0.928907 0.325412 0.318588
C83   C     C_R   0.085087 0.671450 0.669325 0.302259
C84   C     C_R   0.914913 0.328550 0.330675 0.302258
C85   C     C_R   0.678551 0.677983 0.046824 0.301422
C86   C     C_R   0.321449 0.322017 0.953176 0.301420
C87   C     C_R   0.589373 0.025225 0.594646 0.051339
C88   C     C_R   0.410628 0.974771 0.405356 0.051340
C89   C     C_R   0.051484 0.583375 0.580386 0.049087
C90   C     C_R   0.948516 0.416625 0.419614 0.049085
C91   C     C_R   0.601953 0.600493 0.992401 0.041407
C92   C     C_R   0.577102 0.316699 0.000729 0.384511
C93   C     C_R   0.398047 0.399506 0.007600 0.041409
C94   C     C_1   0.384243 0.138783 0.756855 0.395495
C95   C     C_1   0.615760 0.861221 0.243141 0.395501
C96   C     C_1   0.106772 0.779762 0.368437 0.432354
C97   C     C_1   0.893229 0.220239 0.631562 0.432354
C98   C     C_1   0.815537 0.456978 0.906216 0.322503
C99   C     C_1   0.184462 0.543019 0.093788 0.322504
C100  C     C_1   0.190760 0.129804 0.478382 0.297780
C101  C     C_1   0.809239 0.870188 0.521631 0.297765
C102  C     C_1   0.531959 0.183347 0.105286 0.278784
Cl1   Cl    Cl    0.323814 0.210185 0.586879 -0.502880
Cl2   Cl    Cl    0.314998 0.720252 0.073661 -0.436477
Cl3   Cl    Cl    0.903508 0.721439 0.316464 -0.451795
Cl4   Cl    Cl    0.096490 0.278561 0.683540 -0.451797
Cl5   Cl    Cl    0.706198 0.142211 0.699028 -0.532389
Cl6   Cl    Cl    0.293802 0.857789 0.300971 -0.532389
Cl7   Cl    Cl    0.133792 0.713885 0.712528 -0.479266
Cl8   Cl    Cl    0.866207 0.286115 0.287472 -0.479266
Cl9   Cl    Cl    0.675782 0.674535 0.154418 -0.564961
Cl10  Cl    Cl    0.324224 0.325474 0.845576 -0.564956
Cl11  Cl    Cl    0.676185 0.789808 0.413124 -0.502875
Cl12  Cl    Cl    0.111325 0.668544 0.272685 -0.491615
Cl13  Cl    Cl    0.888673 0.331458 0.727314 -0.491617
Cl14  Cl    Cl    0.714688 0.307499 0.080337 -0.454704
Cl15  Cl    Cl    0.285303 0.692503 0.919676 -0.454703
Cl16  Cl    Cl    0.241280 0.052176 0.663186 -0.448211
Cl17  Cl    Cl    0.758722 0.947813 0.336823 -0.448211
Cl18  Cl    Cl    0.685007 0.279742 0.926348 -0.436481
N1    N     N_1   0.332360 0.165019 0.818184 -0.067673
N2    N     N_1   0.458456 0.880939 0.832008 -0.159195
N3    N     N_1   0.835312 0.671925 0.179731 -0.067297
N4    N     N_1   0.164694 0.328078 0.820265 -0.067300
N5    N     N_1   0.667645 0.834992 0.181810 -0.067671
N6    N     N_1   0.128905 0.842490 0.312612 -0.043024
N7    N     N_1   0.871095 0.157510 0.687388 -0.043024
N8    N     N_1   0.881266 0.443672 0.847143 -0.126427
N9    N     N_1   0.118732 0.556323 0.152861 -0.126434
N10   N     N_1   0.130320 0.192834 0.466642 -0.181338
N11   N     N_1   0.869677 0.807158 0.533376 -0.181347
N12   N     N_1   0.541548 0.119059 0.167989 -0.159195
O1    O     O_R   0.982940 0.138950 0.510160 -0.663356
O2    O     O_R   0.982940 0.510160 0.138950 -0.661699
O3    O     O_R   0.861050 0.017060 0.489840 -0.609027
O4    O     O_R   0.138950 0.982940 0.510160 -0.609030
O5    O     O_R   0.867700 0.025880 0.612340 -0.593703
O6    O     O_R   0.132300 0.974120 0.387660 -0.593704
O7    O     O_R   0.025880 0.612340 0.867700 -0.559118
O8    O     O_R   0.974120 0.387660 0.132300 -0.559119
O9    O     O_R   0.612340 0.867700 0.025880 -0.601075
O10   O     O_R   0.387660 0.132300 0.974120 -0.601080
O11   O     O_R   0.387660 0.974120 0.132300 -0.564404
O12   O     O_R   0.017060 0.861050 0.489840 -0.663356
O13   O     O_R   0.612340 0.025880 0.867700 -0.564404
O14   O     O_R   0.132300 0.387660 0.974120 -0.601360
O15   O     O_R   0.867700 0.612340 0.025880 -0.601356
O16   O     O_R   0.974120 0.132300 0.387660 -0.563245
O17   O     O_R   0.025880 0.867700 0.612340 -0.563244
O18   O     O_R   0.138950 0.510160 0.982940 -0.624534
O19   O     O_R   0.861050 0.489840 0.017060 -0.624537
O20   O     O_R   0.510160 0.982940 0.138950 -0.655546
O21   O     O_R   0.489840 0.017060 0.861050 -0.655544
O22   O     O_R   0.489840 0.861050 0.017060 -0.616291
O23   O     O_R   0.510160 0.138950 0.982940 -0.616292
O24   O     O_R   0.017060 0.489840 0.861050 -0.661698
Zn1   Zn    Zn3+2 0.004880 0.004880 0.583590 1.107117
Zn2   Zn    Zn3+2 0.995120 0.995120 0.416410 1.107119
Zn3   Zn    Zn3+2 0.004880 0.583590 0.004880 1.090903
Zn4   Zn    Zn3+2 0.995120 0.416410 0.995120 1.090900
Zn5   Zn    Zn3+2 0.583590 0.004880 0.004880 1.089115
Zn6   Zn    Zn3+2 0.416410 0.995120 0.995120 1.089116

loop_
_geom_bond_atom_site_label_1
_geom_bond_atom_site_label_2
_ccdc_geom_bond_type
C36   C89   A    
C39   C51   A    
C1    C21   A    
C22   C95   S    
C12   O20   A    
C16   O10   A    
C17   C79   S    
C40   C93   A    
C97   N7    T    
O14   Zn4   S    
O15   Zn3   S    
C72   C85   A    
C23   C56   A    
O23   Zn5   S    
C40   C46   A    
C66   C79   A    
C12   C68   S    
C80   Cl5   S    
C9    O17   A    
C50   C59   A    
C35   C47   A    
C102  N12   T    
C27   C60   A    
C13   C67   S    
C54   C87   A    
C10   C73   S    
C100  N10   T    
C43   C52   A    
C23   C26   A    
C46   C92   A    
C21   C94   S    
C19   O3    A    
C60   C73   A    
C42   C70   A    
C23   C96   S    
C64   C77   A    
C14   C77   S    
C20   O6    A    
C55   C88   A    
C35   C42   A    
C95   N5    T    
C36   C53   A    
C44   C53   A    
C48   C51   A    
C24   C57   A    
C8    C71   S    
C5    C33   S    
C15   Cl11  S    
C82   Cl6   S    
C58   C91   A    
C1    Cl1   S    
O11   Zn6   S    
O20   Zn5   S    
C3    N2    T    
C19   O5    A    
C39   C45   A    
C60   C93   A    
C28   C100  S    
C98   N8    T    
O2    Zn3   S    
C14   O9    A    
O7    Zn3   S    
C59   Cl15  S    
O3    Zn2   S    
C6    C44   A    
C30   C63   A    
C14   O22   A    
C7    C33   A    
C8    O16   A    
C34   C41   A    
C74   C82   A    
C39   C91   A    
C9    O12   A    
C33   C66   A    
C55   C68   A    
C66   C89   A    
C15   C22   A    
C2    C45   A    
C65   C90   A    
C6    C32   A    
O18   Zn3   S    
C99   N9    T    
C96   N6    T    
C24   C97   S    
O24   Zn4   S    
C30   C92   A    
C57   C90   A    
C37   C52   A    
C11   C72   S    
C54   C67   A    
C46   C51   A    
C11   O15   A    
C84   Cl8   S    
C4    N3    T    
C2    C31   A    
C86   Cl10  S    
C26   Cl12  S    
C38   C44   A    
C69   C83   A    
C61   C88   A    
C35   C88   A    
O6    Zn2   S    
C5    N4    T    
C2    Cl2   S    
C18   C78   S    
C41   C81   A    
C30   C102  S    
C16   O23   A    
C83   Cl7   S    
C24   C37   A    
C41   C47   A    
C7    Cl4   S    
C20   C74   S    
C17   O7    A    
O16   Zn2   S    
C57   C71   A    
C18   O8    A    
C20   O4    A    
C25   C48   A    
C13   O21   A    
C4    C32   S    
C29   C101  S    
O4    Zn1   S    
C101  N11   T    
C11   O19   A    
C56   C89   A    
C10   O14   A    
C29   C81   A    
C7    C43   A    
C13   O13   A    
C62   C75   A    
C25   C58   A    
O12   Zn2   S    
C26   C53   A    
C76   C86   A    
C71   C84   A    
C75   C80   A    
C81   Cl17  S    
C29   C62   A    
C34   C49   A    
C65   C78   A    
C8    O1    A    
C16   C76   S    
C31   C64   A    
O22   Zn6   S    
C28   C70   A    
C67   C80   A    
C9    C69   S    
C85   Cl9   S    
O10   Zn6   S    
C22   C55   A    
C37   Cl13  S    
O5    Zn1   S    
C61   C74   A    
C62   C87   A    
C38   C90   A    
C36   C43   A    
C12   O11   A    
C48   Cl14  S    
O21   Zn6   S    
C68   C82   A    
O19   Zn4   S    
C19   C75   S    
C92   Cl18  S    
C27   C59   A    
C28   C61   A    
C3    C31   S    
C79   C83   A    
C58   C72   A    
C21   C54   A    
O13   Zn5   S    
C45   C50   A    
C70   Cl16  S    
C40   C50   A    
C1    C49   A    
C6    Cl3   S    
C18   O2    A    
O1    Zn1   S    
C34   C87   A    
O9    Zn5   S    
C27   C99   S    
C73   C86   A    
C42   C49   A    
C77   C85   A    
C94   N1    T    
C78   C84   A    
C25   C98   S    
C38   C52   A    
C56   C69   A    
C63   C76   A    
C15   C47   A    
C64   C91   A    
C63   C93   A    
O8    Zn4   S    
C17   O24   A    
O17   Zn1   S    
C10   O18   A    
C32   C65   A    
