data_mof_unit_42561.cif
_audit_creation_date              2013-03-05T16:05:19-0500
_audit_creation_method            fapswitch 2.2
_symmetry_space_group_name_H-M    P1
_symmetry_Int_Tables_number       1
_space_group_crystal_system       triclinic
_cell_length_a                    27.236504
_cell_length_b                    7.199839
_cell_length_c                    22.777757
_cell_angle_alpha                 89.980742
_cell_angle_beta                  101.43894
_cell_angle_gamma                 89.974273
_cell_volume                      4377.958404

loop_
_atom_site_label
_atom_site_type_symbol
_atom_site_description
_atom_site_fract_x
_atom_site_fract_y
_atom_site_fract_z
_atom_type_partial_charge
O1    O     O_R   0.707300 0.594030 0.176840 -0.593613
O2    O     O_R   0.292700 0.405970 0.823160 -0.593613
O3    O     O_R   0.792700 0.094030 0.323160 -0.593828
O4    O     O_R   0.207300 0.905970 0.676840 -0.593828
O5    O     O_R   0.697330 0.262360 0.295660 -0.561172
O6    O     O_R   0.302670 0.737640 0.704340 -0.561172
O7    O     O_R   0.802670 0.762360 0.204340 -0.561186
O8    O     O_R   0.197330 0.237640 0.795660 -0.561187
C1    C     C_R   0.684164 0.432445 0.310783 0.955894
C2    C     C_R   0.315836 0.567555 0.689217 0.955895
C3    C     C_R   0.815837 0.932421 0.189214 0.956082
C4    C     C_R   0.184163 0.067579 0.810786 0.956081
O9    O     O_R   0.701410 0.264250 0.175600 -0.571371
O10   O     O_R   0.298590 0.735750 0.824400 -0.571371
O11   O     O_R   0.798590 0.764250 0.324400 -0.571412
O12   O     O_R   0.201410 0.235750 0.675600 -0.571412
O13   O     O_R   0.796800 0.094950 0.202240 -0.589706
O14   O     O_R   0.203200 0.905050 0.797760 -0.589706
O15   O     O_R   0.703200 0.594950 0.297760 -0.589681
O16   O     O_R   0.296800 0.405050 0.702240 -0.589682
C5    C     C_R   0.689755 0.432592 0.153465 0.922589
C6    C     C_R   0.310245 0.567408 0.846535 0.922589
C7    C     C_R   0.810252 0.932464 0.346543 0.922620
C8    C     C_R   0.189748 0.067536 0.653457 0.922620
O17   O     O_3   0.781290 0.427390 0.258880 -0.265967
O18   O     O_3   0.218710 0.572610 0.741120 -0.265967
O19   O     O_3   0.718710 0.927390 0.241120 -0.265823
O20   O     O_3   0.281290 0.072610 0.758880 -0.265823
V1    V     V_3+5 0.744190 0.152150 0.248350 1.231466
V2    V     V_3+5 0.255810 0.847850 0.751650 1.231466
V3    V     V_3+5 0.755810 0.652150 0.251650 1.231575
V4    V     V_3+5 0.244190 0.347850 0.748350 1.231575
C9    C     C_R   0.154880 0.062708 0.594959 -0.097767
C10   C     C_R   0.845120 0.937292 0.405040 -0.097767
C11   C     C_R   0.345094 0.561901 0.905024 -0.097164
C12   C     C_R   0.654906 0.438099 0.094976 -0.097164
C13   C     C_R   0.139592 0.123281 0.488737 -0.154457
C14   C     C_R   0.860408 0.876719 0.511263 -0.154457
C15   C     C_R   0.359966 0.614953 0.011621 -0.154046
C16   C     C_R   0.640034 0.385047 0.988379 -0.154046
C17   C     C_R   0.172227 0.114706 0.543912 -0.180457
C18   C     C_R   0.827773 0.885294 0.456087 -0.180456
C19   C     C_R   0.327460 0.608906 0.956315 -0.181343
C20   C     C_R   0.672540 0.391094 0.043685 -0.181342
C21   C     C_R   0.103986 0.019827 0.590545 -0.168112
C22   C     C_R   0.896014 0.980173 0.409454 -0.168113
C23   C     C_R   0.396134 0.521703 0.909302 -0.168071
C24   C     C_R   0.603866 0.478297 0.090698 -0.168071
C25   C     C_R   0.069159 0.030342 0.534681 0.072049
C26   C     C_R   0.930841 0.969658 0.465319 0.072049
C27   C     C_R   0.430818 0.529704 0.965308 0.071895
C28   C     C_R   0.569181 0.470296 0.034692 0.071895
C29   C     C_R   0.088072 0.083097 0.483059 0.120266
C30   C     C_R   0.911928 0.916903 0.516941 0.120266
C31   C     C_R   0.411612 0.577010 0.017204 0.120251
C32   C     C_R   0.588388 0.422990 0.982796 0.120251
C33   C     C_R   0.016444 0.992474 0.528612 0.003762
C34   C     C_R   0.983556 0.007526 0.471388 0.003762
C35   C     C_R   0.483650 0.494201 0.971284 0.003687
C36   C     C_R   0.516350 0.505799 0.028715 0.003687
C37   C     C_R   0.004337 0.059489 0.421820 -0.179794
C38   C     C_R   0.995663 0.940511 0.578180 -0.179794
C39   C     C_R   0.495270 0.551987 0.078573 -0.179502
C40   C     C_R   0.504729 0.448013 0.921427 -0.179502
C41   C     C_R   0.055331 0.096597 0.426793 0.236250
C42   C     C_R   0.944669 0.903402 0.573207 0.236250
C43   C     C_R   0.444171 0.587072 0.073669 0.236571
C44   C     C_R   0.555828 0.412928 0.926330 0.236571
H1    H     H_    0.906906 0.016822 0.368064 0.124588
H2    H     H_    0.093094 0.983178 0.631936 0.124589
H3    H     H_    0.592795 0.511519 0.132251 0.125083
H4    H     H_    0.407205 0.488481 0.867749 0.125084
H5    H     H_    0.788677 0.850002 0.453148 0.106221
H6    H     H_    0.211323 0.149998 0.546852 0.106221
H7    H     H_    0.711771 0.358077 0.046510 0.106142
H8    H     H_    0.288229 0.641923 0.953490 0.106142
H9    H     H_    0.155353 0.164240 0.450713 0.136499
H10   H     H_    0.844646 0.835760 0.549287 0.136499
H11   H     H_    0.343986 0.651864 0.049853 0.136465
H12   H     H_    0.656013 0.348136 0.950147 0.136465
H13   H     H_    0.981549 0.073239 0.377796 0.152499
H14   H     H_    0.018451 0.926761 0.622204 0.152499
H15   H     H_    0.517887 0.562485 0.122790 0.152749
H16   H     H_    0.482113 0.437515 0.877210 0.152749
C45   C     C_R   0.853476 0.089759 0.111052 -0.118856
C46   C     C_R   0.146524 0.910241 0.888948 -0.118856
C47   C     C_R   0.646537 0.589637 0.388975 -0.119157
C48   C     C_R   0.353463 0.410363 0.611025 -0.119157
H17   H     H_    0.824192 0.193691 0.106619 0.137550
H18   H     H_    0.175808 0.806309 0.893381 0.137549
H19   H     H_    0.675836 0.693409 0.393438 0.137426
H20   H     H_    0.324164 0.306591 0.606562 0.137426
C49   C     C_R   0.888504 0.103087 0.073962 -0.113294
C50   C     C_R   0.111496 0.896913 0.926038 -0.113293
C51   C     C_R   0.611509 0.602957 0.426066 -0.113360
C52   C     C_R   0.388491 0.397043 0.573933 -0.113360
H21   H     H_    0.885245 0.216691 0.042260 0.110497
H22   H     H_    0.114755 0.783309 0.957740 0.110497
H23   H     H_    0.614781 0.716400 0.457800 0.110495
H24   H     H_    0.385219 0.283600 0.542200 0.110495
C53   C     C_R   0.926494 0.969717 0.076704 0.058677
C54   C     C_R   0.073506 0.030283 0.923296 0.058676
C55   C     C_R   0.573502 0.469768 0.423286 0.058777
C56   C     C_R   0.426497 0.530231 0.576713 0.058776
C57   C     C_R   0.928732 0.822964 0.117919 -0.264259
C58   C     C_R   0.071268 0.177036 0.882081 -0.264259
C59   C     C_R   0.571245 0.323220 0.382029 -0.264385
C60   C     C_R   0.428755 0.676780 0.617971 -0.264385
H25   H     H_    0.958754 0.722167 0.122038 0.156780
H26   H     H_    0.041245 0.277833 0.877961 0.156780
H27   H     H_    0.541209 0.222582 0.377879 0.156805
H28   H     H_    0.458791 0.777418 0.622121 0.156805
C61   C     C_R   0.894263 0.809611 0.156406 0.367917
C62   C     C_R   0.105737 0.190389 0.843594 0.367918
C63   C     C_R   0.605714 0.309886 0.343541 0.367796
C64   C     C_R   0.394286 0.690114 0.656459 0.367795
C65   C     C_R   0.855350 0.943258 0.152389 -0.290120
C66   C     C_R   0.144650 0.056742 0.847611 -0.290121
C67   C     C_R   0.644647 0.443327 0.347601 -0.289818
C68   C     C_R   0.355353 0.556673 0.652398 -0.289818
C69   C     C_R   0.981268 0.826052 0.011680 -0.175832
C70   C     C_R   0.018732 0.173948 0.988320 -0.175832
C71   C     C_R   0.518714 0.326030 0.488270 -0.175789
C72   C     C_R   0.481286 0.673970 0.511730 -0.175789
H29   H     H_    0.966727 0.690071 0.019281 0.115822
H30   H     H_    0.033273 0.309929 0.980719 0.115822
H31   H     H_    0.533241 0.190024 0.480630 0.115829
H32   H     H_    0.466759 0.809976 0.519369 0.115829
C73   C     C_R   0.016601 0.840658 0.974829 -0.157005
C74   C     C_R   0.983399 0.159342 0.025171 -0.157005
C75   C     C_R   0.483382 0.340609 0.525125 -0.157009
C76   C     C_R   0.516618 0.659391 0.474875 -0.157009
H33   H     H_    0.028235 0.715464 0.955042 0.122162
H34   H     H_    0.971765 0.284536 0.044958 0.122162
H35   H     H_    0.471735 0.215371 0.544876 0.122123
H36   H     H_    0.528265 0.784629 0.455124 0.122123
C77   C     C_R   0.035847 0.014810 0.962648 0.139886
C78   C     C_R   0.964153 0.985190 0.037352 0.139886
C79   C     C_R   0.464154 0.514783 0.537356 0.139841
C80   C     C_R   0.535846 0.485217 0.462644 0.139841
C81   C     C_3   0.073813 0.151646 0.370822 -0.966170
H37   H     H_    0.043229 0.154744 0.330517 0.265397
H38   H     H_    0.090509 0.292770 0.376442 0.249655
H39   H     H_    0.102251 0.050267 0.362088 0.245245
C82   C     C_3   0.926187 0.848354 0.629177 -0.966170
H40   H     H_    0.956771 0.845256 0.669483 0.265397
H41   H     H_    0.897749 0.949733 0.637912 0.245245
H42   H     H_    0.909490 0.707230 0.623558 0.249655
C83   C     C_3   0.425367 0.635948 0.129951 -0.966736
H43   H     H_    0.455840 0.636886 0.170383 0.265065
H44   H     H_    0.408327 0.776666 0.125452 0.249570
H45   H     H_    0.397133 0.532330 0.137681 0.245409
C84   C     C_3   0.574633 0.364052 0.870049 -0.966736
H46   H     H_    0.544160 0.363114 0.829617 0.265065
H47   H     H_    0.602866 0.467670 0.862319 0.245409
H48   H     H_    0.591673 0.223334 0.874548 0.249570
N1    N     N_R   0.901132 0.665824 0.201045 0.237620
O21   O     O_R   0.916214 0.501728 0.188424 -0.410555
O22   O     O_R   0.900550 0.706438 0.256577 -0.410774
N2    N     N_R   0.098868 0.334175 0.798955 0.237620
O23   O     O_R   0.083786 0.498271 0.811576 -0.410555
O24   O     O_R   0.099450 0.293562 0.743423 -0.410774
N3    N     N_R   0.598828 0.166340 0.298860 0.237666
O25   O     O_R   0.583706 0.002275 0.311425 -0.410150
O26   O     O_R   0.599443 0.207194 0.243345 -0.411467
N4    N     N_R   0.401172 0.833660 0.701140 0.237666
O27   O     O_R   0.416294 0.997725 0.688575 -0.410150
O28   O     O_R   0.400557 0.792806 0.756655 -0.411466

loop_
_geom_bond_atom_site_label_1
_geom_bond_atom_site_label_2
_geom_bond_distance
_ccdc_geom_bond_type
O17   V3    1.755252 S    
C48   C52   1.397458 A    
O1    C5    1.327716 A    
N1    O21   1.301481 A    
C47   H19   1.083407 S    
O19   V1    1.755927 S    
C9    C21   1.404298 A    
C72   C79   1.407163 A    
O3    C7    1.327951 A    
N3    O25   1.301481 A    
C10   C18   1.390369 A    
O15   V3    1.980681 S    
C82   H40   1.110804 S    
C25   C33   1.441017 A    
C33   C38   1.410105 A    
C5    C12   1.475041 S    
O7    C3    1.340008 A    
C6    C11   1.475041 S    
C35   C40   1.410172 A    
C26   C30   1.425597 A    
C58   C62   1.409104 A    
C36   C39   1.410172 A    
C40   C44   1.396887 A    
C57   C61   1.409102 A    
N3    O26   1.301522 A    
C14   C18   1.389305 A    
C75   H35   1.082905 S    
C83   H44   1.110402 S    
C58   H26   1.083102 S    
O4    C8    1.327950 A    
C51   H23   1.082785 S    
C83   H43   1.110806 S    
C43   C83   1.513332 S    
C50   H22   1.082783 S    
O1    V3    1.983022 S    
O13   V1    1.980568 S    
C31   C43   1.411955 A    
C72   C76   1.400785 A    
O2    V4    1.983023 S    
O3    V1    1.982531 S    
C40   H16   1.074040 S    
C22   H1    1.075775 S    
C46   C50   1.397444 A    
C17   H6    1.083913 S    
C45   C49   1.397444 A    
C1    O15   1.336811 A    
C15   C31   1.413558 A    
C76   C80   1.407824 A    
C48   H20   1.083407 S    
C2    O16   1.336809 A    
C16   C32   1.413558 A    
C47   C51   1.397458 A    
O2    C6    1.327715 A    
C16   H12   1.081120 S    
C54   C58   1.406419 A    
C10   C22   1.404298 A    
C48   C68   1.407800 A    
C11   C19   1.390268 A    
C16   C20   1.389384 A    
C76   H36   1.082905 S    
C72   H32   1.082950 S    
C13   C29   1.413469 A    
C34   C37   1.410105 A    
O11   C7    1.326378 A    
C38   H14   1.074052 S    
C11   C23   1.404151 A    
C35   C36   1.431598 A    
O12   C8    1.326379 A    
C13   C17   1.389305 A    
N4    O28   1.301524 A    
C64   N4    1.436748 S    
C47   C67   1.407800 A    
C74   H34   1.082907 S    
O10   V2    1.996845 S    
C82   H41   1.110383 S    
C73   C77   1.407831 A    
C51   C55   1.403589 A    
O5    V1    1.991240 S    
C53   C57   1.406419 A    
C39   C43   1.396887 A    
O7    V3    1.991408 S    
C38   C42   1.396864 A    
O8    V4    1.991410 S    
C2    C68   1.491935 S    
C44   C84   1.513332 S    
C46   H18   1.083404 S    
C83   H45   1.110411 S    
C49   C53   1.403577 A    
C45   H17   1.083404 S    
O18   V4    1.755252 S    
C15   C19   1.389384 A    
C14   H10   1.081122 S    
C32   C44   1.411955 A    
C13   H9    1.081122 S    
C71   C80   1.407163 A    
C81   H39   1.110383 S    
C64   C68   1.420605 A    
C39   H15   1.074040 S    
C54   C77   1.494195 S    
C15   H11   1.081120 S    
C69   C78   1.407159 A    
C70   H30   1.082953 S    
C20   H7    1.083895 S    
O5    C1    1.340054 A    
C37   C41   1.396864 A    
C41   C81   1.513340 S    
C71   H31   1.082950 S    
C14   C30   1.413469 A    
C21   C25   1.430320 A    
O8    C4    1.340007 A    
C7    C10   1.475346 S    
C59   C63   1.409095 A    
C26   C34   1.441017 A    
O9    C5    1.326562 A    
C46   C66   1.407804 A    
C84   H48   1.110402 S    
C45   C65   1.407804 A    
C62   N2    1.436737 S    
C62   C66   1.420612 A    
C61   C65   1.420612 A    
O6    V2    1.991240 S    
C69   H29   1.082953 S    
C73   H33   1.082908 S    
C63   C67   1.420605 A    
C52   C56   1.403589 A    
N4    O27   1.301480 A    
C1    C67   1.491935 S    
C4    C66   1.491966 S    
C12   C20   1.390268 A    
C84   H47   1.110411 S    
C24   H3    1.075767 S    
N1    O22   1.301520 A    
C3    C65   1.491966 S    
C49   H21   1.082781 S    
C56   C60   1.406419 A    
C82   H42   1.110405 S    
C29   C41   1.411992 A    
O16   V4    1.980684 S    
O9    V1    1.996843 S    
C19   H8    1.083896 S    
C57   H25   1.083102 S    
C3    O13   1.336754 A    
C18   H5    1.083913 S    
C71   C75   1.400785 A    
C21   H2    1.075775 S    
C59   H27   1.083105 S    
C70   C77   1.407159 A    
C69   C73   1.400787 A    
O6    C2    1.340055 A    
C23   C27   1.430105 A    
C53   C78   1.494197 S    
O11   V3    1.997717 S    
C30   C42   1.411992 A    
O12   V4    1.997718 S    
C22   C26   1.430320 A    
C8    C9    1.475346 S    
C56   C79   1.494196 S    
C9    C17   1.390369 A    
N2    O23   1.301482 A    
O10   C6    1.326562 A    
C81   H38   1.110405 S    
C37   H13   1.074052 S    
C81   H37   1.110804 S    
C60   C64   1.409095 A    
C33   C34   1.431708 A    
C25   C29   1.425597 A    
C52   H24   1.082785 S    
O20   V2    1.755928 S    
C12   C24   1.404151 A    
C27   C31   1.425595 A    
C63   N3    1.436749 S    
C23   H4    1.075767 S    
C75   C79   1.407824 A    
O14   V2    1.980562 S    
C60   H28   1.083105 S    
C24   C28   1.430105 A    
C27   C35   1.440961 A    
C50   C54   1.403579 A    
C28   C36   1.440961 A    
C4    O14   1.336755 A    
C42   C82   1.513340 S    
C55   C59   1.406419 A    
C61   N1    1.436737 S    
C84   H46   1.110806 S    
C55   C80   1.494196 S    
C70   C74   1.400787 A    
O4    V2    1.982531 S    
C28   C32   1.425595 A    
N2    O24   1.301520 A    
C74   C78   1.407831 A    
