data_mof_unit_51901.cif
_audit_creation_date              2012-12-10T18:09:02-0500
_audit_creation_method            fapswitch 2.2
_symmetry_space_group_name_H-M    P1
_symmetry_Int_Tables_number       1
_space_group_crystal_system       triclinic
_cell_length_a                    12.639067
_cell_length_b                    13.034325
_cell_length_c                    13.642048
_cell_angle_alpha                 92.08157
_cell_angle_beta                  95.788963
_cell_angle_gamma                 96.388458
_cell_volume                      2219.49767021

loop_
_atom_site_label
_atom_site_type_symbol
_atom_type_description
_atom_site_fract_x
_atom_site_fract_y
_atom_site_fract_z
_atom_type_partial_charge
C1    C     C_R   0.557250 0.691481 0.521030 0.924330
C2    C     C_R   0.459302 0.034688 0.500670 -0.064920
C3    C     C_R   0.349001 0.996862 0.500004 -0.116190
C4    C     C_R   0.517395 0.496575 0.318236 0.914569
C5    C     C_R   0.323183 0.900976 0.540674 -0.135109
C6    C     C_R   0.402481 0.841467 0.574288 0.428055
C7    C     C_R   0.486432 0.131289 0.463110 0.331471
C8    C     C_R   0.300746 0.157660 0.431473 0.185289
C9    C     C_R   0.587547 0.801287 0.552700 -0.133509
C10   C     C_R   0.898286 0.356076 0.643477 -0.137225
C11   C     C_R   0.209703 0.617289 0.375659 -0.040601
C12   C     C_1   0.529090 0.493787 0.216965 -0.079477
C13   C     C_R   0.106119 0.636327 0.343514 0.420755
C14   C     C_R   0.021320 0.592087 0.391809 -0.240089
C15   C     C_R   0.039937 0.527172 0.471248 -0.035799
C16   C     C_R   0.442221 0.308791 0.479135 0.945832
C17   C     C_R   0.146303 0.507518 0.497953 0.221351
C18   C     C_R   0.957097 0.477713 0.521944 -0.014101
C19   C     C_R   0.981642 0.406863 0.596247 0.014316
C20   C     C_R   0.088444 0.387994 0.620525 0.348589
C21   C     C_R   0.167986 0.437796 0.570509 -0.211440
C22   C     C_R   0.849829 0.496091 0.501788 0.037623
C23   C     C_R   0.268428 0.056543 0.460352 0.350741
C24   C     C_R   0.794245 0.376664 0.618740 0.068389
C25   C     C_R   0.481712 0.500591 0.681490 0.936804
C26   C     C_1   0.467810 0.496912 0.782181 -0.034253
C27   C     C_2   0.451643 0.490846 0.970263 -0.121229
C28   C     C_2   0.542224 0.489521 0.028044 -0.143988
C29   C     C_1   0.537874 0.491424 0.131063 0.080632
C30   C     C_1   0.457142 0.493807 0.867570 0.075935
C31   C     C_R   0.408566 0.198531 0.455421 -0.302536
C32   C     C_R   0.695393 0.841412 0.576330 -0.229354
C33   C     C_R   0.721956 0.948226 0.593196 0.479356
C34   C     C_R   0.644870 0.014415 0.568892 -0.143614
C35   C     C_R   0.538526 0.973930 0.537964 0.049445
C36   C     C_R   0.508562 0.869978 0.553904 -0.044889
H1    H     H_    0.729591 0.338319 0.654989 0.142870
H2    H     H_    0.276459 0.649844 0.338589 0.180678
H3    H     H_    0.167447 0.834335 0.169743 0.411377
H4    H     H_    0.374897 0.491873 0.999630 0.198651
H5    H     H_    0.131789 0.258359 0.461359 0.357998
H6    H     H_    0.242537 0.872801 0.552737 0.213324
H7    H     H_    0.065764 0.912093 0.568035 0.394688
H8    H     H_    0.694087 0.056842 0.314607 0.411195
H9    H     H_    0.757380 0.790342 0.583828 0.207468
H10   H     H_    0.979851 0.943717 0.732740 0.419247
H11   H     H_    0.911691 0.300829 0.699161 0.236167
H12   H     H_    0.824320 0.550860 0.449856 0.127184
H13   H     H_    0.942125 0.606817 0.363393 0.180134
H14   H     H_    0.246283 0.416258 0.585636 0.238647
H15   H     H_    0.666923 0.096797 0.579246 0.190608
H16   H     H_    0.619007 0.489207 0.998598 0.181323
H17   H     H_    0.310791 0.794587 0.813356 0.398520
H18   H     H_    0.274287 0.248346 0.774357 0.401834
N1    N     N_R   0.773270 0.445590 0.549770 -0.105565
N2    N     N_R   0.227520 0.553880 0.450750 -0.127038
O1    O     O_R   0.631100 0.627590 0.523760 -0.627660
O2    O     O_2   0.472535 0.723279 0.720219 -0.334633
O3    O     O_3   0.329352 0.841246 0.760393 -0.511886
O4    O     O_2   0.093000 0.334844 0.808732 -0.256051
O5    O     O_2   0.073623 0.194356 0.681477 -0.196283
O6    O     O_3   0.260688 0.298970 0.723486 -0.601542
O7    O     O_2   0.064261 0.634604 0.148697 -0.253098
O8    O     O_2   0.984268 0.762298 0.245096 -0.227828
O9    O     O_3   0.188793 0.794566 0.227541 -0.519419
O10   O     O_2   0.291305 0.296863 0.289823 -0.240976
O11   O     O_2   0.165348 0.140552 0.264890 -0.161794
O12   O     O_R   0.455900 0.662370 0.491970 -0.607092
O13   O     O_3   0.129752 0.281476 0.393016 -0.483008
O14   O     O_2   0.053125 0.075950 0.413525 -0.151456
O15   O     O_2   0.113508 0.905787 0.395222 -0.261029
O16   O     O_3   0.104019 0.982901 0.571822 -0.493790
O17   O     O_2   0.559200 0.212452 0.300953 -0.247734
O18   O     O_2   0.690152 0.213479 0.445562 -0.292559
O19   O     O_3   0.628487 0.038823 0.347344 -0.521459
O20   O     O_2   0.904828 0.054754 0.562480 -0.172553
O21   O     O_2   0.841380 0.078743 0.724390 -0.281683
O22   O     O_3   0.920904 0.907368 0.686574 -0.554921
O23   O     O_R   0.600200 0.480080 0.377830 -0.591466
O24   O     O_R   0.425000 0.514870 0.346040 -0.596785
O25   O     O_R   0.544100 0.337630 0.508030 -0.582338
O26   O     O_R   0.368900 0.372410 0.476240 -0.603044
O27   O     O_R   0.575000 0.485130 0.653960 -0.637968
O28   O     O_R   0.399800 0.519920 0.622170 -0.566809
O29   O     O_2   0.287180 0.679612 0.641831 -0.307449
S1    S     S_3+6 0.374080 0.765463 0.674947 0.033574
S2    S     S_3+6 0.127144 0.301192 0.711333 0.042219
S3    S     S_3+6 0.082151 0.707737 0.238056 0.083731
S4    S     S_3+6 0.221412 0.219712 0.341138 0.151061
S5    S     S_3+6 0.130572 0.005873 0.455815 0.110712
S6    S     S_3+6 0.594267 0.152638 0.388264 0.070047
S7    S     S_3+6 0.850562 0.000976 0.642450 0.082682
Zn1   Zn    Zn3+2 0.616980 0.476780 0.521230 1.017165
Zn2   Zn    Zn3+2 0.383020 0.523220 0.478770 1.048653

loop_
_geom_bond_atom_site_label_1
_geom_bond_atom_site_label_2
_ccdc_geom_bond_type
C2    C35   A    
C15   C18   A    
C22   H12   S    
C5    H6    S    
O21   S7    D    
H7    O16   S    
O26   Zn2   S    
O7    S3    D    
H8    O19   S    
C28   H16   S    
C32   H9    S    
C3    C23   A    
C35   C36   A    
N1    Zn1   S    
C8    C23   A    
H17   O3    S    
O29   S1    D    
C16   C31   S    
N2    Zn2   S    
C34   H15   S    
C28   C29   S    
O23   Zn1   S    
C5    C6    A    
C12   C29   T    
C14   H13   S    
O27   Zn1   S    
C20   S2    S    
O11   S4    D    
C1    O12   A    
O16   S5    S    
C34   C35   A    
O5    S2    D    
C9    C32   A    
C2    C7    A    
C25   O28   A    
C4    C12   S    
C27   H4    S    
O19   S6    S    
O1    Zn1   S    
C13   C14   A    
C27   C30   S    
H3    O9    S    
O14   S5    D    
O13   S4    S    
O2    S1    D    
C21   H14   S    
O4    S2    D    
C33   C34   A    
O10   S4    D    
C7    C31   A    
C1    C9    S    
O17   S6    D    
C4    O23   A    
C33   S7    S    
H10   O22   S    
C18   C19   A    
H18   O6    S    
C10   C24   A    
C25   C26   S    
O12   Zn2   S    
C24   N1    A    
O18   S6    D    
C11   H2    S    
C1    O1    A    
C9    C36   A    
O25   Zn1   S    
C10   C19   A    
C7    S6    S    
C16   O26   A    
C24   H1    S    
C23   S5    S    
O28   Zn2   S    
C17   N2    A    
O20   S7    D    
C26   C30   T    
O24   Zn2   S    
C10   H11   S    
O9    S3    S    
H5    O13   S    
C15   C17   A    
C18   C22   A    
C8    C31   A    
C3    C5    A    
C4    O24   A    
C22   N1    A    
O6    S2    S    
C6    S1    S    
O22   S7    S    
C32   C33   A    
C19   C20   A    
C2    C3    A    
O3    S1    S    
C11   C13   A    
O15   S5    D    
C13   S3    S    
C16   O25   A    
C6    C36   A    
C17   C21   A    
C20   C21   A    
C27   C28   D    
C25   O27   A    
C14   C15   A    
C8    S4    S    
O8    S3    D    
C11   N2    A    
