data_mof_unit_59048.cif
_audit_creation_date              2012-10-26T19:57:21-0400
_audit_creation_method            fapswitch 2.2
_symmetry_space_group_name_H-M    P1
_symmetry_Int_Tables_number       1
_space_group_crystal_system       triclinic
_cell_length_a                    13.055586
_cell_length_b                    10.901467
_cell_length_c                    9.661567
_cell_angle_alpha                 90.934631
_cell_angle_beta                  95.083033
_cell_angle_gamma                 90.121153
_cell_volume                      1369.48420893

loop_
_atom_site_label
_atom_site_type_symbol
_atom_type_description
_atom_site_fract_x
_atom_site_fract_y
_atom_site_fract_z
_atom_type_partial_charge
C1    C     C_R   0.503089 0.265105 0.498815 0.550293
C2    C     C_2   0.502571 0.132278 0.494431 -0.092308
C3    C     C_2   0.445785 0.423354 0.914195 -0.029199
C4    C     C_R   0.300530 0.504215 0.476002 0.550532
C5    C     C_2   0.442597 0.426676 0.069771 -0.032024
C6    C     C_R   0.503556 0.734874 0.501758 0.558477
C7    C     C_R   0.698980 0.502759 0.524145 0.547271
C8    C     C_R   0.810581 0.495713 0.533376 -0.059680
C9    C     C_R   0.187716 0.510771 0.464511 -0.015632
C10   C     C_R   0.029785 0.533867 0.314075 0.052914
C11   C     C_R   0.136507 0.525070 0.332158 -0.151801
C12   C     C_R   0.023764 0.475403 0.556291 -0.002488
C13   C     C_R   0.129766 0.499819 0.581477 0.022766
C14   C     C_2   0.823388 0.644155 0.338637 0.610074
C15   C     C_2   0.981449 0.542500 0.169690 0.599797
C16   C     C_2   0.013316 0.330628 0.759834 0.560024
C17   C     C_3   0.172799 0.537603 0.728860 -0.208788
C18   C     C_3   0.205729 0.673369 0.737152 -0.292706
C19   C     C_3   0.253167 0.708556 0.882516 -0.428182
C20   C     C_3   0.627434 0.117385 0.307495 -0.231054
C21   C     C_3   0.725189 0.168516 0.388624 -0.292300
C22   C     C_3   0.795968 0.228534 0.291818 -0.398132
C23   C     C_R   0.972475 0.516802 0.430341 -0.026201
C24   C     C_R   0.866842 0.543477 0.427902 0.058663
C25   C     C_R   0.859936 0.428523 0.641451 -0.165413
C26   C     C_R   0.966406 0.417085 0.654623 0.039399
C27   C     C_2   0.537734 0.930298 0.397649 -0.136771
C28   C     C_2   0.516428 0.866730 0.508875 -0.123054
C29   C     C_2   0.553688 0.063991 0.404439 -0.027467
Cu1   Cu    Cu3+1 0.500020 0.500020 0.638640 0.940715
Cu2   Cu    Cu3+1 0.499980 0.499980 0.361360 0.962294
H1    H     H_    0.453040 0.090009 0.564482 0.089456
H2    H     H_    0.727570 0.696606 0.175138 0.321665
H3    H     H_    0.870198 0.483419 0.025735 0.368963
H4    H     H_    0.001776 0.243645 0.940694 0.350435
H5    H     H_    0.197370 0.692655 0.960756 0.196804
H6    H     H_    0.323487 0.653793 0.909412 0.164470
H7    H     H_    0.274592 0.807249 0.885824 0.150900
H8    H     H_    0.262290 0.693944 0.661533 0.185863
H9    H     H_    0.137138 0.731736 0.711416 0.179021
H10   H     H_    0.113600 0.529787 0.803704 0.171850
H11   H     H_    0.235554 0.475745 0.768394 0.189475
H12   H     H_    0.399534 0.354126 0.855822 0.150075
H13   H     H_    0.818433 0.161201 0.212553 0.172815
H14   H     H_    0.756676 0.307419 0.238927 0.214491
H15   H     H_    0.866629 0.262551 0.352971 0.168780
H16   H     H_    0.705596 0.237714 0.467363 0.169740
H17   H     H_    0.767121 0.092570 0.444010 0.188425
H18   H     H_    0.651361 0.044522 0.235252 0.138836
H19   H     H_    0.588969 0.187907 0.239965 0.177146
H20   H     H_    0.539733 0.567601 0.899995 0.210025
H21   H     H_    0.390568 0.363604 0.114062 0.145254
H22   H     H_    0.551054 0.555500 0.112982 0.229756
H23   H     H_    0.814699 0.383239 0.714579 0.175634
H24   H     H_    0.179889 0.531629 0.241883 0.155460
H25   H     H_    0.547414 0.882782 0.299919 0.147149
H26   H     H_    0.515154 0.910364 0.610441 0.103207
N1    N     N_2   0.498860 0.498660 0.846770 -0.350758
N2    N     N_2   0.498840 0.498630 0.152900 -0.344599
O1    O     O_R   0.500020 0.321960 0.617050 -0.493208
O2    O     O_R   0.749744 0.619914 0.227528 -0.659813
O3    O     O_2   0.018173 0.610560 0.087515 -0.529881
O4    O     O_R   0.896627 0.468772 0.125937 -0.672999
O5    O     O_2   0.094878 0.280223 0.742210 -0.531067
O6    O     O_R   0.962493 0.303808 0.877235 -0.700534
O7    O     O_R   0.499980 0.321920 0.382890 -0.500053
O8    O     O_R   0.349010 0.500000 0.598060 -0.504670
O9    O     O_R   0.348980 0.499950 0.363910 -0.501910
O10   O     O_R   0.500020 0.678080 0.617110 -0.503462
O11   O     O_R   0.499980 0.678040 0.382950 -0.489454
O12   O     O_R   0.651020 0.500050 0.636090 -0.496539
O13   O     O_R   0.650990 0.500000 0.401940 -0.453377
O14   O     O_2   0.855126 0.748829 0.361057 -0.523388

loop_
_geom_bond_atom_site_label_1
_geom_bond_atom_site_label_2
_ccdc_geom_bond_type
C4    O8    A    
C20   H19   S    
C23   C24   A    
C14   O14   D    
C5    H21   S    
Cu2   O13   S    
C20   H18   S    
C19   H7    S    
C6    C28   S    
C10   C23   A    
Cu2   O7    S    
C19   H6    S    
C6    O10   A    
Cu1   O8    S    
C13   C17   S    
C20   C29   S    
C21   H17   S    
C22   H14   S    
Cu1   O12   S    
H22   N2    S    
C7    C8    S    
H20   N1    S    
C28   H26   S    
C12   C13   A    
C16   C26   S    
C8    C25   A    
C9    C11   A    
C12   C23   A    
C3    H12   S    
C17   H11   S    
Cu1   Cu2   S    
Cu1   O1    S    
C25   H23   S    
C2    C29   D    
C18   H9    S    
Cu1   N1    S    
C2    H1    S    
H3    O4    S    
C8    C24   A    
C15   O3    D    
C17   C18   S    
C25   C26   A    
C19   H5    S    
C7    O12   A    
Cu2   O9    S    
C17   H10   S    
C27   C29   S    
C10   C11   A    
C5    N2    D    
C14   C24   S    
C3    N1    D    
C3    C5    S    
C7    O13   A    
Cu1   O10   S    
C11   H24   S    
C20   C21   S    
H2    O2    S    
C1    C2    S    
C1    O1    A    
Cu2   N2    S    
C27   C28   D    
C6    O11   A    
H4    O6    S    
C15   O4    S    
C27   H25   S    
C18   C19   S    
C18   H8    S    
C9    C13   A    
C16   O6    S    
C16   O5    D    
C22   H15   S    
C4    C9    S    
C21   C22   S    
C14   O2    S    
C4    O9    A    
Cu2   O11   S    
C22   H13   S    
C12   C26   A    
C10   C15   S    
C21   H16   S    
C1    O7    A    
