data_mof_unit_47932.cif
_audit_creation_date              2012-12-10T18:20:32-0500
_audit_creation_method            fapswitch 2.2
_symmetry_space_group_name_H-M    P1
_symmetry_Int_Tables_number       1
_space_group_crystal_system       triclinic
_cell_length_a                    14.014575
_cell_length_b                    13.609067
_cell_length_c                    14.972888
_cell_angle_alpha                 90.183755
_cell_angle_beta                  90.241487
_cell_angle_gamma                 81.900558
_cell_volume                      2827.18784109

loop_
_atom_site_label
_atom_site_type_symbol
_atom_type_description
_atom_site_fract_x
_atom_site_fract_y
_atom_site_fract_z
_atom_type_partial_charge
C1    C     C_R   0.499751 0.500409 0.326651 0.886201
C2    C     C_R   0.363135 0.404149 0.953987 -0.005660
C3    C     C_R   0.805411 0.449338 0.564890 -0.071544
C4    C     C_R   0.194589 0.550663 0.435109 -0.071538
C5    C     C_R   0.790936 0.550873 0.435340 -0.046079
C6    C     C_R   0.209064 0.449125 0.564658 -0.046077
C7    C     C_R   0.891421 0.551768 0.433627 0.008422
C8    C     C_R   0.108579 0.448231 0.566372 0.008437
C9    C     C_R   0.949395 0.500020 0.500053 0.083631
C10   C     C_R   0.050605 0.499981 0.499947 0.083636
C11   C     C_R   0.906226 0.448272 0.566555 0.019409
C12   C     C_R   0.500246 0.499599 0.673348 0.886211
C13   C     C_R   0.093774 0.551728 0.433444 0.019397
C14   C     C_R   0.935100 0.602914 0.367358 -0.228090
C15   C     C_R   0.064901 0.397082 0.632638 -0.228124
C16   C     C_R   0.518071 0.313968 0.500011 0.904776
C17   C     C_R   0.481929 0.686032 0.499993 0.904759
C18   C     C_R   0.035339 0.603072 0.367272 -0.220134
C19   C     C_R   0.964661 0.396925 0.632725 -0.220143
C20   C     C_1   0.466618 0.790033 0.501274 -0.188164
C21   C     C_1   0.533389 0.209966 0.498777 -0.188172
C22   C     C_2   0.457499 0.982267 0.504298 -0.032593
C23   C     C_R   0.500395 0.498558 0.953505 0.044637
C24   C     C_2   0.542535 0.017727 0.495846 -0.032567
C25   C     C_1   0.542131 0.121962 0.497335 -0.046199
C26   C     C_1   0.457889 0.878035 0.502763 -0.046196
C27   C     C_R   0.431491 0.453684 0.813821 -0.264591
C28   C     C_R   0.568485 0.546371 0.186178 -0.264639
C29   C     C_R   0.500976 0.498162 0.768935 -0.068402
C30   C     C_R   0.499005 0.501883 0.231063 -0.068407
C31   C     C_R   0.570930 0.541500 0.814822 -0.252928
C32   C     C_R   0.429020 0.458594 0.185174 -0.252904
C33   C     C_R   0.570383 0.543302 0.907111 0.111128
C34   C     C_R   0.499528 0.501580 0.046492 0.044645
C35   C     C_R   0.429542 0.456830 0.092885 0.111110
C36   C     C_R   0.637339 0.953599 0.486261 0.151903
C37   C     C_R   0.696798 0.966437 0.413085 -0.156721
C38   C     C_R   0.786191 0.907080 0.403934 -0.154635
C39   C     C_R   0.817098 0.834781 0.467769 -0.114492
C40   C     C_R   0.758910 0.821942 0.541133 -0.122444
C41   C     C_R   0.669781 0.881592 0.550913 -0.136294
C42   C     C_R   0.362698 0.046397 0.513876 0.151929
C43   C     C_R   0.303261 0.033608 0.587079 -0.156709
C44   C     C_R   0.213866 0.092966 0.596218 -0.154560
C45   C     C_R   0.431379 0.450986 0.906709 0.067281
C46   C     C_R   0.182939 0.165214 0.532344 -0.114507
C47   C     C_R   0.241108 0.178004 0.458955 -0.122453
C48   C     C_R   0.330238 0.118354 0.449188 -0.136300
C49   C     C_R   0.705384 0.653894 0.090806 0.122669
C50   C     C_R   0.805189 0.626879 0.080256 -0.153928
C51   C     C_R   0.869618 0.683492 0.120253 -0.145484
C52   C     C_R   0.834899 0.767666 0.170442 -0.135242
C53   C     C_R   0.735704 0.795195 0.180997 -0.133749
C54   C     C_R   0.671052 0.738884 0.141054 -0.168130
C55   C     C_R   0.294591 0.346181 0.909196 0.122627
C56   C     C_R   0.568562 0.549125 0.093290 0.067290
C57   C     C_R   0.328969 0.261108 0.859078 -0.168088
C58   C     C_R   0.264352 0.204745 0.819151 -0.133688
C59   C     C_R   0.165146 0.232313 0.829590 -0.135205
C60   C     C_R   0.130383 0.316575 0.879647 -0.145559
C61   C     C_R   0.194778 0.373237 0.919629 -0.153926
C62   C     C_R   0.637741 0.591028 0.953035 -0.274985
C63   C     C_R   0.362180 0.409111 0.046961 -0.274968
C64   C     C_R   0.636803 0.595969 0.046011 -0.005639
H1    H     H_    0.377944 0.421391 0.775557 0.164831
H2    H     H_    0.254847 0.409341 0.614954 0.142380
H3    H     H_    0.891579 0.643143 0.315948 0.163497
H4    H     H_    0.108422 0.356845 0.684043 0.163493
H5    H     H_    0.067078 0.643359 0.315503 0.140406
H6    H     H_    0.932922 0.356635 0.684492 0.140401
H7    H     H_    0.673629 0.021907 0.362864 0.126880
H8    H     H_    0.831558 0.917203 0.347347 0.125713
H9    H     H_    0.886432 0.789236 0.460752 0.143062
H10   H     H_    0.783137 0.766153 0.590718 0.133622
H11   H     H_    0.626244 0.871852 0.608943 0.125885
H12   H     H_    0.622057 0.578622 0.224445 0.164830
H13   H     H_    0.326447 0.978177 0.637328 0.126848
H14   H     H_    0.168514 0.082882 0.652824 0.125687
H15   H     H_    0.113602 0.210756 0.539349 0.143063
H16   H     H_    0.216865 0.233755 0.409341 0.133625
H17   H     H_    0.373762 0.128056 0.391141 0.125882
H18   H     H_    0.832943 0.562011 0.041273 0.126976
H19   H     H_    0.946479 0.662147 0.112326 0.129224
H20   H     H_    0.884901 0.811318 0.201375 0.120100
H21   H     H_    0.708831 0.860466 0.219695 0.134990
H22   H     H_    0.594309 0.761622 0.148881 0.133090
H23   H     H_    0.624062 0.576271 0.778522 0.152628
H24   H     H_    0.405719 0.238338 0.851344 0.133091
H25   H     H_    0.291259 0.139402 0.780560 0.134934
H26   H     H_    0.115169 0.188621 0.798673 0.120081
H27   H     H_    0.053513 0.337950 0.887483 0.129233
H28   H     H_    0.166988 0.438172 0.958510 0.126995
H29   H     H_    0.375892 0.423814 0.221472 0.152638
H30   H     H_    0.689847 0.626736 0.916252 0.151043
H31   H     H_    0.310074 0.373400 0.083744 0.151062
H32   H     H_    0.770883 0.409747 0.615242 0.137051
H33   H     H_    0.229119 0.590253 0.384758 0.137049
H34   H     H_    0.745152 0.590655 0.385044 0.142373
N1    N     N_R   0.750030 0.500040 0.500070 -0.103288
N2    N     N_R   0.249970 0.499960 0.499930 -0.103288
O1    O     O_R   0.580280 0.500020 0.367860 -0.624912
O2    O     O_R   0.419720 0.499980 0.632140 -0.624914
O3    O     O_R   0.419730 0.500030 0.367840 -0.629471
O4    O     O_R   0.580270 0.499970 0.632160 -0.629473
O5    O     O_R   0.591830 0.359650 0.500030 -0.608276
O6    O     O_R   0.408170 0.640350 0.499970 -0.608275
O7    O     O_R   0.431280 0.359660 0.500010 -0.609477
O8    O     O_R   0.568720 0.640340 0.499990 -0.609486
Zn1   Zn    Zn3+2 0.607200 0.499990 0.500020 0.944474
Zn2   Zn    Zn3+2 0.392800 0.500010 0.499980 0.944482

loop_
_geom_bond_atom_site_label_1
_geom_bond_atom_site_label_2
_ccdc_geom_bond_type
C34   C56   A    
C16   C21   S    
C23   C45   A    
C51   H19   S    
C12   C29   S    
C27   C29   A    
C14   C18   A    
C28   C56   A    
C37   H7    S    
C22   C42   S    
C53   C54   A    
O8    Zn1   S    
C4    N2    A    
C15   C19   A    
C11   C19   A    
C24   C36   S    
C21   C25   T    
C13   C18   A    
O3    Zn2   S    
C36   C37   A    
C12   O4    A    
C2    C55   S    
C46   H15   S    
C15   H4    S    
O1    Zn1   S    
C49   C54   A    
N1    Zn1   S    
C63   H31   S    
C17   C20   S    
C48   H17   S    
C34   C35   A    
C4    C13   A    
C52   H20   S    
C62   C64   A    
C16   O7    A    
C46   C47   A    
C7    C14   A    
C5    N1    A    
C33   C62   A    
C23   C33   A    
C14   H3    S    
C56   C64   A    
C3    H32   S    
C9    C10   A    
C1    O3    A    
C61   H28   S    
C27   C45   A    
C18   H5    S    
C32   H29   S    
C59   C60   A    
C49   C64   S    
C4    H33   S    
C36   C41   A    
C47   H16   S    
C44   C46   A    
C2    C45   A    
C38   H8    S    
C31   H23   S    
C51   C52   A    
C32   C35   A    
C24   C25   S    
C17   O8    A    
C39   C40   A    
C5    C7    A    
C6    C8    A    
C58   C59   A    
C60   C61   A    
C59   H26   S    
C6    N2    A    
C43   C44   A    
C62   H30   S    
C12   O2    A    
C37   C38   A    
C27   H1    S    
C41   H11   S    
C47   C48   A    
C23   C34   A    
C31   C33   A    
C50   C51   A    
C42   C48   A    
C9    C11   A    
C16   O5    A    
C40   C41   A    
C8    C15   A    
C55   C57   A    
O7    Zn2   S    
C22   C24   D    
O2    Zn2   S    
C42   C43   A    
C28   H12   S    
C1    O1    A    
C52   C53   A    
C50   H18   S    
C54   H22   S    
O6    Zn2   S    
C60   H27   S    
C7    C9    A    
O5    Zn1   S    
C2    C63   A    
C10   C13   A    
C53   H21   S    
C43   H13   S    
C57   H24   S    
C44   H14   S    
C29   C31   A    
C17   O6    A    
C30   C32   A    
C57   C58   A    
C38   C39   A    
C20   C26   T    
N2    Zn2   S    
C55   C61   A    
C28   C30   A    
C1    C30   S    
C40   H10   S    
C39   H9    S    
C58   H25   S    
C3    C11   A    
C3    N1    A    
C6    H2    S    
C5    H34   S    
C8    C10   A    
C49   C50   A    
C22   C26   S    
O4    Zn1   S    
C19   H6    S    
C35   C63   A    
