data_mof_unit_58518.cif
_audit_creation_date              2012-12-10T17:31:25-0500
_audit_creation_method            fapswitch 2.2
_symmetry_space_group_name_H-M    P1
_symmetry_Int_Tables_number       1
_space_group_crystal_system       triclinic
_cell_length_a                    18.786375
_cell_length_b                    18.792703
_cell_length_c                    12.4608
_cell_angle_alpha                 89.871455
_cell_angle_beta                  130.07103
_cell_angle_gamma                 90.159029
_cell_volume                      3366.495517

loop_
_atom_site_label
_atom_site_type_symbol
_atom_type_description
_atom_site_fract_x
_atom_site_fract_y
_atom_site_fract_z
_atom_type_partial_charge
C1    C     C_R   0.610716 0.897084 0.650799 0.820654
C2    C     C_R   0.609382 0.103738 0.649084 0.815701
C3    C     C_R   0.110716 0.397084 0.650800 0.821182
C4    C     C_R   0.109388 0.603734 0.649092 0.816439
C5    C     C_R   0.249848 0.768182 0.049159 0.106950
C6    C     C_R   0.252989 0.234205 0.053501 0.103952
C7    C     C_R   0.749816 0.268216 0.049103 0.106297
C8    C     C_R   0.753006 0.734211 0.053508 0.103028
C9    C     C_R   0.685260 0.242899 0.063401 0.118223
C10   C     C_R   0.683971 0.755044 0.060946 0.122598
C11   C     C_R   0.185252 0.742903 0.063401 0.118480
C12   C     C_R   0.183936 0.255021 0.060912 0.122677
C13   C     C_R   0.607523 0.205422 0.954198 -0.204126
C14   C     C_R   0.605826 0.790906 0.949119 -0.198605
C15   C     C_R   0.107510 0.705437 0.954179 -0.203766
C16   C     C_R   0.105796 0.290886 0.949083 -0.198830
C17   C     C_R   0.596034 0.190611 0.835249 -0.170557
C18   C     C_R   0.597181 0.807273 0.833011 -0.165928
C19   C     C_R   0.096043 0.690613 0.835252 -0.169822
C20   C     C_R   0.097167 0.307270 0.832996 -0.164247
C21   C     C_R   0.307868 0.823824 0.136738 -0.218683
C22   C     C_R   0.312576 0.179635 0.142403 -0.219219
C23   C     C_R   0.807819 0.323868 0.136670 -0.220433
C24   C     C_R   0.812588 0.679639 0.142407 -0.221018
C25   C     C_R   0.264581 0.807775 0.281980 0.184302
C26   C     C_R   0.259746 0.187842 0.276226 0.176547
C27   C     C_R   0.764636 0.307734 0.282028 0.183499
C28   C     C_R   0.759816 0.687895 0.276300 0.174370
C29   C     C_R   0.669731 0.165752 0.730970 -0.146300
C30   C     C_R   0.675094 0.837877 0.737538 -0.133449
C31   C     C_R   0.169758 0.665734 0.731009 -0.146355
C32   C     C_R   0.175087 0.337874 0.737535 -0.133275
C33   C     C_R   0.689571 0.017153 0.298043 0.235430
C34   C     C_R   0.189502 0.517427 0.297961 0.236783
C35   C     C_R   0.340629 0.001863 0.626395 0.485792
C36   C     C_R   0.840678 0.501591 0.626476 0.546010
C37   C     C_R   0.306177 0.013948 0.696510 -0.020553
C38   C     C_R   0.805951 0.513530 0.695801 -0.009650
C39   C     C_R   0.385192 0.099999 0.344412 0.827157
C40   C     C_R   0.385136 0.899919 0.344442 0.827812
C41   C     C_R   0.885202 0.600006 0.344422 0.825286
C42   C     C_R   0.885136 0.399920 0.344440 0.826100
C43   C     C_R   0.366970 0.021381 0.842264 0.132659
C44   C     C_R   0.866824 0.521503 0.842155 0.062828
C45   C     C_R   0.463686 0.010525 0.922320 -0.064585
C46   C     C_R   0.963579 0.510614 0.922203 -0.036712
C47   C     C_R   0.498150 0.004975 0.846562 0.129090
C48   C     C_R   0.998093 0.505050 0.846518 0.120345
C49   C     C_R   0.527921 0.008979 0.075218 -0.011938
C50   C     C_R   0.027851 0.509100 0.075146 -0.007864
C51   C     C_R   0.624285 0.016359 0.149948 0.006376
C52   C     C_R   0.124200 0.516630 0.149862 0.001677
C53   C     C_R   0.655939 0.019361 0.077129 -0.241698
C54   C     C_R   0.155838 0.519719 0.077023 -0.242017
C55   C     C_R   0.598766 0.008097 0.933808 0.184354
C56   C     C_R   0.098698 0.508265 0.933763 0.185973
C57   C     C_R   0.501789 0.998260 0.158978 0.056698
C58   C     C_R   0.001771 0.498239 0.158954 0.060034
C59   C     C_R   0.658286 0.008053 0.372320 0.297452
C60   C     C_R   0.158265 0.508169 0.372279 0.296949
C61   C     C_R   0.695084 0.260287 0.181567 -0.173668
C62   C     C_R   0.689938 0.734602 0.174586 -0.192033
C63   C     C_R   0.195035 0.760325 0.181521 -0.174538
C64   C     C_R   0.189873 0.234552 0.174515 -0.192682
C65   C     C_R   0.318397 0.842765 0.255019 -0.083731
C66   C     C_R   0.318572 0.157035 0.255215 -0.083644
C67   C     C_R   0.818396 0.342768 0.255008 -0.083343
C68   C     C_R   0.818600 0.657054 0.255241 -0.083717
C69   C     C_R   0.735157 0.186188 0.717437 -0.267792
C70   C     C_R   0.746490 0.823653 0.733816 -0.297226
C71   C     C_R   0.235207 0.686151 0.717514 -0.269225
C72   C     C_R   0.246470 0.323635 0.733796 -0.296024
C73   C     C_R   0.310411 0.729348 0.817901 0.187200
C74   C     C_R   0.324569 0.285133 0.840813 0.168280
C75   C     C_R   0.810333 0.229421 0.817773 0.186931
C76   C     C_R   0.824589 0.785149 0.840826 0.165300
C77   C     C_R   0.321997 0.751231 0.936040 0.350135
C78   C     C_R   0.332405 0.260073 0.954078 0.370756
C79   C     C_R   0.821925 0.251314 0.935912 0.347606
C80   C     C_R   0.832416 0.760077 0.954080 0.369420
C81   C     C_R   0.748255 0.241228 0.940438 -0.034795
C82   C     C_R   0.754268 0.764034 0.949305 -0.050762
C83   C     C_R   0.248302 0.741178 0.940518 -0.033313
C84   C     C_R   0.254260 0.264036 0.949310 -0.047938
C85   C     C_R   0.670279 0.199343 0.833737 0.029105
C86   C     C_R   0.674454 0.802695 0.837963 0.027080
C87   C     C_R   0.170308 0.699320 0.833780 0.029401
C88   C     C_R   0.174447 0.302697 0.837964 0.028987
Cu1   Cu    Cu3+1 0.526340 0.000000 0.421010 0.996072
Cu2   Cu    Cu3+1 0.026340 0.500000 0.421010 0.995582
Cu3   Cu    Cu3+1 0.473640 0.000000 0.578990 1.004142
Cu4   Cu    Cu3+1 0.973640 0.500000 0.578990 1.001405
H1    H     H_    0.729769 0.024419 0.133410 0.217516
H2    H     H_    0.229654 0.524886 0.133281 0.218816
H3    H     H_    0.431587 0.985793 0.113818 0.169755
H4    H     H_    0.931574 0.485664 0.113748 0.172205
H5    H     H_    0.552956 0.191045 0.957295 0.192300
H6    H     H_    0.548933 0.802477 0.947923 0.188852
H7    H     H_    0.052923 0.691081 0.957241 0.192566
H8    H     H_    0.048890 0.302444 0.947865 0.188711
H9    H     H_    0.648036 0.237460 0.194690 0.187832
H10   H     H_    0.639223 0.754010 0.182614 0.189524
H11   H     H_    0.147951 0.737528 0.194598 0.187754
H12   H     H_    0.139135 0.253938 0.182510 0.189186
H13   H     H_    0.340706 0.856065 0.107853 0.205338
H14   H     H_    0.350135 0.150888 0.118050 0.219027
H15   H     H_    0.840610 0.356140 0.107744 0.205058
H16   H     H_    0.850138 0.650885 0.118046 0.220004
H17   H     H_    0.731368 0.164706 0.633332 0.173971
H18   H     H_    0.745835 0.847386 0.653856 0.180370
H19   H     H_    0.231412 0.664679 0.633398 0.173851
H20   H     H_    0.245805 0.347356 0.653822 0.179698
H21   H     H_    0.528100 0.171856 0.745707 0.171418
H22   H     H_    0.529274 0.824414 0.740852 0.169602
H23   H     H_    0.028108 0.671872 0.745692 0.171348
H24   H     H_    0.029263 0.324411 0.740831 0.169337
N1    N     N_R   0.566260 0.000000 0.302220 -0.207265
N2    N     N_R   0.066260 0.500000 0.302220 -0.208406
N3    N     N_R   0.434410 0.000000 0.697680 -0.241333
N4    N     N_R   0.934410 0.500000 0.697680 -0.260564
O1    O     O_R   0.608610 0.924520 0.551740 -0.550394
O2    O     O_R   0.608610 0.075480 0.551740 -0.552075
O3    O     O_R   0.108610 0.424520 0.551740 -0.550125
O4    O     O_R   0.108610 0.575480 0.551740 -0.551871
O5    O     O_R   0.564110 0.924510 0.685150 -0.570302
O6    O     O_R   0.564110 0.075490 0.685150 -0.576348
O7    O     O_R   0.064110 0.424510 0.685150 -0.570294
O8    O     O_R   0.064110 0.575490 0.685150 -0.576141
O9    O     O_R   0.435880 0.075470 0.314850 -0.584338
O10   O     O_R   0.435880 0.924530 0.314850 -0.591710
O11   O     O_R   0.935880 0.575470 0.314850 -0.583453
O12   O     O_R   0.935880 0.424530 0.314850 -0.591194
O13   O     O_R   0.391380 0.075460 0.448260 -0.524876
O14   O     O_R   0.391380 0.924540 0.448260 -0.516785
O15   O     O_R   0.891380 0.575460 0.448260 -0.529890
O16   O     O_R   0.891380 0.424540 0.448260 -0.522665
N5    N     N_3   0.277848 0.822212 0.407051 -0.506914
H25   H     H_    0.341968 0.800452 0.491353 0.201150
H26   H     H_    0.227517 0.796049 0.404365 0.232235
N6    N     N_3   0.267904 0.169488 0.395793 -0.511207
H27   H     H_    0.329347 0.192595 0.483823 0.200408
H28   H     H_    0.213698 0.191931 0.387585 0.230763
N7    N     N_3   0.777975 0.322115 0.407174 -0.505852
H29   H     H_    0.842129 0.300374 0.491417 0.200627
H30   H     H_    0.727701 0.295899 0.404558 0.234710
N8    N     N_3   0.768035 0.669591 0.395937 -0.504438
H31   H     H_    0.829525 0.692679 0.483925 0.198910
H32   H     H_    0.713885 0.692099 0.387809 0.235947
Cl1   Cl    Cl    0.810791 0.028483 0.393952 -0.658179
Cl2   Cl    Cl    0.310694 0.528934 0.393832 -0.660320
Cl3   Cl    Cl    0.258749 0.995248 0.442115 -0.560951
Cl4   Cl    Cl    0.758454 0.495102 0.442276 -0.502452
N9    N     N_3   0.330382 0.048181 0.905868 -0.589615
H33   H     H_    0.278919 0.013252 0.883544 0.241653
H34   H     H_    0.299797 0.097752 0.861767 0.251906
N10   N     N_3   0.831011 0.548936 0.906529 -0.601081
H35   H     H_    0.779055 0.514906 0.884850 0.215774
H36   H     H_    0.802434 0.599247 0.865026 0.236421
N11   N     N_3   0.208128 0.021851 0.619653 -0.565064
H37   H     H_    0.183800 0.064424 0.549797 0.268245
H38   H     H_    0.174421 0.975288 0.562486 0.270492
N12   N     N_3   0.707158 0.519654 0.614339 -0.505153
H39   H     H_    0.685398 0.481347 0.648821 0.235510
H40   H     H_    0.691657 0.570250 0.628927 0.235293
N13   N     N_3   0.650733 0.997337 0.888671 -0.486381
H41   H     H_    0.692463 0.952204 0.939633 0.217005
H42   H     H_    0.696290 0.040266 0.921306 0.214276
N14   N     N_3   0.150682 0.497303 0.888708 -0.485396
H43   H     H_    0.192369 0.452169 0.939844 0.217261
H44   H     H_    0.196278 0.540187 0.921202 0.214784
Cl5   Cl    Cl    0.436581 0.777101 0.083096 -0.666953
Cl6   Cl    Cl    0.446709 0.238185 0.107187 -0.643420
Cl7   Cl    Cl    0.936497 0.277240 0.082917 -0.670212
Cl8   Cl    Cl    0.946721 0.738201 0.107208 -0.645754
N15   N     N_3   0.379765 0.746801 0.806358 -0.544379
H45   H     H_    0.364774 0.722565 0.718331 0.212130
H46   H     H_    0.375969 0.801683 0.789352 0.216328
N16   N     N_3   0.399975 0.276238 0.840109 -0.548663
H47   H     H_    0.374688 0.249255 0.748251 0.203101
H48   H     H_    0.422331 0.326618 0.836890 0.239266
N17   N     N_3   0.879662 0.246898 0.806185 -0.544132
H49   H     H_    0.864662 0.222666 0.718149 0.212657
H50   H     H_    0.875843 0.301781 0.789171 0.216339
N18   N     N_3   0.900043 0.776319 0.840189 -0.548354
H51   H     H_    0.874765 0.749616 0.748092 0.203293
H52   H     H_    0.922592 0.826731 0.837541 0.239835
N19   N     N_3   0.722287 0.006099 0.522385 -0.505928
H53   H     H_    0.768444 0.963925 0.555219 0.224673
H54   H     H_    0.760296 0.053560 0.559922 0.232222
N20   N     N_3   0.222296 0.506169 0.522342 -0.505827
H55   H     H_    0.268500 0.464040 0.555098 0.224326
H56   H     H_    0.260250 0.553653 0.559922 0.232030

loop_
_geom_bond_atom_site_label_1
_geom_bond_atom_site_label_2
_ccdc_geom_bond_type
C83   C87   A    
C74   N16   S    
C72   H20   S    
C73   N15   S    
N13   H41   S    
Cu3   O6    S    
C72   C74   A    
Cu2   O3    S    
C14   C18   A    
C53   C55   A    
C35   N3    A    
C48   C56   A    
C18   H22   S    
N16   H47   S    
C34   Cl2   S    
C17   H21   S    
C48   N4    A    
C10   C62   A    
N17   H49   S    
C15   C19   A    
N5    H26   S    
N20   H55   S    
C75   C79   A    
C2    C29   S    
C17   C85   A    
Cu2   N2    S    
C57   N1    A    
N10   H35   S    
C28   C68   A    
N6    H28   S    
C5    C11   A    
C19   C87   A    
N11   H37   S    
C6    C12   A    
C12   C64   A    
C3    O7    A    
Cu1   O2    S    
C77   C83   A    
N7    H29   S    
C32   C88   A    
Cu4   O8    S    
C58   N2    A    
C49   C57   A    
N18   H51   S    
C4    O4    A    
C42   O16   A    
C25   C63   A    
C45   C47   A    
C23   C67   A    
C29   C69   A    
C26   C64   A    
C22   C66   A    
C9    C13   A    
C34   C52   A    
C27   C61   A    
C11   C15   A    
N10   H36   S    
C12   C16   A    
C52   C54   A    
C49   C51   A    
C71   H19   S    
C27   N7    S    
N11   H38   S    
C60   N2    A    
C24   H16   S    
C19   H23   S    
C30   C86   A    
C70   H18   S    
C29   C85   A    
C16   C20   A    
Cu2   O12   S    
N14   H44   S    
C33   C59   A    
C59   N1    A    
C34   C60   A    
C56   N14   S    
N13   H42   S    
Cu4   O16   S    
C35   Cl3   S    
C69   H17   S    
C21   C65   A    
C30   C70   A    
C3    O3    A    
C14   H6    S    
C41   C68   S    
N8    H32   S    
C79   Cl7   S    
C2    O2    A    
Cu2   Cu4   S    
C46   C48   A    
C6    C84   A    
C4    O8    A    
C53   H1    S    
C44   N10   S    
C84   C88   A    
C31   C87   A    
N6    H27   S    
N15   H46   S    
C10   C14   A    
N17   H50   S    
C20   H24   S    
C16   H8    S    
C36   Cl4   S    
C44   C46   A    
C22   H14   S    
C40   O14   A    
Cu1   O10   S    
C51   C53   A    
C26   C66   A    
C37   C43   A    
C25   N5    S    
C5    C83   A    
C38   C44   A    
C9    C61   A    
C54   H2    S    
C78   C84   A    
C50   C52   A    
N15   H45   S    
Cu3   O13   S    
C45   C49   A    
C77   Cl5   S    
C23   H15   S    
C61   H9    S    
C78   Cl6   S    
C50   C58   A    
C25   C65   A    
C18   C86   A    
C59   N19   S    
C43   C45   A    
N8    H31   S    
Cu2   O11   S    
C2    O6    A    
C63   H11   S    
N14   H43   S    
C7    C81   A    
Cu1   N1    S    
C40   C65   S    
C70   C76   A    
C42   C67   S    
C58   H4    S    
C39   C66   S    
C8    C82   A    
Cu4   O15   S    
N9    H34   S    
C55   N13   S    
C75   N17   S    
Cu4   O7    S    
C41   O15   A    
C47   N3    A    
C47   C55   A    
N12   H39   S    
C39   O13   A    
C57   H3    S    
N7    H30   S    
C40   O10   A    
N20   H56   S    
Cu3   O5    S    
C35   C37   A    
Cu2   O4    S    
C8    C10   A    
C64   H12   S    
C76   C80   A    
C15   H7    S    
C26   N6    S    
N16   H48   S    
C79   C81   A    
C54   C56   A    
C33   C51   A    
C39   O9    A    
N5    H25   S    
C46   C50   A    
C28   N8    S    
Cu1   O9    S    
C13   C17   A    
C1    O5    A    
C37   N11   S    
C36   C38   A    
Cu4   N4    S    
C80   Cl8   S    
N19   H53   S    
N12   H40   S    
C33   Cl1   S    
C82   C86   A    
Cu3   O14   S    
Cu1   O1    S    
C7    C23   A    
C20   C88   A    
C31   C71   A    
C1    C30   S    
C8    C24   A    
C80   C82   A    
N18   H52   S    
C69   C75   A    
Cu3   N3    S    
C13   H5    S    
C3    C32   S    
C36   N4    A    
C1    O1    A    
N19   H54   S    
C4    C31   S    
C27   C67   A    
C24   C68   A    
C7    C9    A    
C38   N12   S    
C41   O11   A    
C5    C21   A    
C60   N20   S    
Cu1   Cu3   S    
C74   C78   A    
C71   C73   A    
C73   C77   A    
C42   O12   A    
C62   H10   S    
N9    H33   S    
C76   N18   S    
C11   C63   A    
C43   N9    S    
C81   C85   A    
C21   H13   S    
C28   C62   A    
C32   C72   A    
C6    C22   A    
