data_mof_unit_43725.cif
_audit_creation_date              2012-12-11T20:30:04-0500
_audit_creation_method            fapswitch 2.2
_symmetry_space_group_name_H-M    P1
_symmetry_Int_Tables_number       1
_space_group_crystal_system       triclinic
_cell_length_a                    8.426553
_cell_length_b                    17.081897
_cell_length_c                    18.844959
_cell_angle_alpha                 101.528291
_cell_angle_beta                  93.002771
_cell_angle_gamma                 96.777772
_cell_volume                      2631.21657718

loop_
_atom_site_label
_atom_site_type_symbol
_atom_type_description
_atom_site_fract_x
_atom_site_fract_y
_atom_site_fract_z
_atom_type_partial_charge
Ba1   Ba    Ba6+2 0.853800 0.535410 0.467450 1.683455
Ba2   Ba    Ba6+2 0.336030 0.464660 0.532560 1.689918
C1    C     C_3   0.781949 0.814055 0.270381 -0.239257
C2    C     C_3   0.717129 0.743372 0.305667 0.294252
C3    C     C_3   0.432279 0.291705 0.302396 0.265501
C4    C     C_3   0.380898 0.229198 0.232388 -0.460738
C5    C     C_3   0.050215 0.286670 0.732949 0.368528
C6    C     C_3   0.089464 0.258761 0.804155 -0.182341
C7    C     C_3   0.553374 0.258828 0.685746 0.417750
C8    C     C_3   0.542965 0.179506 0.712813 -0.234426
C9    C     C_R   0.995861 0.460508 0.044483 0.001292
C10   C     C_R   0.893251 0.427648 0.090675 0.030211
C11   C     C_R   0.733752 0.397410 0.065281 -0.070617
C12   C     C_3   0.180135 0.723229 0.289228 0.267888
C13   C     C_R   0.677136 0.399250 0.994618 -0.071038
C14   C     C_R   0.779127 0.430922 0.947759 0.036816
C15   C     C_R   0.938668 0.462181 0.972663 -0.007116
C16   C     C_R   0.724730 0.429552 0.875920 -0.061890
C17   C     C_R   0.827990 0.457065 0.826704 -0.051095
C18   C     C_R   0.986990 0.491505 0.852148 -0.002893
C19   C     C_R   0.041325 0.493914 0.925543 0.008848
C20   C     C_R   0.776771 0.450480 0.752804 -0.045559
C21   C     C_R   0.884977 0.476281 0.704983 -0.302228
C22   C     C_R   0.039078 0.517208 0.729873 0.115355
C23   C     C_3   0.254347 0.773249 0.235717 -0.231516
C24   C     C_R   0.090728 0.524932 0.805176 -0.037528
C25   C     C_R   0.155396 0.491235 0.069903 0.000868
C26   C     C_R   0.211078 0.492437 0.142860 -0.006541
C27   C     C_R   0.105276 0.462678 0.190852 -0.069239
C28   C     C_R   0.949664 0.426931 0.161997 -0.022948
C29   C     C_R   0.243146 0.564644 0.835599 -0.006542
C30   C     C_R   0.301279 0.560683 0.905929 0.062057
C31   C     C_R   0.199819 0.526011 0.951462 0.048317
C32   C     C_R   0.257463 0.523631 0.023035 0.022044
C33   C     C_R   0.461511 0.589202 0.930924 -0.053255
C34   C     C_3   0.219135 0.746850 0.702418 0.285441
C35   C     C_R   0.519435 0.585448 0.000787 -0.094596
C36   C     C_R   0.417585 0.553890 0.047613 0.026431
C37   C     C_R   0.370029 0.527068 0.168398 -0.065278
C38   C     C_R   0.473429 0.553684 0.118853 -0.096804
C39   C     C_R   0.418981 0.537150 0.243144 0.053087
C40   C     C_R   0.309342 0.513969 0.291209 -0.249918
C41   C     C_R   0.155836 0.473553 0.266473 0.023082
C42   C     C_2   0.405721 0.730971 0.514193 -0.174329
C43   C     C_3   0.290965 0.788859 0.498623 0.012686
C44   C     C_2   0.371688 0.869110 0.488218 0.025781
C45   C     C_3   0.216546 0.812918 0.771282 -0.251103
C46   C     C_2   0.533703 0.887050 0.502996 0.023131
C47   C     C_2   0.630598 0.827141 0.525566 -0.096701
C48   C     C_1   0.561230 0.755794 0.532114 0.124912
C49   C     C_R   0.808544 0.142570 0.562066 -0.093485
C50   C     C_R   0.866536 0.223971 0.565632 -0.010930
C51   C     C_R   0.617170 0.242607 0.501398 0.032271
C52   C     C_R   0.559173 0.162174 0.498903 -0.128326
C53   C     C_R   0.651750 0.113181 0.530738 -0.041075
C54   C     C_2   0.619795 0.965858 0.498686 -0.096651
C55   C     C_2   0.575874 0.033536 0.536381 -0.093658
C56   C     C_3   0.941327 0.258519 0.317740 0.281483
C57   C     C_R   0.766108 0.274564 0.539682 -0.264334
C58   C     C_3   0.023922 0.180484 0.312115 -0.307683
C59   C     C_3   0.724437 0.639029 0.690159 0.257820
C60   C     C_3   0.761240 0.660290 0.773209 -0.292774
H1    H     H_    0.812904 0.729960 0.341797 0.115843
H2    H     H_    0.286569 0.798622 0.817632 0.149797
H3    H     H_    0.267596 0.873204 0.762961 0.113493
H4    H     H_    0.091543 0.816522 0.786595 0.084252
H5    H     H_    0.962841 0.139268 0.344121 0.084017
H6    H     H_    0.148738 0.196188 0.336791 0.103774
H7    H     H_    0.821294 0.608203 0.664557 0.016987
H8    H     H_    0.610626 0.597572 0.677509 0.065941
H9    H     H_    0.892248 0.667198 0.786879 0.067814
H10   H     H_    0.706902 0.609808 0.796743 0.053846
H11   H     H_    0.686944 0.825732 0.232019 0.123379
H12   H     H_    0.322962 0.309418 0.327249 0.075264
H13   H     H_    0.337719 0.170304 0.245411 0.149698
H14   H     H_    0.285673 0.250037 0.200572 0.082433
H15   H     H_    0.481540 0.219359 0.197537 0.156818
H16   H     H_    0.882909 0.797934 0.237676 0.159459
H17   H     H_    0.373472 0.755035 0.222747 0.025050
H18   H     H_    0.059435 0.353291 0.743369 0.012441
H19   H     H_    0.925375 0.260420 0.713571 0.009510
H20   H     H_    0.085059 0.192211 0.791571 0.083441
H21   H     H_    0.681114 0.276629 0.678587 -0.108747
H22   H     H_    0.483721 0.249830 0.632520 0.063932
H23   H     H_    0.568855 0.191902 0.772567 0.186414
H24   H     H_    0.635565 0.143834 0.688231 0.111728
H25   H     H_    0.652313 0.372614 0.100219 0.085353
H26   H     H_    0.553611 0.375283 0.976424 0.098145
H27   H     H_    0.843353 0.470320 0.648637 0.062831
H28   H     H_    0.602012 0.404656 0.858839 0.152780
H29   H     H_    0.867035 0.401648 0.195199 0.163037
H30   H     H_    0.321791 0.596796 0.804798 0.123604
H31   H     H_    0.543472 0.612796 0.895967 0.119101
H32   H     H_    0.643895 0.607897 0.018387 0.079345
H33   H     H_    0.597706 0.576389 0.134965 0.123352
H34   H     H_    0.273726 0.692535 0.310600 0.072823
H35   H     H_    0.347499 0.523746 0.348366 0.117410
H36   H     H_    0.477748 0.030730 0.570835 0.093922
H37   H     H_    0.758354 0.844209 0.539579 0.082745
H38   H     H_    0.722445 0.968012 0.466451 0.062576
H39   H     H_    0.442784 0.137220 0.471234 0.090020
H40   H     H_    0.354123 0.670373 0.516636 0.041274
H41   H     H_    0.811503 0.336876 0.541391 0.065138
H42   H     H_    0.180217 0.760156 0.183004 0.106357
O1    O     O_2   0.871520 0.445720 0.321500 -0.437304
O2    O     O_3   0.712706 0.708948 0.663302 -0.623195
O3    O     O_3   0.112238 0.773345 0.345335 -0.621874
O4    O     O_2   0.318180 0.554310 0.678550 -0.502857
O5    O     O_3   0.068680 0.548140 0.588860 -0.486297
O6    O     O_3   0.527520 0.406960 0.624950 -0.485806
O7    O     O_3   0.138715 0.676089 0.718388 -0.676406
O8    O     O_3   0.608500 0.402060 0.457050 -0.425091
O9    O     O_3   0.104610 0.363860 0.586060 -0.475311
O10   O     O_2   0.190800 0.222077 0.540602 -0.500153
O11   O     O_3   0.157351 0.260020 0.681134 -0.561718
O12   O     O_3   0.121030 0.451930 0.411150 -0.472729
O13   O     O_3   0.581210 0.598010 0.542960 -0.497727
O14   O     O_2   0.335820 0.303580 0.452320 -0.471801
O15   O     O_3   0.528551 0.257346 0.348365 -0.663975
O16   O     O_2   0.451978 0.469263 0.755749 -0.462737
O17   O     O_3   0.494938 0.318846 0.735943 -0.565175
O18   O     O_3   0.662190 0.593100 0.375060 -0.388220
O19   O     O_2   0.743740 0.531053 0.243092 -0.509492
O20   O     O_3   0.048069 0.318414 0.296922 -0.646010
O21   O     O_3   0.667008 0.675518 0.249741 -0.652376
O22   O     O_2   0.853880 0.696450 0.547730 -0.469923
O23   O     O_3   0.085100 0.636210 0.413950 -0.485069
O24   O     O_2   0.968894 0.769683 0.459694 -0.499253
P1    P     P_3+3 0.038810 0.422920 0.331160 1.009989
P2    P     P_3+3 0.678260 0.686080 0.568600 1.012156
P3    P     P_3+3 0.122410 0.740704 0.428394 0.946420
P4    P     P_3+3 0.150900 0.577150 0.668860 0.952801
P5    P     P_3+3 0.078962 0.264556 0.594056 0.987908
P6    P     P_3+3 0.624126 0.584407 0.280532 1.024124
P7    P     P_3+3 0.520110 0.300045 0.440692 0.979741
P8    P     P_3+3 0.565338 0.412862 0.717434 0.980695
C61   C     C_2   0.793345 0.237385 0.265935 0.490673
H43   H     H_    0.704771 0.187848 0.271188 0.022336
O25   O     O_2   0.779957 0.268415 0.213423 -0.629492
C62   C     C_3   0.901136 0.282730 0.395811 -0.312600
H44   H     H_    0.834600 0.335222 0.403400 0.111601
H45   H     H_    0.826899 0.230612 0.408865 0.000136
H46   H     H_    0.011952 0.297674 0.432997 0.135352
C63   C     C_2   0.024629 0.132787 0.235503 0.496362
H47   H     H_    0.052600 0.163148 0.191561 0.043579
O26   O     O_2   0.990316 0.059628 0.222047 -0.538691
C64   C     C_3   0.840872 0.892455 0.325334 -0.430156
H48   H     H_    0.899982 0.880136 0.375115 0.145556
H49   H     H_    0.927808 0.931275 0.300873 0.217683
H50   H     H_    0.739029 0.926448 0.340186 0.110042
C65   C     C_2   0.701930 0.737332 0.808320 0.576341
H51   H     H_    0.761315 0.794564 0.800486 0.055686
O27   O     O_2   0.587708 0.736549 0.845441 -0.612023
C66   C     C_2   0.579905 0.766555 0.348468 0.404815
H52   H     H_    0.539999 0.824900 0.352209 -0.042259
O28   O     O_2   0.511560 0.719303 0.380355 -0.661711
C67   C     C_2   0.522520 0.364541 0.283567 0.457419
H53   H     H_    0.555509 0.364993 0.228714 -0.007156
O29   O     O_2   0.558283 0.425202 0.330163 -0.550953
C68   C     C_2   0.253824 0.295157 0.838090 0.471398
H54   H     H_    0.342479 0.256426 0.847484 0.015804
O30   O     O_2   0.288135 0.368108 0.856576 -0.591327
C69   C     C_2   0.967952 0.277564 0.858544 0.415713
H55   H     H_    0.005533 0.310917 0.913261 0.034296
O31   O     O_2   0.826425 0.252379 0.842971 -0.599493
C70   C     C_3   0.054105 0.656186 0.247372 -0.332569
H56   H     H_    0.008360 0.615882 0.282873 0.155389
H57   H     H_    0.953720 0.679611 0.222699 0.131965
H58   H     H_    0.108450 0.621381 0.201610 0.061843
C71   C     C_3   0.379978 0.128071 0.693436 -0.377013
H59   H     H_    0.335614 0.125625 0.636425 0.154459
H60   H     H_    0.389515 0.065790 0.700619 0.125072
H61   H     H_    0.292351 0.152666 0.730149 0.175471
C72   C     C_2   0.908142 0.088139 0.591160 0.488141
H62   H     H_    0.916019 0.028417 0.559898 -0.016382
O32   O     O_2   0.977960 0.108268 0.651542 -0.597789
C73   C     C_3   0.267071 0.931037 0.471819 -0.396523
H63   H     H_    0.155152 0.903158 0.439119 0.142509
H64   H     H_    0.231944 0.966328 0.523305 0.103731
H65   H     H_    0.328464 0.971907 0.439962 0.119684
C74   C     C_2   0.274570 0.862926 0.264466 0.577968
H66   H     H_    0.344453 0.889416 0.315186 -0.019089
O33   O     O_2   0.211834 0.906787 0.230864 -0.546111
C75   C     C_2   0.388471 0.741122 0.685281 0.482525
H67   H     H_    0.419889 0.684961 0.656648 -0.025187
O34   O     O_2   0.487940 0.801337 0.697570 -0.607728
C76   C     C_3   0.127531 0.770855 0.640658 -0.330317
H68   H     H_    0.125131 0.722620 0.591653 0.100048
H69   H     H_    0.004211 0.779631 0.655283 0.156771
H70   H     H_    0.185412 0.828833 0.630004 0.059652

loop_
_geom_bond_atom_site_label_1
_geom_bond_atom_site_label_2
_ccdc_geom_bond_type
O21   P6    S    
C59   H8    S    
C2    C66   S    
Ba2   O5    S    
C1    C64   S    
C67   H53   S    
C39   C40   A    
C52   H39   S    
O6    P8    S    
C69   H55   S    
C51   P7    S    
C62   H46   S    
Ba2   O14   S    
C4    H13   S    
C37   C39   A    
C51   C52   A    
C54   C55   D    
C10   C11   A    
C61   O25   D    
C2    H1    S    
Ba2   O8    S    
C35   C36   A    
C71   H60   S    
C2    O21   S    
C3    O15   S    
C6    H20   S    
C8    H23   S    
C26   C27   A    
C69   O31   D    
C22   C24   A    
C16   C17   A    
Ba1   P1    S    
Ba1   O8    S    
C3    C4    S    
Ba2   O9    S    
C19   C31   A    
C71   H59   S    
O22   P2    D    
C56   C62   S    
C13   C14   A    
C75   H67   S    
C34   C45   S    
C46   C54   S    
Ba1   Ba2   S    
C5    O11   S    
C3    H12   S    
C72   H62   S    
O18   P6    S    
C76   H70   S    
C42   C48   D    
C48   P2    S    
C64   H48   S    
Ba1   O5    S    
Ba1   O18   S    
Ba2   O12   S    
C9    C15   A    
O12   P1    S    
C17   C18   A    
C58   H5    S    
C14   C15   A    
C73   H64   S    
C35   H32   S    
Ba2   P4    S    
C21   C22   A    
C21   H27   S    
C34   C75   S    
Ba1   O12   S    
C9    C25   A    
C12   C70   S    
C7    C8    S    
C45   H4    S    
C66   O28   D    
C10   C28   A    
C33   H31   S    
C24   C29   A    
C67   O29   D    
O9    P5    S    
C27   C41   A    
C70   H57   S    
C50   P5    S    
C44   C73   S    
C60   H9    S    
O5    P4    S    
C12   H34   S    
C39   P6    S    
Ba2   O13   S    
C23   C74   S    
O23   P3    S    
C74   O33   D    
C25   C32   A    
C51   C57   A    
C44   C46   D    
O4    P4    D    
C60   C65   S    
O19   P6    D    
C49   C50   A    
C16   H28   S    
C30   C33   A    
C5    C6    S    
C17   C20   A    
C62   H44   S    
C63   O26   D    
Ba1   P2    S    
C40   H35   S    
C45   H2    S    
C42   H40   S    
C63   H47   S    
C4    H15   S    
O1    P1    D    
O11   P5    S    
C26   C37   A    
C74   H66   S    
O15   P7    S    
C20   P8    S    
O16   P8    D    
C68   O30   D    
C49   C72   S    
C27   C28   A    
C59   O2    S    
C50   C57   A    
C47   H37   S    
C22   P4    S    
C7    O17   S    
C29   C30   A    
C41   P1    S    
C65   H51   S    
C73   H65   S    
C11   H25   S    
C34   O7    S    
C31   C32   A    
C60   H10   S    
Ba1   O13   S    
Ba1   O22   S    
C4    H14   S    
O13   P2    S    
C66   H52   S    
C7    H21   S    
C56   C61   S    
O3    P3    S    
C46   C47   S    
C5    H19   S    
C29   H30   S    
C3    C67   S    
C11   C13   A    
C70   H56   S    
C40   C41   A    
C54   H38   S    
C38   H33   S    
C1    C2    S    
C6    C68   S    
O24   P3    D    
C12   O3    S    
C64   H50   S    
C37   C38   A    
C42   C43   S    
C33   C35   A    
C59   H7    S    
O2    P2    S    
C52   C53   A    
Ba2   O6    S    
C64   H49   S    
C32   C36   A    
Ba1   O23   S    
C62   H45   S    
C28   H29   S    
C6    C69   S    
C23   H17   S    
C9    C10   A    
C23   H42   S    
C43   P3    S    
C8    C71   S    
C61   H43   S    
C56   O20   S    
C34   C76   S    
C57   H41   S    
C30   C31   A    
C53   C55   S    
C76   H68   S    
C12   C23   S    
C68   H54   S    
C36   C38   A    
C8    H24   S    
C18   C24   A    
C55   H36   S    
Ba2   O4    S    
O10   P5    D    
C75   O34   D    
O20   P1    S    
C49   C53   A    
C65   O27   D    
O17   P8    S    
C59   C60   S    
C1    H11   S    
C72   O32   D    
C76   H69   S    
C73   H63   S    
C7    H22   S    
C43   C44   S    
O7    P4    S    
C18   C19   A    
C58   H6    S    
C70   H58   S    
C14   C16   A    
C47   C48   D    
C25   C26   A    
C20   C21   A    
C13   H26   S    
O8    P7    S    
C1    H16   S    
C56   C58   S    
C45   H3    S    
C58   C63   S    
O14   P7    D    
Ba1   O1    S    
C5    H18   S    
C71   H61   S    
C15   C19   A    
