data_mof_unit_48785.cif
_audit_creation_date              2012-12-11T15:53:51-0500
_audit_creation_method            fapswitch 2.2
_symmetry_space_group_name_H-M    P1
_symmetry_Int_Tables_number       1
_space_group_crystal_system       triclinic
_cell_length_a                    10.704995
_cell_length_b                    10.668854
_cell_length_c                    17.050331
_cell_angle_alpha                 80.778808
_cell_angle_beta                  99.388197
_cell_angle_gamma                 118.392849
_cell_volume                      1682.44045218

loop_
_atom_site_label
_atom_site_type_symbol
_atom_type_description
_atom_site_fract_x
_atom_site_fract_y
_atom_site_fract_z
_atom_type_partial_charge
C1    C     C_R   0.361617 0.229858 0.627581 0.547460
C2    C     C_R   0.505212 0.701459 0.735770 -0.147089
C3    C     C_R   0.481973 0.716002 0.811243 -0.116014
C4    C     C_3   0.088014 0.467785 0.772966 -0.064268
C5    C     C_3   0.116002 0.449171 0.691687 -0.243122
C6    C     C_R   0.388441 0.631749 0.680191 0.022984
C7    C     C_1   0.850122 0.669331 0.702679 -0.051800
C8    C     C_1   0.897151 0.703454 0.769347 -0.052932
C9    C     C_1   0.345500 0.188116 0.709898 -0.035071
C10   C     C_1   0.320492 0.159969 0.778186 -0.025524
C11   C     C_1   0.337596 0.661701 0.277352 -0.025349
C12   C     C_R   0.412254 0.621556 0.601491 0.557391
C13   C     C_1   0.324953 0.671626 0.206581 -0.012250
C14   C     C_R   0.930424 0.712573 0.177270 0.018872
C15   C     C_R   0.973934 0.633298 0.238737 -0.050943
C16   C     C_R   0.937474 0.616044 0.315251 -0.014439
C17   C     C_R   0.830272 0.773226 0.273896 -0.110422
C18   C     C_R   0.865795 0.789671 0.196785 -0.135026
C19   C     C_3   0.954537 0.482976 0.245770 -0.058950
C20   C     C_3   0.916650 0.465425 0.330273 -0.231529
C21   C     C_R   0.855766 0.677015 0.332285 0.052755
C22   C     C_R   0.275853 0.068643 0.179653 -0.008283
C23   C     C_R   0.781075 0.621097 0.626253 0.541940
C24   C     C_R   0.168741 0.079013 0.211107 -0.073659
C25   C     C_R   0.184931 0.109327 0.287971 0.024516
C26   C     C_R   0.407863 0.100734 0.312720 -0.129363
C27   C     C_R   0.393179 0.066869 0.234356 0.029153
C28   C     C_3   0.083641 0.160137 0.182716 -0.057812
C29   C     C_3   0.102017 0.192737 0.268808 -0.040446
C30   C     C_R   0.310969 0.136071 0.336573 0.002773
C31   C     C_R   0.947231 0.724563 0.851594 0.550555
C32   C     C_R   0.315732 0.705244 0.899572 0.555435
C33   C     C_R   0.283985 0.114032 0.857670 0.588602
C34   C     C_R   0.349287 0.222124 0.401918 0.567336
C35   C     C_R   0.955705 0.718961 0.095427 0.536586
C36   C     C_R   0.313204 0.700519 0.123594 0.565067
C37   C     C_R   0.250886 0.043902 0.095523 0.538182
C38   C     C_R   0.366378 0.653237 0.360468 0.571157
C39   C     C_R   0.775351 0.623970 0.401159 0.564727
C40   C     C_R   0.341684 0.661276 0.831213 0.060932
C41   C     C_R   0.228063 0.601911 0.772992 -0.020366
C42   C     C_R   0.250792 0.586636 0.699376 -0.005888
Cr1   Cr    Cr6+3 0.608440 0.389080 0.519680 1.035234
Cr2   Cr    Cr6+3 0.288640 0.400090 0.490760 1.030010
Cr3   Cr    Cr6+3 0.602940 0.710800 0.489510 1.041038
Cr4   Cr    Cr6+3 0.052530 0.947560 0.964210 1.047455
Cr5   Cr    Cr6+3 0.059970 0.626800 0.992920 1.064386
Cr6   Cr    Cr6+3 0.373320 0.938440 0.995370 1.080871
H1    H     H_    0.613512 0.743645 0.720962 0.138508
H2    H     H_    0.805056 0.384210 0.339599 0.190386
H3    H     H_    0.998438 0.455529 0.376496 0.140072
H4    H     H_    0.502745 0.113948 0.352271 0.168834
H5    H     H_    0.572925 0.771795 0.853286 0.156825
H6    H     H_    0.996869 0.491616 0.769680 0.129619
H7    H     H_    0.136902 0.356635 0.691041 0.163394
H8    H     H_    0.038653 0.459356 0.642280 0.146828
H9    H     H_    0.768022 0.822800 0.284845 0.151794
H10   H     H_    0.831184 0.852822 0.151277 0.144997
H11   H     H_    0.055261 0.478573 0.243848 0.111250
O1    O     O_R   0.754020 0.497590 0.609930 -0.506766
O2    O     O_R   0.295080 0.533620 0.397890 -0.521029
O3    O     O_R   0.485280 0.746620 0.388440 -0.462754
O4    O     O_R   0.720550 0.696220 0.420010 -0.503989
O5    O     O_3   0.500010 0.499990 0.499980 -0.283959
O6    O     O_R   0.163320 0.092900 0.874450 -0.479640
O7    O     O_R   0.934650 0.822080 0.882840 -0.488110
O8    O     O_R   0.915520 0.604140 0.893670 -0.483580
O9    O     O_R   0.191760 0.638110 0.923230 -0.518039
O10   O     O_R   0.406180 0.826930 0.920660 -0.513704
O11   O     O_R   0.358620 0.062870 0.901950 -0.486358
O12   O     O_R   0.481420 0.271390 0.600630 -0.487837
O13   O     O_R   0.163910 0.085460 0.050210 -0.476294
O14   O     O_R   0.935200 0.815170 0.045770 -0.514594
O15   O     O_R   0.916120 0.596690 0.069430 -0.455022
O16   O     O_R   0.192310 0.631200 0.086170 -0.513797
O17   O     O_R   0.406770 0.819480 0.096420 -0.496688
O18   O     O_R   0.359170 0.055960 0.064880 -0.435618
O19   O     O_3   0.161940 0.837600 0.984160 -0.345447
O20   O     O_R   0.263810 0.254550 0.589590 -0.518418
O21   O     O_R   0.300820 0.531200 0.560890 -0.504126
O22   O     O_R   0.491480 0.744020 0.564270 -0.503338
O23   O     O_R   0.726290 0.693800 0.583010 -0.514845
O24   O     O_R   0.747830 0.500190 0.434090 -0.523838
O25   O     O_R   0.475680 0.273800 0.437630 -0.503634
O26   O     O_R   0.257620 0.257160 0.413750 -0.492792
C43   C     C_2   0.834110 0.388123 0.189877 0.686670
O27   O     O_2   0.715001 0.378933 0.186543 -0.463361
O28   O     O_R   0.863574 0.319754 0.137373 -0.627213
H12   H     H_    0.783194 0.277426 0.093849 0.373292
C44   C     C_2   0.509132 0.040785 0.215489 0.618802
O29   O     O_2   0.569568 0.097265 0.155342 -0.441786
O30   O     O_R   0.559352 0.960890 0.271617 -0.685815
H13   H     H_    0.631472 0.942229 0.250556 0.353807
H14   H     H_    0.971624 0.090652 0.160288 0.136135
C45   C     C_2   0.156444 0.292553 0.126677 0.626436
O31   O     O_2   0.281815 0.378061 0.141790 -0.509309
O32   O     O_R   0.079752 0.314143 0.055960 -0.636920
H15   H     H_    0.140014 0.403415 0.021785 0.374479
H16   H     H_    0.166577 0.308540 0.277430 0.129343
C46   C     C_2   0.967789 0.122705 0.310365 0.545128
O33   O     O_2   0.870613 0.152017 0.285226 -0.519987
O34   O     O_R   0.957250 0.030288 0.379995 -0.682288
H17   H     H_    0.863561 0.994126 0.403436 0.342876
C47   C     C_2   0.078986 0.348134 0.836047 0.600360
O35   O     O_2   0.182453 0.359656 0.882962 -0.490031
O36   O     O_R   0.948990 0.223646 0.840944 -0.681057
H18   H     H_    0.952433 0.152195 0.887133 0.357279

loop_
_geom_bond_atom_site_label_1
_geom_bond_atom_site_label_2
_ccdc_geom_bond_type
C31   O7    A    
C5    C42   S    
C35   O15   A    
C16   C21   A    
C23   O23   A    
Cr1   O24   S    
C41   C42   A    
C14   C18   A    
C5    H8    S    
C45   O31   D    
Cr6   O10   S    
C19   C43   S    
C47   O36   S    
O32   H15   S    
C33   O6    A    
C7    C8    T    
Cr2   O5    S    
C15   C19   S    
C26   C27   A    
C1    O12   A    
C28   C45   S    
C28   C29   S    
C2    H1    S    
Cr4   O7    S    
C20   H3    S    
C6    C12   S    
C43   O28   S    
Cr3   O23   S    
C4    C41   S    
C15   C16   A    
C4    C47   S    
Cr3   O3    S    
C27   C44   S    
C28   H14   S    
Cr6   O19   S    
Cr6   O17   S    
O30   H13   S    
C20   H2    S    
C36   O17   A    
C18   H10   S    
C19   C20   S    
C9    C10   T    
Cr4   O13   S    
C32   O9    A    
C38   O2    A    
C3    H5    S    
Cr1   O25   S    
C2    C6    A    
C34   O25   A    
Cr5   O8    S    
C47   O35   D    
Cr1   O5    S    
C25   C29   S    
C23   O1    A    
C30   C34   S    
Cr2   O21   S    
C1    C9    S    
C24   C25   A    
Cr4   O6    S    
C14   C35   S    
Cr4   O19   S    
C29   H16   S    
C43   O27   D    
C19   H11   S    
C22   C37   S    
C37   O18   A    
Cr3   O4    S    
C17   C21   A    
C34   O26   A    
Cr6   O18   S    
C11   C38   S    
C31   O8    A    
C36   O16   A    
C26   H4    S    
C44   O30   S    
C21   C39   S    
C16   C20   S    
C46   O34   S    
C17   C18   A    
O36   H18   S    
C33   O11   A    
C13   C36   S    
Cr1   O1    S    
C40   C41   A    
C3    C40   A    
C26   C30   A    
C22   C27   A    
C1    O20   A    
C22   C24   A    
Cr2   O26   S    
Cr5   O9    S    
C25   C30   A    
C35   O14   A    
Cr1   O12   S    
C29   C46   S    
C4    H6    S    
C8    C31   S    
C5    H7    S    
Cr2   O20   S    
Cr3   O22   S    
C24   C28   S    
Cr5   O15   S    
Cr6   O11   S    
C4    C5    S    
C45   O32   S    
C32   O10   A    
Cr2   O2    S    
C39   O4    A    
Cr3   O5    S    
C2    C3    A    
Cr5   O16   S    
C11   C13   T    
C44   O29   D    
C7    C23   S    
C12   O21   A    
C46   O33   D    
C12   O22   A    
C10   C33   S    
C32   C40   S    
O34   H17   S    
C39   O24   A    
O28   H12   S    
C6    C42   A    
C37   O13   A    
C14   C15   A    
Cr5   O19   S    
Cr4   O14   S    
C17   H9    S    
C38   O3    A    
