data_mof_unit_43541.cif
_audit_creation_date              2012-10-26T21:01:32-0400
_audit_creation_method            fapswitch 2.2
_symmetry_space_group_name_H-M    P1
_symmetry_Int_Tables_number       1
_space_group_crystal_system       triclinic
_cell_length_a                    15.878364
_cell_length_b                    13.06933
_cell_length_c                    11.694822
_cell_angle_alpha                 100.933416
_cell_angle_beta                  94.364145
_cell_angle_gamma                 90.927116
_cell_volume                      2374.7811868

loop_
_atom_site_label
_atom_site_type_symbol
_atom_type_description
_atom_site_fract_x
_atom_site_fract_y
_atom_site_fract_z
_atom_type_partial_charge
C1    C     C_R   0.505325 0.299072 0.477623 0.547482
C2    C     C_R   0.493830 0.967429 0.443763 -0.013620
C3    C     C_R   0.418814 0.401808 0.018077 -0.049244
C4    C     C_R   0.581188 0.598174 0.981931 -0.049272
C5    C     C_R   0.426817 0.411424 0.141281 0.138076
C6    C     C_R   0.573205 0.588547 0.858726 0.138104
C7    C     C_R   0.534812 0.541903 0.159130 0.059996
C8    C     C_R   0.465181 0.458098 0.840870 0.059921
C9    C     C_R   0.529407 0.535556 0.035736 -0.017308
C10   C     C_R   0.470584 0.464440 0.964266 -0.017255
C11   C     C_R   0.339723 0.499383 0.499588 0.557395
C12   C     C_R   0.494718 0.700939 0.522381 0.547157
C13   C     C_R   0.660276 0.500642 0.500408 0.557084
C14   C     C_3   0.969264 0.410614 0.522817 -0.108913
C15   C     C_3   0.030727 0.590167 0.476667 -0.109450
C16   C     C_3   0.016952 0.421297 0.415152 0.020817
C17   C     C_3   0.983012 0.579506 0.584303 0.020816
C18   C     C_1   0.250013 0.497661 0.498209 -0.018356
C19   C     C_1   0.749980 0.502578 0.501743 -0.018342
C20   C     C_3   0.036075 0.485075 0.602718 -0.107230
C21   C     C_3   0.963872 0.515709 0.396769 -0.107675
C22   C     C_3   0.082683 0.495167 0.494472 0.027094
C23   C     C_R   0.504165 0.010578 0.342537 -0.032997
C24   C     C_3   0.917286 0.505612 0.505015 0.027164
C25   C     C_1   0.174398 0.496021 0.496163 -0.066413
C26   C     C_1   0.825585 0.504463 0.503607 -0.066353
C27   C     C_R   0.486289 0.815445 0.536466 -0.040735
C28   C     C_R   0.513862 0.184591 0.463546 -0.040588
C29   C     C_R   0.026375 0.330083 0.317033 0.027182
C30   C     C_R   0.953457 0.273812 0.261917 -0.095023
C31   C     C_R   0.959692 0.188971 0.170395 -0.103871
C32   C     C_R   0.038723 0.159667 0.132858 -0.098878
C33   C     C_R   0.111564 0.215234 0.186797 -0.094624
C34   C     C_R   0.496066 0.989463 0.657467 -0.033058
C35   C     C_R   0.105617 0.300138 0.278517 -0.080482
C36   C     C_R   0.973595 0.671006 0.682080 0.027151
C37   C     C_R   0.046744 0.724497 0.740446 -0.095248
C38   C     C_R   0.040525 0.809769 0.831459 -0.103863
C39   C     C_R   0.961259 0.842453 0.865035 -0.098749
C40   C     C_R   0.888159 0.789872 0.807594 -0.094525
C41   C     C_R   0.894101 0.704471 0.716462 -0.080185
C42   C     C_1   0.428261 0.800975 0.331634 0.235697
C43   C     C_1   0.572085 0.199070 0.668327 0.235424
C44   C     C_1   0.479182 0.839045 0.752738 0.250674
C45   C     C_R   0.510552 0.119103 0.352092 -0.045317
C46   C     C_1   0.520963 0.161000 0.247256 0.250828
C47   C     C_1   0.514897 0.945056 0.229492 0.225983
C48   C     C_1   0.485386 0.055005 0.770515 0.226069
C49   C     C_1   0.626736 0.653174 0.805254 0.295277
C50   C     C_1   0.373397 0.346690 0.194771 0.293954
C51   C     C_1   0.357347 0.327727 0.948074 0.184374
C52   C     C_1   0.642664 0.672238 0.051945 0.185004
C53   C     C_R   0.489612 0.880936 0.647909 -0.045496
C54   C     C_R   0.526279 0.139458 0.563739 -0.036244
C55   C     C_R   0.473981 0.860595 0.436281 -0.036239
C56   C     C_R   0.506419 0.032616 0.556250 -0.013631
Cu1   Cu    Cu3+1 0.506200 0.507730 0.615930 1.000910
Cu2   Cu    Cu3+1 0.493800 0.492270 0.384070 1.000747
H1    H     H_    0.943547 0.336817 0.542229 0.119599
H2    H     H_    0.172687 0.192463 0.157325 0.151304
H3    H     H_    0.162885 0.341742 0.318081 0.139173
H4    H     H_    0.108681 0.700076 0.715360 0.116585
H5    H     H_    0.097183 0.850511 0.875919 0.122805
H6    H     H_    0.956460 0.908504 0.935486 0.111892
H7    H     H_    0.826827 0.815452 0.833749 0.150470
H8    H     H_    0.836593 0.665557 0.673751 0.138953
H9    H     H_    0.056458 0.663967 0.457280 0.120098
H10   H     H_    0.933705 0.528610 0.312070 0.123590
H11   H     H_    0.066228 0.472164 0.687423 0.123072
H12   H     H_    0.420699 0.404104 0.784392 0.147495
H13   H     H_    0.579301 0.595887 0.215607 0.147362
H14   H     H_    0.891690 0.295708 0.289945 0.116369
H15   H     H_    0.903227 0.145996 0.128536 0.122569
H16   H     H_    0.043532 0.094020 0.061933 0.112065
N1    N     N_R   0.515540 0.519350 0.790140 -0.253866
N2    N     N_1   0.330431 0.294207 0.236700 -0.325367
N3    N     N_1   0.308319 0.268652 0.892328 -0.280393
N4    N     N_1   0.691697 0.731299 0.107703 -0.279681
N5    N     N_R   0.484460 0.480650 0.209860 -0.253733
N6    N     N_1   0.391468 0.753359 0.248770 -0.266450
N7    N     N_1   0.608967 0.246656 0.751134 -0.266363
N8    N     N_1   0.470249 0.806624 0.836661 -0.252209
N9    N     N_1   0.529885 0.193420 0.163329 -0.252071
N10   N     N_1   0.523720 0.893590 0.139335 -0.229229
N11   N     N_1   0.476602 0.106493 0.860673 -0.229132
N12   N     N_1   0.669824 0.705559 0.763375 -0.325406
O1    O     O_R   0.504400 0.354460 0.582000 -0.499995
O2    O     O_R   0.495600 0.645540 0.418000 -0.500051
O3    O     O_R   0.493920 0.341410 0.386200 -0.488605
O4    O     O_R   0.506080 0.658590 0.613800 -0.488852
O5    O     O_R   0.384320 0.506520 0.597880 -0.505203
O6    O     O_R   0.615680 0.493480 0.402120 -0.505342
O7    O     O_R   0.373840 0.493460 0.402080 -0.491462
O8    O     O_R   0.626160 0.506540 0.597920 -0.491185

loop_
_geom_bond_atom_site_label_1
_geom_bond_atom_site_label_2
_ccdc_geom_bond_type
C1    O1    A    
C11   C18   S    
C42   N6    T    
C16   C21   S    
C23   C45   A    
C37   H4    S    
C6    N1    A    
C45   C46   S    
C34   C56   A    
C39   H6    S    
C37   C38   A    
C4    C52   S    
C12   O4    A    
C36   C37   A    
Cu2   O7    S    
C24   C26   S    
C44   N8    T    
C2    C55   A    
C32   H16   S    
C38   C39   A    
C27   C55   A    
C31   H15   S    
C17   C20   S    
C7    C9    A    
C14   C24   S    
C19   C26   T    
C44   C53   S    
C15   C22   S    
C22   C25   S    
C1    C28   S    
C1    O3    A    
C17   C36   S    
C5    N5    A    
C9    C10   A    
C11   O7    A    
C36   C41   A    
C18   C25   T    
C52   N4    T    
C54   C56   A    
C28   C45   A    
C17   C24   S    
C23   C47   S    
Cu1   O4    S    
C12   O2    A    
C12   C27   S    
C14   C20   S    
C4    C6    A    
C39   C40   A    
C28   C54   A    
C13   C19   S    
C16   C29   S    
C8    N1    A    
Cu1   O1    S    
C51   N3    T    
C29   C30   A    
C14   H1    S    
C50   N2    T    
C42   C55   S    
C43   C54   S    
C31   C32   A    
C15   H9    S    
C35   H3    S    
C47   N10   T    
Cu2   N5    S    
C40   C41   A    
C20   C22   S    
C33   H2    S    
C40   H7    S    
C21   H10   S    
C43   N7    T    
C14   C16   S    
C20   H11   S    
C34   C48   S    
C7    N5    A    
C38   H5    S    
C15   C17   S    
C16   C22   S    
Cu1   O5    S    
C49   N12   T    
C3    C5    A    
Cu2   O2    S    
C30   H14   S    
C27   C53   A    
C41   H8    S    
C29   C35   A    
C8    H12   S    
C13   O8    A    
Cu1   O8    S    
C32   C33   A    
Cu1   N1    S    
C13   O6    A    
C3    C10   A    
C2    C56   A    
C7    H13   S    
Cu1   Cu2   S    
C30   C31   A    
C33   C35   A    
C3    C51   S    
C6    C49   S    
C5    C50   S    
Cu2   O3    S    
C46   N9    T    
C11   O5    A    
C15   C21   S    
C34   C53   A    
C8    C10   A    
C21   C24   S    
C2    C23   A    
C48   N11   T    
C4    C9    A    
Cu2   O6    S    
