data_mof_unit_15679.cif
_audit_creation_date              2012-10-26T18:54:56-0400
_audit_creation_method            fapswitch 2.2
_symmetry_space_group_name_H-M    P1
_symmetry_Int_Tables_number       1
_space_group_crystal_system       triclinic
_cell_length_a                    10.928559
_cell_length_b                    9.523628
_cell_length_c                    10.82835
_cell_angle_alpha                 90.907376
_cell_angle_beta                  90.100335
_cell_angle_gamma                 90.358433
_cell_volume                      1126.8442798

loop_
_atom_site_label
_atom_site_type_symbol
_atom_type_description
_atom_site_fract_x
_atom_site_fract_y
_atom_site_fract_z
_atom_type_partial_charge
C1    C     C_R   0.262348 0.499475 0.500723 0.621805
C2    C     C_R   0.484779 0.628348 0.940676 0.029455
C3    C     C_R   0.493344 0.495864 0.129037 0.053307
C4    C     C_R   0.477892 0.503126 0.870860 0.020466
C5    C     C_R   0.461937 0.373268 0.062221 -0.101750
C6    C     C_R   0.456423 0.376343 0.933257 -0.097849
C7    C     C_3   0.567581 0.754312 0.932109 0.142207
C8    C     C_3   0.603406 0.729881 0.066421 0.138619
C9    C     C_R   0.060433 0.378084 0.472887 0.192131
C10   C     C_R   0.937789 0.374800 0.506675 0.190161
C11   C     C_R   0.873075 0.503121 0.509078 -0.075782
C12   C     C_R   0.738331 0.500988 0.503343 0.624116
C13   C     C_R   0.128955 0.499078 0.505706 -0.071732
C14   C     C_R   0.942152 0.630463 0.518323 0.176163
C15   C     C_R   0.066470 0.620009 0.547278 0.173093
C16   C     C_R   0.449941 0.072228 0.404012 0.077510
C17   C     C_R   0.551019 0.076188 0.595154 0.117697
C18   C     C_R   0.448527 0.923593 0.404717 0.054332
C19   C     C_R   0.552798 0.927726 0.594050 0.132747
C20   C     C_R   0.500327 0.498625 0.262283 0.604582
C21   C     C_R   0.494525 0.501158 0.737780 0.579562
C22   C     C_R   0.504974 0.620414 0.065629 0.000681
Cu1   Cu    Cu3+1 0.500000 0.640660 0.500000 1.118676
Cu2   Cu    Cu3+1 0.500000 0.359340 0.500000 1.114116
H1    H     H_    0.446952 0.274711 0.108521 0.145962
H2    H     H_    0.220756 0.695482 0.832600 0.393649
H3    H     H_    0.409723 0.126088 0.327016 0.144375
H4    H     H_    0.591137 0.133123 0.672034 0.180517
H5    H     H_    0.406220 0.866440 0.328708 0.151628
H6    H     H_    0.595596 0.873523 0.669257 0.170980
H7    H     H_    0.440610 0.278891 0.882745 0.193313
H8    H     H_    0.641991 0.743094 0.862877 0.158459
H9    H     H_    0.586312 0.817836 0.132667 0.171952
H10   H     H_    0.354132 0.030880 0.032275 0.368938
H11   H     H_    0.854687 0.537495 0.213051 0.380356
H12   H     H_    0.227995 0.226698 0.212589 0.352563
H13   H     H_    0.796560 0.185457 0.756053 0.385033
H14   H     H_    0.750834 0.893322 0.365846 0.373927
N1    N     N_R   0.500000 0.852070 0.500000 -0.246008
N2    N     N_R   0.500000 0.147940 0.500000 -0.243186
O1    O     O_R   0.319640 0.618740 0.499990 -0.453280
O2    O     O_2   0.395955 0.901556 0.809242 -0.243219
O3    O     O_3   0.396497 0.940891 0.046328 -0.551697
O4    O     O_2   0.778951 0.558986 0.970877 -0.260183
O5    O     O_2   0.846775 0.774277 0.078544 -0.186727
O6    O     O_3   0.767809 0.566241 0.209795 -0.496826
O7    O     O_2   0.183893 0.135399 0.456385 -0.192283
O8    O     O_2   0.013669 0.166396 0.312141 -0.188127
O9    O     O_3   0.214397 0.304825 0.272363 -0.555540
O10   O     O_2   0.807434 0.136042 0.488034 -0.230297
O11   O     O_2   0.987037 0.134516 0.624227 -0.144083
O12   O     O_R   0.680360 0.618740 0.500010 -0.447335
O13   O     O_3   0.795204 0.267484 0.700954 -0.522477
O14   O     O_2   0.819418 0.855261 0.599791 -0.254997
O15   O     O_2   0.989133 0.897991 0.457663 -0.116106
O16   O     O_3   0.789237 0.799427 0.365237 -0.453431
O17   O     O_2   0.203945 0.852327 0.593482 -0.156029
O18   O     O_2   0.034975 0.805929 0.735586 -0.176195
O19   O     O_3   0.228048 0.650148 0.749967 -0.521258
O20   O     O_R   0.319620 0.381170 0.499990 -0.444779
O21   O     O_R   0.680380 0.381170 0.500010 -0.439728
O22   O     O_R   0.499990 0.618810 0.319660 -0.515826
O23   O     O_R   0.500010 0.618810 0.680340 -0.492372
O24   O     O_R   0.499960 0.381240 0.319650 -0.514624
O25   O     O_R   0.500040 0.381240 0.680350 -0.515427
O26   O     O_2   0.567606 0.033860 0.902017 -0.326574
S1    S     S_3+6 0.480611 0.912853 0.918340 -0.035885
S2    S     S_3+6 0.754510 0.656604 0.078458 0.047063
S3    S     S_3+6 0.117820 0.239426 0.378075 0.092832
S4    S     S_3+6 0.882058 0.221119 0.578946 0.118786
S5    S     S_3+6 0.884773 0.800960 0.487143 0.137187
S6    S     S_3+6 0.133047 0.739191 0.657577 0.142666

loop_
_geom_bond_atom_site_label_1
_geom_bond_atom_site_label_2
_ccdc_geom_bond_type
C2    C22   A    
C8    C22   S    
C18   N1    A    
O3    S1    S    
O6    S2    S    
Cu2   O21   S    
C4    C21   S    
O11   S4    D    
C14   S5    S    
O19   S6    S    
O5    S2    D    
C2    C4    A    
C2    C7    S    
Cu1   O1    S    
O8    S3    D    
Cu2   O20   S    
O16   S5    S    
H13   O13   S    
C20   O24   A    
C16   H3    S    
Cu1   O23   S    
O26   S1    D    
O10   S4    D    
C7    C8    S    
Cu2   O24   S    
C18   H5    S    
O9    S3    S    
C12   O21   A    
C19   H6    S    
O18   S6    D    
Cu1   O12   S    
O2    S1    D    
C19   N1    A    
Cu2   O25   S    
C16   N2    A    
Cu1   N1    S    
O13   S4    S    
C10   S4    S    
C9    C10   A    
C4    C6    A    
C12   O12   A    
C15   S6    S    
C8    S2    S    
C8    H9    S    
C13   C15   A    
O17   S6    D    
C20   O22   A    
C5    C6    A    
C11   C14   A    
C5    H1    S    
C21   O23   A    
C1    C13   S    
C10   C11   A    
O14   S5    D    
Cu1   Cu2   S    
C7    S1    S    
C3    C20   S    
H14   O16   S    
Cu2   N2    S    
C16   C18   A    
H2    O19   S    
C1    O20   A    
C1    O1    A    
C9    C13   A    
O4    S2    D    
O7    S3    D    
C3    C22   A    
C6    H7    S    
C7    H8    S    
C17   C19   A    
C14   C15   A    
C17   H4    S    
C21   O25   A    
H10   O3    S    
Cu1   O22   S    
O15   S5    D    
H12   O9    S    
C11   C12   S    
C9    S3    S    
C3    C5    A    
C17   N2    A    
H11   O6    S    
