data_mof_unit_30921.cif
_audit_creation_date              2013-03-05T15:50:31-0500
_audit_creation_method            fapswitch 2.2
_symmetry_space_group_name_H-M    P1
_symmetry_Int_Tables_number       1
_space_group_crystal_system       monoclinic
_cell_length_a                    19.186422
_cell_length_b                    7.209338
_cell_length_c                    17.670697
_cell_angle_alpha                 90.0
_cell_angle_beta                  109.017541
_cell_angle_gamma                 90.0
_cell_volume                      2310.82640358

loop_
_atom_site_label
_atom_site_type_symbol
_atom_site_description
_atom_site_fract_x
_atom_site_fract_y
_atom_site_fract_z
_atom_type_partial_charge
O1    O     O_R   0.562310 0.505770 0.439670 -0.595913
O2    O     O_R   0.437690 0.005770 0.560330 -0.595913
O3    O     O_R   0.411650 0.169150 0.405330 -0.570317
O4    O     O_R   0.588350 0.669150 0.594670 -0.570318
C1    C     C_R   0.385929 0.345608 0.381997 0.881131
C2    C     C_R   0.614071 0.845608 0.618003 0.881132
O5    O     O_R   0.560140 0.175610 0.430010 -0.589341
O6    O     O_R   0.439860 0.675610 0.569990 -0.589341
O7    O     O_R   0.587240 0.012100 0.585200 -0.587432
O8    O     O_R   0.412760 0.512100 0.414800 -0.587432
C3    C     C_R   0.581026 0.344550 0.415152 0.944840
C4    C     C_R   0.418974 0.844550 0.584847 0.944838
O9    O     O_3   0.508720 0.341420 0.550890 -0.266324
O10   O     O_3   0.491280 0.841420 0.449110 -0.266324
V1    V     V_3+5 0.498380 0.063930 0.490560 1.200660
V2    V     V_3+5 0.501620 0.563930 0.509440 1.200660
C5    C     C_R   0.175255 0.764133 0.869715 -0.139860
C6    C     C_R   0.824744 0.264133 0.130284 -0.139857
C7    C     C_R   0.127992 0.917364 0.862233 -0.318378
C8    C     C_R   0.872007 0.417365 0.137766 -0.318381
C9    C     C_R   0.128372 0.060272 0.806975 0.291621
C10   C     C_R   0.871627 0.560274 0.193023 0.291623
C11   C     C_R   0.177990 0.051115 0.762628 -0.019989
C12   C     C_R   0.822009 0.551116 0.237370 -0.019988
C13   C     C_R   0.224454 0.894689 0.770722 -0.002273
C14   C     C_R   0.775545 0.394689 0.229276 -0.002273
C15   C     C_R   0.222280 0.750217 0.823670 0.132273
C16   C     C_R   0.777719 0.250217 0.176329 0.132271
C17   C     C_R   0.181268 0.192873 0.708889 -0.125804
C18   C     C_R   0.818730 0.692876 0.291108 -0.125803
C19   C     C_R   0.230132 0.181394 0.665265 -0.237101
C20   C     C_R   0.769866 0.681397 0.334733 -0.237102
C21   C     C_R   0.275857 0.026362 0.672686 0.156762
C22   C     C_R   0.724142 0.526363 0.327312 0.156762
C23   C     C_R   0.272710 0.881418 0.725001 0.069630
C24   C     C_R   0.727289 0.381419 0.274998 0.069630
C25   C     C_R   0.317510 0.722777 0.731309 0.128223
C26   C     C_R   0.682489 0.222777 0.268691 0.128223
C27   C     C_R   0.314231 0.579559 0.783794 -0.200354
C28   C     C_R   0.685769 0.079559 0.216206 -0.200354
C29   C     C_R   0.267364 0.593587 0.829841 -0.146160
C30   C     C_R   0.732635 0.093587 0.170158 -0.146163
C31   C     C_R   0.324189 0.013527 0.628059 -0.233030
C32   C     C_R   0.675810 0.513528 0.371939 -0.233030
C33   C     C_R   0.368841 0.855725 0.633520 -0.144230
C34   C     C_R   0.631158 0.355725 0.366480 -0.144230
C35   C     C_R   0.364735 0.710140 0.685053 -0.208392
C36   C     C_R   0.635265 0.210139 0.314947 -0.208393
H1    H     H_    0.175843 0.654976 0.912123 0.174307
H2    H     H_    0.824157 0.154975 0.087876 0.174309
H3    H     H_    0.146380 0.314187 0.700149 0.183312
H4    H     H_    0.853617 0.814191 0.299847 0.183312
H5    H     H_    0.231725 0.293775 0.625115 0.140830
H6    H     H_    0.768273 0.793778 0.374883 0.140831
H7    H     H_    0.326052 0.125776 0.587919 0.139313
H8    H     H_    0.673947 0.625778 0.412080 0.139313
H9    H     H_    0.398961 0.588109 0.690015 0.163548
H10   H     H_    0.601039 0.088108 0.309986 0.163548
H11   H     H_    0.348004 0.456571 0.789328 0.156023
H12   H     H_    0.651996 0.956569 0.210672 0.156023
H13   H     H_    0.265987 0.480959 0.869950 0.152623
H14   H     H_    0.734013 0.980958 0.130050 0.152624
C37   C     C_3   0.774444 0.720688 0.816578 -0.423840
C38   C     C_3   0.225556 0.220688 0.183422 -0.423840
H15   H     H_    0.815117 0.614568 0.814760 0.258551
H16   H     H_    0.184883 0.114568 0.185240 0.258551
C39   C     C_3   0.702431 0.689705 0.744493 0.267174
C40   C     C_3   0.297569 0.189705 0.255507 0.267174
H17   H     H_    0.862029 0.805174 0.728844 0.164398
H18   H     H_    0.137971 0.305174 0.271156 0.164398
H19   H     H_    0.756531 0.783771 0.621224 0.156030
H20   H     H_    0.243468 0.283771 0.378776 0.156030
C41   C     C_3   0.824324 0.920440 0.731596 -0.263530
C42   C     C_3   0.175676 0.420440 0.268403 -0.263530
C43   C     C_3   0.750417 0.056967 0.816558 0.289036
C44   C     C_3   0.249582 0.556967 0.183441 0.289036
C45   C     C_3   0.810116 0.913011 0.813463 -0.171503
C46   C     C_3   0.189884 0.413011 0.186536 -0.171502
H21   H     H_    0.734550 0.027141 0.870691 0.081033
H22   H     H_    0.265450 0.527141 0.129308 0.081033
C47   C     C_3   0.684484 0.865486 0.690159 -0.145679
C48   C     C_3   0.315516 0.365486 0.309841 -0.145680
C49   C     C_3   0.751258 0.900294 0.660320 -0.436020
C50   C     C_3   0.248742 0.400294 0.339680 -0.436018
C51   C     C_3   0.679881 0.037884 0.741932 -0.350857
C52   C     C_3   0.320119 0.537884 0.258068 -0.350857
H23   H     H_    0.630164 0.030697 0.760839 0.189088
H24   H     H_    0.369836 0.530697 0.239161 0.189088
H25   H     H_    0.672702 0.165462 0.704725 0.218164
H26   H     H_    0.327298 0.665462 0.295274 0.218164
H27   H     H_    0.853534 0.049040 0.725223 0.233993
H28   H     H_    0.146466 0.549040 0.274777 0.233992
H29   H     H_    0.741988 0.028426 0.623215 0.195659
H30   H     H_    0.258012 0.528426 0.376785 0.195659
O11   O     O_R   0.087220 0.271820 0.085230 -0.601904
O12   O     O_R   0.912780 0.771820 0.914770 -0.601903
O13   O     O_R   0.939860 0.595540 0.069990 -0.560985
O14   O     O_R   0.060140 0.095540 0.930010 -0.560982
C53   C     C_R   0.920085 0.426743 0.086253 1.017385
C54   C     C_R   0.079914 0.926743 0.913747 1.017390
O15   O     O_R   0.088340 0.601930 0.094680 -0.526665
O16   O     O_R   0.911660 0.101930 0.905320 -0.526663
O17   O     O_R   0.062310 0.765410 0.939660 -0.585090
O18   O     O_R   0.937690 0.265410 0.060340 -0.585088
C55   C     C_R   0.116949 0.432176 0.116509 0.892263
C56   C     C_R   0.883051 0.932176 0.883491 0.892266
O19   O     O_3   0.991270 0.429630 0.949130 -0.251408
O20   O     O_3   0.008730 0.929630 0.050870 -0.251409
V3    V     V_3+5 0.001620 0.707150 0.009440 1.302651
V4    V     V_3+5 0.998380 0.207150 0.990560 1.302653
H31   H     H_    0.764203 0.704120 0.874681 0.210727
H32   H     H_    0.235797 0.204120 0.125319 0.210727
N1    N     N_R   0.640986 0.634673 0.772120 0.244020
O21   O     O_R   0.623066 0.732979 0.824741 -0.414940
O22   O     O_R   0.607620 0.477418 0.748853 -0.386836
N2    N     N_R   0.359014 0.134673 0.227879 0.244020
O23   O     O_R   0.376934 0.232978 0.175259 -0.414940
O24   O     O_R   0.392380 0.977418 0.251147 -0.386835
H33   H     H_    0.712678 0.574390 0.707572 0.126992
H34   H     H_    0.287321 0.074390 0.292428 0.126992
N3    N     N_R   0.778478 0.245901 0.823336 0.239778
O25   O     O_R   0.785318 0.340861 0.887978 -0.438262
O26   O     O_R   0.802400 0.313743 0.768200 -0.460082
N4    N     N_R   0.221522 0.745901 0.176664 0.239778
O27   O     O_R   0.214682 0.840861 0.112022 -0.438263
O28   O     O_R   0.197599 0.813743 0.231799 -0.460083
N5    N     N_R   0.075897 0.208756 0.792693 0.236754
O29   O     O_R   0.097703 0.376672 0.815217 -0.428191
O30   O     O_R   0.005774 0.174008 0.761696 -0.408112
N6    N     N_R   0.924101 0.708758 0.207305 0.236754
O31   O     O_R   0.902296 0.876672 0.184777 -0.428190
O32   O     O_R   0.994224 0.674012 0.238312 -0.408112

loop_
_geom_bond_atom_site_label_1
_geom_bond_atom_site_label_2
_geom_bond_distance
_ccdc_geom_bond_type
O18   V4    1.997115 S    
C37   H15   1.100753 S    
C28   H12   1.083664 S    
C44   C52   1.557669 S    
O1    C3    1.330018 A    
C29   H13   1.083758 S    
O2    C4    1.330019 A    
C2    O7    1.359135 A    
C27   C29   1.399185 A    
O20   V3    1.749883 S    
O5    C3    1.334711 A    
C46   C55   1.542732 S    
O14   V4    2.005657 S    
C11   C17   1.410341 A    
C45   C56   1.542732 S    
C23   C25   1.413099 A    
C44   C46   1.559759 S    
C17   H3    1.081415 S    
C52   H24   1.109922 S    
C38   H32   1.112885 S    
O15   V3    1.994816 S    
C49   H29   1.113028 S    
N2    O23   1.301326 A    
C6    C8    1.407845 A    
C42   H28   1.107909 S    
C43   C45   1.559760 S    
C15   C29   1.404897 A    
C18   H4    1.081414 S    
O11   C55   1.327349 A    
C47   C49   1.556464 S    
C43   C51   1.557669 S    
C40   N2    1.469913 S    
H18   C42   1.113185 S    
C19   C21   1.400381 A    
H17   C41   1.113183 S    
C25   C35   1.407135 A    
C30   H14   1.083758 S    
C26   C36   1.407134 A    
C28   C30   1.399185 A    
C53   O18   1.333182 A    
O6    V2    2.005854 S    
C2    C47   1.532574 S    
C10   N6    1.434451 S    
C20   H6    1.083899 S    
O13   C53   1.333593 A    
C32   C34   1.408427 A    
H19   C49   1.112995 S    
C33   C35   1.408483 A    
O15   C55   1.345293 A    
C37   C39   1.560278 S    
C51   H23   1.109922 S    
C5    C15   1.401617 A    
C6    C16   1.401617 A    
C41   H27   1.107908 S    
O4    C2    1.378147 A    
C52   H26   1.112731 S    
C5    H1    1.084198 S    
C51   H25   1.112731 S    
C5    C7    1.407845 A    
O5    V1    2.005859 S    
C48   C52   1.562756 S    
C54   O17   1.333182 A    
C38   H16   1.100753 S    
O4    V2    1.994845 S    
N6    O32   1.301016 A    
N5    O30   1.301012 A    
C18   C20   1.396802 A    
C35   H9    1.084139 S    
O13   V3    2.005652 S    
C32   H8    1.084345 S    
O6    C4    1.334712 A    
C27   H11   1.083664 S    
C22   C32   1.402478 A    
O1    V2    1.996825 S    
C50   H30   1.113029 S    
C19   H5    1.083898 S    
O2    V1    1.996819 S    
C31   C33   1.408426 A    
N3    O25   1.301149 A    
H20   C50   1.112996 S    
C13   C23   1.416563 A    
C14   C24   1.416561 A    
C8    C10   1.421126 A    
C39   C47   1.559136 S    
C48   C50   1.556465 S    
C9    C11   1.418077 A    
O19   V4    1.749883 S    
C10   C12   1.418075 A    
O16   V4    1.994816 S    
C9    N5    1.434453 S    
N5    O29   1.300151 A    
C38   C40   1.560278 S    
O3    V1    1.994842 S    
C6    H2    1.084198 S    
N4    O28   1.300205 A    
N1    O21   1.301326 A    
C37   C45   1.555141 S    
C31   H7    1.084345 S    
O12   C56   1.327350 A    
C7    C9    1.421128 A    
C43   N3    1.455155 S    
C38   C46   1.555141 S    
C44   H22   1.115229 S    
C42   C50   1.556276 S    
C4    C33   1.486799 S    
O3    C1    1.378147 A    
O11   V4    2.015680 S    
C7    C54   1.493753 S    
C36   H10   1.084139 S    
C13   C15   1.409749 A    
O12   V3    2.015679 S    
C14   C16   1.409748 A    
O17   V3    1.997118 S    
C40   C48   1.559136 S    
C24   C26   1.413100 A    
N6    O31   1.300151 A    
C39   N1    1.469914 S    
C1    O8    1.359135 A    
C25   C27   1.402932 A    
O8    V2    1.996226 S    
C40   H34   1.113123 S    
C26   C28   1.402933 A    
C1    C48   1.532574 S    
C12   C14   1.415584 A    
C8    C53   1.493754 S    
C43   H21   1.115229 S    
C16   C30   1.404897 A    
C21   C23   1.409429 A    
N2    O24   1.301007 A    
O16   C56   1.345293 A    
C22   C24   1.409430 A    
C11   C13   1.415584 A    
C37   H31   1.112885 S    
O14   C54   1.333594 A    
C12   C18   1.410340 A    
N3    O26   1.300205 A    
C44   N4    1.455156 S    
C34   C36   1.408483 A    
C17   C19   1.396800 A    
C42   C46   1.557874 S    
O9    V2    1.750231 S    
C41   C45   1.557874 S    
O10   V1    1.750231 S    
C3    C34   1.486799 S    
C21   C31   1.402479 A    
C39   H33   1.113123 S    
C41   C49   1.556276 S    
C47   C51   1.562757 S    
O7    V1    1.996226 S    
C20   C22   1.400381 A    
N4    O27   1.301149 A    
N1    O22   1.301006 A    
