data_mof_unit_61587.cif
_audit_creation_date              2012-12-10T21:29:47-0500
_audit_creation_method            fapswitch 2.2
_symmetry_space_group_name_H-M    P1
_symmetry_Int_Tables_number       1
_space_group_crystal_system       triclinic
_cell_length_a                    10.490448
_cell_length_b                    16.088138
_cell_length_c                    16.803749
_cell_angle_alpha                 87.884887
_cell_angle_beta                  89.863583
_cell_angle_gamma                 92.407145
_cell_volume                      2831.54363656

loop_
_atom_site_label
_atom_site_type_symbol
_atom_type_description
_atom_site_fract_x
_atom_site_fract_y
_atom_site_fract_z
_atom_type_partial_charge
Br1   Br    Br    0.653159 0.092643 0.624430 -0.450263
Br2   Br    Br    0.346843 0.907357 0.375569 -0.450264
Br3   Br    Br    0.770603 0.356590 0.350115 -0.434446
Br4   Br    Br    0.229398 0.643410 0.649885 -0.434451
Br5   Br    Br    0.267013 0.415230 0.085903 -0.317885
Br6   Br    Br    0.732991 0.584763 0.914097 -0.317886
C1    C     C_R   0.498059 0.489111 0.652526 0.895535
C2    C     C_R   0.524727 0.487428 0.100716 0.067075
C3    C     C_R   0.371101 0.478506 0.859046 -0.137055
C4    C     C_R   0.628902 0.521491 0.140954 -0.137054
C5    C     C_R   0.379393 0.463462 0.778609 0.419299
C6    C     C_R   0.620608 0.536537 0.221391 0.419296
C7    C     C_R   0.434179 0.759594 0.461360 0.540917
C8    C     C_R   0.565823 0.240406 0.538639 0.540918
C9    C     C_R   0.442030 0.848195 0.456412 0.055941
C10   C     C_R   0.557971 0.151805 0.543587 0.055941
C11   C     C_R   0.530732 0.891354 0.505230 0.248981
C12   C     C_R   0.501941 0.510889 0.347474 0.895542
C13   C     C_R   0.469268 0.108645 0.494771 0.248982
C14   C     C_R   0.611484 0.844552 0.554035 -0.298761
C15   C     C_R   0.388514 0.155448 0.445966 -0.298761
C16   C     C_R   0.739904 0.501188 0.486350 0.881806
C17   C     C_R   0.260096 0.498812 0.513650 0.881801
C18   C     C_R   0.602573 0.757421 0.555520 -0.091762
C19   C     C_R   0.397426 0.242579 0.444481 -0.091763
C20   C     C_R   0.887436 0.353148 0.438090 0.326710
C21   C     C_R   0.112564 0.646852 0.561910 0.326709
C22   C     C_R   0.936353 0.275876 0.458844 -0.155051
C23   C     C_R   0.495841 0.483946 0.738158 -0.321304
C24   C     C_R   0.063647 0.724124 0.541156 -0.155048
C25   C     C_R   0.037233 0.270665 0.512131 -0.189383
C26   C     C_R   0.962767 0.729335 0.487870 -0.189384
C27   C     C_R   0.096624 0.343222 0.539443 -0.094888
C28   C     C_R   0.903376 0.656778 0.460557 -0.094888
C29   C     C_R   0.052614 0.422153 0.515602 0.046537
C30   C     C_R   0.947386 0.577847 0.484399 0.046536
C31   C     C_R   0.937839 0.426276 0.473693 0.025227
C32   C     C_R   0.062162 0.573724 0.526307 0.025228
C33   C     C_R   0.122819 0.497082 0.529546 -0.177752
C34   C     C_R   0.504160 0.516054 0.261842 -0.321308
C35   C     C_R   0.877181 0.502918 0.470454 -0.177747
C36   C     C_R   0.603058 0.516970 0.779321 0.353475
C37   C     C_R   0.396944 0.483028 0.220679 0.353475
C38   C     C_R   0.591133 0.532714 0.859735 0.296013
C39   C     C_R   0.408870 0.467282 0.140266 0.296013
C40   C     C_R   0.475276 0.512567 0.899284 0.067075
H1    H     H_    0.926613 0.789392 0.470647 0.177105
H2    H     H_    0.822756 0.662597 0.420945 0.163705
H3    H     H_    0.282610 0.463400 0.890799 0.230011
H4    H     H_    0.717392 0.536597 0.109202 0.230010
H5    H     H_    0.276537 0.490386 0.309012 0.340234
H6    H     H_    0.723463 0.509613 0.690987 0.340234
H7    H     H_    0.288191 0.420446 0.686175 0.328255
H8    H     H_    0.711804 0.579564 0.313823 0.328253
H9    H     H_    0.720567 0.251193 0.601986 0.356332
H10   H     H_    0.279436 0.748807 0.398010 0.356333
H11   H     H_    0.073387 0.210608 0.529353 0.177105
H12   H     H_    0.682522 0.875752 0.590339 0.214742
H13   H     H_    0.317476 0.124248 0.409663 0.214742
H14   H     H_    0.666772 0.722009 0.592417 0.193274
H15   H     H_    0.333226 0.277990 0.407585 0.193274
H16   H     H_    0.897087 0.219826 0.432871 0.182856
H17   H     H_    0.102913 0.780174 0.567129 0.182856
H18   H     H_    0.177243 0.337404 0.579055 0.163708
N1    N     N_2   0.463219 0.522610 0.981111 -0.085078
N2    N     N_2   0.536785 0.477384 0.018890 -0.085075
N3    N     N_R   0.515300 0.716920 0.509720 -0.112694
N4    N     N_R   0.484700 0.283080 0.490280 -0.112694
N5    N     N_2   0.549994 0.980198 0.502309 -0.079389
N6    N     N_2   0.450005 0.019802 0.497691 -0.079389
O1    O     O_R   0.494530 0.422540 0.612660 -0.582385
O2    O     O_3   0.719036 0.537183 0.742558 -0.678066
O3    O     O_3   0.270158 0.432659 0.742124 -0.704822
O4    O     O_3   0.729842 0.567341 0.257876 -0.704819
O5    O     O_3   0.650163 0.286207 0.584167 -0.704383
O6    O     O_3   0.349838 0.713793 0.415831 -0.704384
O7    O     O_R   0.505470 0.577460 0.387340 -0.582388
O8    O     O_R   0.504350 0.561840 0.618900 -0.572711
O9    O     O_R   0.495650 0.438160 0.381100 -0.572709
O10   O     O_R   0.678310 0.430340 0.496890 -0.540919
O11   O     O_R   0.321690 0.569660 0.503110 -0.540918
O12   O     O_R   0.688140 0.569650 0.503130 -0.644906
O13   O     O_R   0.311860 0.430350 0.496870 -0.644905
O14   O     O_3   0.280965 0.462815 0.257441 -0.678066
Zn1   Zn    Zn3+2 0.493440 0.406980 0.495830 1.029873
Zn2   Zn    Zn3+2 0.506560 0.593020 0.504170 1.029871

loop_
_geom_bond_atom_site_label_1
_geom_bond_atom_site_label_2
_ccdc_geom_bond_type
C2    N2    S    
C1    C23   S    
C6    O4    S    
C23   C36   A    
C11   N5    S    
C17   O13   A    
H10   O6    S    
C16   O12   A    
C13   C15   A    
C15   H13   S    
C12   O7    A    
C1    O1    A    
C32   C33   A    
C16   C35   S    
C21   C32   A    
C11   C14   A    
C12   C34   S    
C2    C39   A    
C18   N3    A    
H8    O4    S    
C34   C37   A    
C14   C18   A    
C12   O9    A    
C25   C27   A    
O11   Zn2   S    
H9    O5    S    
O8    Zn2   S    
C3    C40   A    
O1    Zn1   S    
C24   H17   S    
C21   C24   A    
N4    Zn1   S    
C30   C35   A    
C19   N4    A    
C36   C38   A    
C38   C40   A    
C22   C25   A    
C3    H3    S    
C40   N1    S    
C5    O3    S    
C37   O14   S    
O12   Zn2   S    
Br5   C39   S    
C26   C28   A    
C6    C34   A    
C29   C33   A    
O10   Zn1   S    
H6    O2    S    
C3    C5    A    
C7    O6    S    
C18   H14   S    
C36   O2    S    
Br1   C10   S    
C19   H15   S    
Br2   C9    S    
C37   C39   A    
C4    C6    A    
C1    O8    A    
O13   Zn1   S    
O7    Zn2   S    
C7    C9    A    
C26   H1    S    
C8    C10   A    
C28   H2    S    
C14   H12   S    
C4    H4    S    
C27   H18   S    
O9    Zn1   S    
Br4   C21   S    
C7    N3    A    
C9    C11   A    
C15   C19   A    
N3    Zn2   S    
C17   O11   A    
C29   C31   A    
Br3   C20   S    
H7    O3    S    
C20   C31   A    
C20   C22   A    
C8    O5    S    
C25   H11   S    
C30   C32   A    
C16   O10   A    
C24   C26   A    
C10   C13   A    
C17   C33   S    
C27   C29   A    
C28   C30   A    
C31   C35   A    
N5    N6    D    
C5    C23   A    
C2    C4    A    
N1    N2    D    
C8    N4    A    
C13   N6    S    
Br6   C38   S    
H5    O14   S    
C22   H16   S    
