data_mof_unit_32569.cif
_audit_creation_date              2012-12-11T15:11:41-0500
_audit_creation_method            fapswitch 2.2
_symmetry_space_group_name_H-M    P1
_symmetry_Int_Tables_number       1
_space_group_crystal_system       triclinic
_cell_length_a                    20.166333
_cell_length_b                    7.107706
_cell_length_c                    13.500592
_cell_angle_alpha                 90.047863
_cell_angle_beta                  103.651361
_cell_angle_gamma                 89.916739
_cell_volume                      1880.45592635

loop_
_atom_site_label
_atom_site_type_symbol
_atom_type_description
_atom_site_fract_x
_atom_site_fract_y
_atom_site_fract_z
_atom_type_partial_charge
O1    O     O_R   0.449830 0.506740 0.599960 -0.531274
O2    O     O_R   0.550170 0.006740 0.400040 -0.535199
O3    O     O_R   0.588980 0.179860 0.596720 -0.557051
O4    O     O_R   0.411020 0.679860 0.403280 -0.557103
C1    C     C_R   0.616535 0.344469 0.618374 0.750518
C2    C     C_R   0.383581 0.844808 0.381252 0.747058
O5    O     O_R   0.452740 0.177340 0.612040 -0.542888
O6    O     O_R   0.547260 0.677340 0.387960 -0.545179
O7    O     O_R   0.412960 0.002070 0.415460 -0.540340
O8    O     O_R   0.587040 0.502070 0.584540 -0.536232
C3    C     C_R   0.436968 0.346485 0.639427 0.759118
C4    C     C_R   0.564001 0.845961 0.362054 0.758068
O9    O     O_3   0.487110 0.337570 0.435490 -0.386349
O10   O     O_3   0.512890 0.837570 0.564510 -0.376087
V1    V     V_3+5 0.502390 0.064650 0.511970 1.435734
V2    V     V_3+5 0.497610 0.564650 0.488030 1.435260
C5    C     C_R   0.613828 0.964468 0.118697 -0.296845
C6    C     C_R   0.384187 0.479858 0.879787 -0.280817
H1    H     H_    0.696688 0.992059 0.995350 0.139659
H2    H     H_    0.300638 0.512342 0.001138 0.140426
H3    H     H_    0.590335 0.012883 0.042369 0.122023
H4    H     H_    0.403422 0.546019 0.952994 0.107481
C7    C     C_R   0.603312 0.859458 0.283955 -0.140635
C8    C     C_R   0.397656 0.361264 0.718145 -0.137299
C9    C     C_R   0.935239 0.812974 0.317894 0.231621
C10   C     C_R   0.064809 0.306326 0.681843 0.231097
C11   C     C_R   0.900288 0.787571 0.396022 0.219063
C12   C     C_R   0.100192 0.276100 0.604541 0.215781
C13   C     C_R   0.828898 0.817448 0.376034 0.258445
C14   C     C_R   0.171607 0.305924 0.624617 0.260551
C15   C     C_R   0.790061 0.848808 0.273940 -0.013291
C16   C     C_R   0.209969 0.344852 0.726049 -0.012144
C17   C     C_R   0.826650 0.873643 0.196216 -0.081707
C18   C     C_R   0.172780 0.374436 0.802831 -0.079285
C19   C     C_R   0.716519 0.864152 0.245503 0.128479
C20   C     C_R   0.283473 0.364573 0.754618 0.125880
C21   C     C_R   0.684153 0.927536 0.145827 0.067264
C22   C     C_R   0.314578 0.436633 0.852658 0.082786
C23   C     C_R   0.721614 0.950989 0.072493 -0.144208
C24   C     C_R   0.276504 0.464508 0.924932 -0.142712
C25   C     C_R   0.791177 0.919767 0.096336 -0.101958
C26   C     C_R   0.207445 0.428592 0.901621 -0.110423
C27   C     C_R   0.673085 0.816677 0.310311 -0.301924
C28   C     C_R   0.327926 0.316315 0.691308 -0.298150
C29   C     C_R   0.573592 0.940287 0.189455 0.413486
C30   C     C_R   0.427204 0.443215 0.813209 0.421241
C31   C     C_R   0.898457 0.854712 0.218981 -0.144834
C32   C     C_R   0.101122 0.353041 0.780255 -0.142731
H5    H     H_    0.690849 0.745314 0.381722 0.206478
H6    H     H_    0.311076 0.242343 0.620526 0.203834
H7    H     H_    0.817280 0.937611 0.035595 0.108765
H8    H     H_    0.181018 0.450004 0.961707 0.107362
C33   C     C_3   0.238589 0.761427 0.136282 0.136915
C34   C     C_3   0.763103 0.249311 0.859663 0.134154
H9    H     H_    0.221611 0.613245 0.120802 0.130929
H10   H     H_    0.781593 0.101436 0.870580 0.139095
C35   C     C_3   0.311576 0.755615 0.208264 -0.489082
C36   C     C_3   0.690130 0.243644 0.788012 -0.487375
H11   H     H_    0.349447 0.824144 0.172028 0.186640
H12   H     H_    0.651773 0.303991 0.825536 0.184689
H13   H     H_    0.327949 0.606258 0.221603 0.139787
H14   H     H_    0.675153 0.094255 0.770908 0.141211
H15   H     H_    0.172930 0.599350 0.267863 0.156786
H16   H     H_    0.831246 0.111466 0.723419 0.156599
H17   H     H_    0.277932 0.601865 0.376767 0.057134
H18   H     H_    0.724721 0.108341 0.619585 0.057047
C37   C     C_3   0.187693 0.747886 0.287950 -0.445782
C38   C     C_3   0.813716 0.259322 0.707488 -0.441836
C39   C     C_3   0.214297 0.065625 0.221145 0.220618
C40   C     C_3   0.783954 0.565541 0.783025 0.215975
C41   C     C_3   0.187180 0.861383 0.189349 -0.035739
C42   C     C_3   0.813224 0.361299 0.809403 -0.035522
H19   H     H_    0.215661 0.146492 0.151206 0.107133
H20   H     H_    0.782063 0.639250 0.854935 0.104167
C43   C     C_3   0.312304 0.852830 0.311758 0.000431
C44   C     C_3   0.687964 0.351727 0.687400 -0.000490
C45   C     C_3   0.260100 0.750644 0.362227 0.296807
C46   C     C_3   0.740740 0.258394 0.634496 0.295871
C47   C     C_3   0.287964 0.059537 0.288801 -0.356268
C48   C     C_3   0.710228 0.558250 0.715616 -0.355370
H21   H     H_    0.322534 0.133011 0.248766 0.108668
H22   H     H_    0.674778 0.623819 0.757500 0.111416
H23   H     H_    0.291003 0.138323 0.361028 0.194928
H24   H     H_    0.706224 0.643608 0.645351 0.191440
H25   H     H_    0.148444 0.803400 0.325883 0.197981
H26   H     H_    0.851329 0.325533 0.670076 0.199219
O11   O     O_R   0.912980 0.203550 0.915410 -0.548153
O12   O     O_R   0.087020 0.703550 0.084590 -0.550083
O13   O     O_R   0.047270 0.535570 0.887960 -0.541688
O14   O     O_R   0.952730 0.035570 0.112040 -0.539692
C49   C     C_R   0.063178 0.367308 0.860831 0.783152
C50   C     C_R   0.936307 0.867709 0.138474 0.786455
O15   O     O_R   0.911030 0.532970 0.903270 -0.525831
O16   O     O_R   0.088970 0.032970 0.096730 -0.525761
O17   O     O_R   0.949820 0.708150 0.099970 -0.540269
O18   O     O_R   0.050180 0.208150 0.900030 -0.539583
C51   C     C_R   0.884273 0.365362 0.880461 0.761581
C52   C     C_R   0.115974 0.865338 0.118805 0.763532
O19   O     O_3   0.012900 0.375230 0.064480 -0.374945
O20   O     O_3   0.987100 0.875230 0.935520 -0.374727
V3    V     V_3+5 0.997610 0.648190 0.988040 1.521632
V4    V     V_3+5 0.002390 0.148190 0.011960 1.526114
O21   O     O_3   0.504119 0.980116 0.166157 -0.568354
C53   C     C_3   0.490758 0.160588 0.121948 0.094586
H27   H     H_    0.483656 0.149627 0.037962 0.130979
H28   H     H_    0.532199 0.263472 0.153491 0.119264
C54   C     C_3   0.425319 0.237028 0.143941 -0.732094
H29   H     H_    0.430134 0.241133 0.227526 0.234420
H30   H     H_    0.415829 0.382110 0.113679 0.167665
H31   H     H_    0.381538 0.146576 0.107304 0.207363
O22   O     O_3   0.497522 0.479998 0.835893 -0.565181
C55   C     C_3   0.524198 0.550440 0.935448 0.097897
H32   H     H_    0.509599 0.460818 0.994058 0.106245
H33   H     H_    0.506993 0.698052 0.941162 0.143587
C56   C     C_3   0.601530 0.546515 0.959795 -0.755113
H34   H     H_    0.620716 0.624889 0.901223 0.215198
H35   H     H_    0.622239 0.610996 0.035441 0.202011
H36   H     H_    0.619278 0.398410 0.964230 0.221724
O23   O     O_3   0.238536 0.843406 0.041238 -0.650841
H37   H     H_    0.264280 0.963222 0.053268 0.288642
O24   O     O_3   0.762596 0.319254 0.957125 -0.654048
H38   H     H_    0.738328 0.441495 0.948882 0.291874
O25   O     O_3   0.170466 0.166165 0.269488 -0.639955
H39   H     H_    0.174075 0.111204 0.337923 0.331729
O26   O     O_3   0.826516 0.675535 0.736948 -0.640561
H40   H     H_    0.822028 0.630521 0.666215 0.328806
O27   O     O_3   0.257648 0.846267 0.453800 -0.558595
C57   C     C_3   0.241558 0.720466 0.525363 0.094373
H41   H     H_    0.283040 0.614920 0.549074 0.147709
H42   H     H_    0.192166 0.648986 0.493070 0.151276
C58   C     C_3   0.234536 0.828871 0.619379 -0.648136
H43   H     H_    0.191157 0.928391 0.598567 0.239572
H44   H     H_    0.224311 0.730553 0.677711 0.182910
H45   H     H_    0.282255 0.907125 0.652252 0.223501
O28   O     O_3   0.740770 0.357767 0.543145 -0.558458
C59   C     C_3   0.754876 0.234599 0.468649 0.100487
H46   H     H_    0.716277 0.120096 0.451396 0.146771
H47   H     H_    0.807049 0.174746 0.494881 0.154354
C60   C     C_3   0.751530 0.341724 0.370305 -0.667256
H48   H     H_    0.790549 0.454093 0.383661 0.241563
H49   H     H_    0.761993 0.245115 0.311220 0.187054
H50   H     H_    0.700009 0.403992 0.342174 0.216518
O29   O     O_3   0.005571 0.801676 0.335923 -0.651092
H51   H     H_    0.025888 0.834998 0.407890 0.304277
O30   O     O_3   0.994488 0.294900 0.663324 -0.651881
H52   H     H_    0.974478 0.327699 0.591172 0.302837
O31   O     O_3   0.797176 0.818645 0.456160 -0.674055
H53   H     H_    0.831130 0.824919 0.522252 0.332705
O32   O     O_3   0.203735 0.300280 0.545032 -0.672601
H54   H     H_    0.169976 0.304275 0.478731 0.333923
O33   O     O_3   0.934135 0.729599 0.492456 -0.651800
H55   H     H_    0.973003 0.648299 0.486749 0.304277
O34   O     O_3   0.066774 0.212940 0.508917 -0.652745
H56   H     H_    0.027400 0.134688 0.515314 0.305946

loop_
_geom_bond_atom_site_label_1
_geom_bond_atom_site_label_2
_ccdc_geom_bond_type
C36   H14   S    
C47   H23   S    
C7    C29   A    
O18   V4    S    
C11   C13   A    
C38   H26   S    
C31   C50   S    
O31   H53   S    
C37   C45   S    
C48   H24   S    
C58   H45   S    
O2    C4    A    
C57   H41   S    
C2    O7    A    
C53   H28   S    
O12   V3    S    
C36   C44   S    
O25   H39   S    
C23   C25   A    
O5    C3    A    
C4    C7    S    
O28   C59   S    
C16   C20   A    
C19   C21   A    
C44   C46   S    
H2    C24   S    
C60   H50   S    
C35   H11   S    
O16   C52   A    
C36   H12   S    
O29   H51   S    
C3    C8    S    
C7    C27   A    
C39   C41   S    
O14   V4    S    
C29   O21   S    
C49   O18   A    
O22   C55   S    
C18   C26   A    
C56   H35   S    
C32   C49   S    
O1    C3    A    
C40   H20   S    
O33   H55   S    
C15   C17   A    
C39   H19   S    
O13   C49   A    
C19   C27   A    
C46   O28   S    
C9    C31   A    
C37   C41   S    
C45   O27   S    
C38   C42   S    
C24   C26   A    
O6    V2    S    
C22   C24   A    
C30   O22   S    
C54   H30   S    
C9    O29   S    
C59   C60   S    
C6    C30   A    
C55   H33   S    
C53   H27   S    
O30   H52   S    
H15   C37   S    
C42   C51   S    
C33   H9    S    
C38   C46   S    
H18   C46   S    
C41   C52   S    
C34   H10   S    
C37   H25   S    
H17   C45   S    
C40   C48   S    
C2    C43   S    
C48   H22   S    
O15   V3    S    
C47   H21   S    
C33   C35   S    
C27   H5    S    
C14   O32   S    
O5    V1    S    
C58   H44   S    
C50   O17   A    
C5    H3    S    
C16   C18   A    
O4    V2    S    
C10   O30   S    
O11   V4    S    
O15   C51   A    
O14   C50   A    
O6    C4    A    
C56   H36   S    
O20   V4    S    
O1    V2    S    
C5    C21   A    
O2    V1    S    
C43   C45   S    
O24   H38   S    
H1    C23   S    
C40   O26   S    
C59   H47   S    
O19   V3    S    
C34   O24   S    
C12   O34   S    
C17   C31   A    
C54   H31   S    
C15   C19   A    
C20   C28   A    
O4    C2    A    
C18   C32   A    
C54   H29   S    
O27   C57   S    
C33   C41   S    
C57   C58   S    
H16   C38   S    
O3    V1    S    
C60   H48   S    
C34   C36   S    
C28   H6    S    
C11   O33   S    
O13   V3    S    
C6    H4    S    
C44   C48   S    
C5    C29   A    
C59   H46   S    
O3    C1    A    
C57   H42   S    
C13   O31   S    
O23   H37   S    
C33   O23   S    
C35   H13   S    
C10   C32   A    
C9    C11   A    
C10   C12   A    
C8    C30   A    
C35   C43   S    
C1    C44   S    
C12   C14   A    
C6    C22   A    
C17   C25   A    
C1    O8    A    
C13   C15   A    
O8    V2    S    
O32   H54   S    
C14   C16   A    
C60   H49   S    
O26   H40   S    
C8    C28   A    
C20   C22   A    
O20   V3    S    
C55   H32   S    
C53   C54   S    
O7    V1    S    
C58   H43   S    
C39   C47   S    
O17   V3    S    
O19   V4    S    
C34   C42   S    
O16   V4    S    
C21   C23   A    
O9    V2    S    
O21   C53   S    
C39   O25   S    
O10   V1    S    
C40   C42   S    
O34   H56   S    
C43   C47   S    
C25   H7    S    
C55   C56   S    
O12   C52   A    
C56   H34   S    
C26   H8    S    
O11   C51   A    
