data_mof_unit_13421.cif
_audit_creation_date              2013-03-05T15:56:51-0500
_audit_creation_method            fapswitch 2.2
_symmetry_space_group_name_H-M    P1
_symmetry_Int_Tables_number       1
_space_group_crystal_system       triclinic
_cell_length_a                    21.237886
_cell_length_b                    21.68345
_cell_length_c                    13.696233
_cell_angle_alpha                 90.000859
_cell_angle_beta                  92.753675
_cell_angle_gamma                 89.999969
_cell_volume                      6299.97806289

loop_
_atom_site_label
_atom_site_type_symbol
_atom_site_description
_atom_site_fract_x
_atom_site_fract_y
_atom_site_fract_z
_atom_type_partial_charge
O1    O     O_R   0.064880 0.435140 0.582280 -0.581897
O2    O     O_R   0.935120 0.564860 0.417720 -0.589238
O3    O     O_R   0.935120 0.564860 0.582280 -0.589308
O4    O     O_R   0.064880 0.435140 0.417720 -0.590579
O5    O     O_R   0.935120 0.435140 0.417720 -0.582027
O6    O     O_R   0.064880 0.564860 0.582280 -0.588664
O7    O     O_R   0.064880 0.564860 0.417720 -0.592392
O8    O     O_R   0.935120 0.435140 0.582280 -0.593345
O9    O     O_R   0.564880 0.935140 0.582280 -0.582022
O10   O     O_R   0.435120 0.064860 0.417720 -0.588652
O11   O     O_R   0.435120 0.064860 0.582280 -0.592390
O12   O     O_R   0.564880 0.935140 0.417720 -0.593385
O13   O     O_R   0.435120 0.935140 0.417720 -0.582045
O14   O     O_R   0.564880 0.064860 0.582280 -0.589240
O15   O     O_R   0.564880 0.064860 0.417720 -0.589299
O16   O     O_R   0.435120 0.935140 0.582280 -0.590584
C1    C     C_R   0.086238 0.414568 0.501970 0.811627
C2    C     C_R   0.913260 0.584771 0.498269 0.826240
C3    C     C_R   0.913591 0.414723 0.498069 0.811810
C4    C     C_R   0.086759 0.584767 0.501659 0.826299
C5    C     C_R   0.586409 0.914723 0.501930 0.811828
C6    C     C_R   0.413243 0.084769 0.498343 0.826324
C7    C     C_R   0.413768 0.914563 0.498028 0.811694
C8    C     C_R   0.586739 0.084771 0.501731 0.826243
Cu1   Cu    Cu3+1 1.000000 0.500000 0.597420 0.928032
Cu2   Cu    Cu3+1 1.000000 0.500000 0.402580 0.927990
Cu3   Cu    Cu3+1 0.500000 0.000000 0.597420 0.927987
Cu4   Cu    Cu3+1 0.500000 1.000000 0.402580 0.927952
C9    C     C_R   0.140534 0.669595 0.421139 -0.292437
C10   C     C_R   0.856377 0.332750 0.580063 -0.288719
C11   C     C_R   0.860935 0.670916 0.577495 -0.290003
C12   C     C_R   0.143756 0.332842 0.419942 -0.286976
C13   C     C_R   0.639065 0.170915 0.422506 -0.290001
C14   C     C_R   0.356265 0.832827 0.580051 -0.287025
C15   C     C_R   0.359488 0.169614 0.578854 -0.292442
C16   C     C_R   0.643624 0.832750 0.419935 -0.288703
C17   C     C_R   0.135718 0.632740 0.504253 -0.129952
C18   C     C_R   0.864823 0.366283 0.494391 -0.143955
C19   C     C_R   0.864714 0.633107 0.495301 -0.131684
C20   C     C_R   0.134647 0.365812 0.505931 -0.144817
C21   C     C_R   0.635286 0.133108 0.504701 -0.131688
C22   C     C_R   0.365376 0.865793 0.494059 -0.144695
C23   C     C_R   0.364291 0.132747 0.495749 -0.129942
C24   C     C_R   0.635178 0.866284 0.505608 -0.143949
C25   C     C_R   0.178473 0.641314 0.585522 0.216413
C26   C     C_R   0.827540 0.352180 0.408479 0.213063
C27   C     C_R   0.821568 0.641316 0.414381 0.218494
C28   C     C_R   0.170736 0.350674 0.592588 0.212804
C29   C     C_R   0.678431 0.141318 0.585620 0.218492
C30   C     C_R   0.329304 0.850637 0.407394 0.212909
C31   C     C_R   0.321535 0.141318 0.414483 0.216404
C32   C     C_R   0.672461 0.852183 0.591520 0.213060
C33   C     C_R   0.222117 0.689939 0.584948 0.040655
C34   C     C_R   0.779628 0.307608 0.412443 0.046533
C35   C     C_R   0.778129 0.690149 0.414735 0.041185
C36   C     C_R   0.218475 0.305892 0.588968 0.045848
C37   C     C_R   0.721871 0.190151 0.585266 0.041186
C38   C     C_R   0.281569 0.805849 0.411014 0.045667
C39   C     C_R   0.277897 0.189949 0.415051 0.040651
C40   C     C_R   0.720373 0.807611 0.587555 0.046533
C41   C     C_R   0.227267 0.726083 0.499969 -0.021323
C42   C     C_R   0.772473 0.273505 0.499020 -0.020618
C43   C     C_R   0.773791 0.727046 0.499072 -0.022020
C44   C     C_R   0.226506 0.272571 0.501860 -0.020665
C45   C     C_R   0.726210 0.227046 0.500928 -0.022020
C46   C     C_R   0.273526 0.772543 0.498128 -0.020657
C47   C     C_R   0.272760 0.226106 0.500022 -0.021334
C48   C     C_R   0.727528 0.773506 0.500979 -0.020621
C49   C     C_R   0.186973 0.715047 0.416432 0.107862
C50   C     C_R   0.811852 0.285411 0.583247 0.106607
C51   C     C_R   0.814894 0.716767 0.581950 0.107394
C52   C     C_R   0.187988 0.285244 0.417005 0.105693
C53   C     C_R   0.685107 0.216765 0.418050 0.107393
C54   C     C_R   0.312035 0.785226 0.582988 0.105696
C55   C     C_R   0.313059 0.215078 0.583555 0.107861
C56   C     C_R   0.688149 0.785411 0.416752 0.106609
C57   C     C_R   0.261251 0.702362 0.668186 -0.186094
C58   C     C_R   0.738433 0.296972 0.330761 -0.195407
C59   C     C_R   0.738412 0.702059 0.331928 -0.186558
C60   C     C_R   0.258563 0.294195 0.671553 -0.194965
C61   C     C_R   0.761589 0.202062 0.668072 -0.186558
C62   C     C_R   0.241492 0.794138 0.328418 -0.194920
C63   C     C_R   0.238760 0.202367 0.331817 -0.186085
C64   C     C_R   0.761568 0.796977 0.669237 -0.195407
C65   C     C_R   0.805777 0.249713 0.668740 0.165888
C66   C     C_R   0.194079 0.749667 0.330187 0.165276
C67   C     C_R   0.194613 0.250040 0.331134 0.166127
C68   C     C_R   0.808952 0.752502 0.667342 0.165409
C69   C     C_R   0.305402 0.750032 0.668866 0.166136
C70   C     C_R   0.691048 0.252498 0.332657 0.165409
C71   C     C_R   0.694224 0.749710 0.331259 0.165895
C72   C     C_R   0.305970 0.249716 0.669788 0.165290
H1    H     H_    0.107820 0.661939 0.359345 0.184029
H2    H     H_    0.886150 0.343103 0.644244 0.183191
H3    H     H_    0.894148 0.663667 0.638790 0.184596
H4    H     H_    0.114738 0.343853 0.355253 0.185006
H5    H     H_    0.605851 0.163665 0.361211 0.184598
H6    H     H_    0.385274 0.843848 0.644745 0.185007
H7    H     H_    0.392205 0.161961 0.640645 0.184023
H8    H     H_    0.613851 0.843102 0.355754 0.183176
H9    H     H_    0.256968 0.675370 0.734100 0.179174
H10   H     H_    0.742542 0.323802 0.264680 0.182239
H11   H     H_    0.742195 0.674612 0.266373 0.180929
H12   H     H_    0.253608 0.320244 0.738213 0.182538
H13   H     H_    0.757805 0.174617 0.733627 0.180930
H14   H     H_    0.246460 0.820169 0.261746 0.182626
H15   H     H_    0.243034 0.175366 0.265909 0.179173
H16   H     H_    0.757460 0.823808 0.735318 0.182239
C73   C     C_R   0.055659 0.502349 0.797046 0.006922
C74   C     C_R   0.944371 0.498859 0.202806 0.004824
C75   C     C_R   0.944478 0.496375 0.788710 0.028536
C76   C     C_R   0.055606 0.502997 0.211383 0.028668
C77   C     C_R   0.555629 0.998860 0.797194 0.004824
C78   C     C_R   0.444340 0.002340 0.202955 0.007038
C79   C     C_R   0.444394 0.002995 0.788617 0.028670
C80   C     C_R   0.555522 0.996378 0.211289 0.028466
N1    N     N_R   1.000000 0.500000 0.743810 -0.192018
N2    N     N_R   0.000000 0.500000 0.256190 -0.191854
N3    N     N_R   0.500000 1.000000 0.743810 -0.191853
N4    N     N_R   0.500000 0.000000 0.256190 -0.192108
C81   C     C_R   0.942668 0.495041 0.891949 -0.038128
C82   C     C_R   0.057500 0.504898 0.108136 -0.039035
C83   C     C_R   0.057821 0.502520 0.900719 -0.034357
C84   C     C_R   0.942376 0.498494 0.099198 -0.034098
C85   C     C_R   0.442499 0.004893 0.891864 -0.039041
C86   C     C_R   0.557332 0.995041 0.108051 -0.038111
C87   C     C_R   0.557624 0.998495 0.900802 -0.034093
C88   C     C_R   0.442178 0.002511 0.099281 -0.034233
C89   C     C_R   0.000162 0.499844 0.948266 -0.011449
C90   C     C_R   0.000065 0.500319 0.051716 -0.009810
C91   C     C_R   0.499934 0.000316 0.948284 -0.009816
C92   C     C_R   0.499837 0.999840 0.051734 -0.011484
C93   C     C_R   0.885007 0.489332 0.939453 0.177414
C94   C     C_R   0.115094 0.511662 0.060787 0.176880
C95   C     C_R   0.115745 0.505681 0.957288 0.179249
C96   C     C_R   0.884464 0.496553 0.042674 0.175309
C97   C     C_R   0.384904 0.011655 0.939213 0.176850
C98   C     C_R   0.614993 0.989336 0.060547 0.177420
C99   C     C_R   0.615535 0.996557 0.957326 0.175306
C100  C     C_R   0.384254 0.005673 0.042713 0.179244
H17   H     H_    0.098054 0.504831 0.757359 0.139490
H18   H     H_    0.901788 0.497236 0.242151 0.140397
H19   H     H_    0.901709 0.495505 0.742783 0.148851
H20   H     H_    0.098354 0.503302 0.257383 0.148472
H21   H     H_    0.598212 0.997240 0.757849 0.140398
H22   H     H_    0.401946 0.004820 0.242644 0.139512
H23   H     H_    0.401646 0.003301 0.742617 0.148474
H24   H     H_    0.598291 0.995513 0.257217 0.148874
N5    N     N_2   0.182653 0.598470 0.664171 -0.451162
H25   H     H_    0.142740 0.593223 0.702865 0.266935
C101  C     C_3   0.216631 0.542537 0.643452 -0.707611
H26   H     H_    0.224278 0.515239 0.711304 0.223649
H27   H     H_    0.263610 0.553849 0.615812 0.244299
H28   H     H_    0.189710 0.514406 0.588060 0.215878
N6    N     N_2   0.836717 0.382226 0.317794 -0.453764
H29   H     H_    0.841418 0.429260 0.320523 0.258484
C102  C     C_3   0.878814 0.350721 0.254313 -0.663364
H30   H     H_    0.879392 0.375044 0.183103 0.221521
H31   H     H_    0.862498 0.302703 0.240417 0.227900
H32   H     H_    0.927491 0.349633 0.287675 0.246274
N7    N     N_2   0.816753 0.597913 0.336496 -0.452094
H33   H     H_    0.856917 0.590546 0.299227 0.267007
C103  C     C_3   0.780484 0.543465 0.357448 -0.710990
H34   H     H_    0.772922 0.515598 0.290098 0.225181
H35   H     H_    0.733463 0.556710 0.382949 0.245260
H36   H     H_    0.805624 0.515221 0.414640 0.215578
N8    N     N_2   0.160163 0.379509 0.683845 -0.452819
H37   H     H_    0.156159 0.426672 0.682924 0.258091
C104  C     C_3   0.116248 0.347572 0.743794 -0.658104
H38   H     H_    0.113745 0.371282 0.815284 0.220608
H39   H     H_    0.132140 0.299412 0.757601 0.226970
H40   H     H_    0.068392 0.346839 0.707409 0.245086
N9    N     N_2   0.683245 0.097917 0.663506 -0.452094
H41   H     H_    0.643082 0.090551 0.700774 0.267008
C105  C     C_3   0.719516 0.043469 0.642555 -0.710992
H42   H     H_    0.727077 0.015604 0.709905 0.225182
H43   H     H_    0.766537 0.056714 0.617056 0.245259
H44   H     H_    0.694377 0.015224 0.585362 0.215579
N10   N     N_2   0.339857 0.879474 0.316133 -0.452795
H45   H     H_    0.343831 0.926640 0.317034 0.258071
C106  C     C_3   0.383763 0.847558 0.256139 -0.658363
H46   H     H_    0.385789 0.870969 0.184299 0.220619
H47   H     H_    0.368188 0.799209 0.243050 0.227023
H48   H     H_    0.431766 0.847335 0.292098 0.245317
N11   N     N_2   0.317351 0.098471 0.335836 -0.451154
H49   H     H_    0.357260 0.093227 0.297131 0.266935
C107  C     C_3   0.283382 0.042534 0.356562 -0.707601
H50   H     H_    0.275724 0.015238 0.288708 0.223639
H51   H     H_    0.236408 0.053841 0.384225 0.244293
H52   H     H_    0.310315 0.014402 0.411937 0.215885
N12   N     N_2   0.663284 0.882230 0.682204 -0.453764
H53   H     H_    0.658583 0.929264 0.679476 0.258484
C108  C     C_3   0.621187 0.850725 0.745686 -0.663362
H54   H     H_    0.620611 0.875049 0.816897 0.221521
H55   H     H_    0.637504 0.802708 0.759580 0.227900
H56   H     H_    0.572510 0.849637 0.712325 0.246277
C109  C     C_3   0.846058 0.260876 0.761019 -0.889074
H57   H     H_    0.834602 0.228448 0.820393 0.233004
H58   H     H_    0.896586 0.254529 0.746152 0.234405
H59   H     H_    0.838259 0.308434 0.788007 0.233437
C110  C     C_3   0.152643 0.739539 0.238789 -0.884680
H60   H     H_    0.165583 0.770412 0.178214 0.232390
H61   H     H_    0.157434 0.691237 0.213208 0.234691
H62   H     H_    0.102704 0.749005 0.254165 0.235511
C111  C     C_3   0.154937 0.261728 0.238425 -0.889359
H63   H     H_    0.166637 0.229511 0.178895 0.232308
H64   H     H_    0.104272 0.255486 0.252468 0.234706
H65   H     H_    0.163088 0.309369 0.212089 0.234401
C112  C     C_3   0.851644 0.743615 0.757721 -0.884908
H66   H     H_    0.839679 0.775451 0.817612 0.231788
H67   H     H_    0.847132 0.695737 0.785315 0.236306
H68   H     H_    0.901309 0.752665 0.740215 0.235314
C113  C     C_3   0.345071 0.761728 0.761579 -0.889367
H69   H     H_    0.333367 0.729517 0.821112 0.232308
H70   H     H_    0.395738 0.755486 0.747546 0.234710
H71   H     H_    0.336918 0.809372 0.787904 0.234394
C114  C     C_3   0.648357 0.243609 0.242279 -0.884908
H72   H     H_    0.660323 0.275442 0.182387 0.231788
H73   H     H_    0.652868 0.195730 0.214685 0.236306
H74   H     H_    0.598692 0.252660 0.259784 0.235315
C115  C     C_3   0.653944 0.760872 0.238980 -0.889084
H75   H     H_    0.665399 0.728443 0.179606 0.233004
H76   H     H_    0.603415 0.754526 0.253846 0.234408
H77   H     H_    0.661743 0.808429 0.211992 0.233435
C116  C     C_3   0.347417 0.239600 0.761177 -0.884684
H78   H     H_    0.334491 0.270489 0.821742 0.232390
H79   H     H_    0.342621 0.191306 0.786783 0.234690
H80   H     H_    0.397355 0.249054 0.745780 0.235513
C117  C     C_3   0.825218 0.472197 0.880371 -0.896189
H81   H     H_    0.835298 0.436247 0.825534 0.219502
H82   H     H_    0.789324 0.450564 0.925449 0.247738
H83   H     H_    0.805109 0.513614 0.842818 0.233928
C118  C     C_3   0.174557 0.529225 0.120495 -0.893910
H84   H     H_    0.163812 0.564234 0.176469 0.220906
H85   H     H_    0.195472 0.487721 0.156729 0.232093
H86   H     H_    0.210073 0.552236 0.076368 0.247973
C119  C     C_3   0.177804 0.500843 0.907450 -0.915099
H87   H     H_    0.217728 0.487249 0.957844 0.250858
H88   H     H_    0.175633 0.463470 0.852345 0.225500
H89   H     H_    0.188572 0.545431 0.872186 0.241619
C120  C     C_3   0.822844 0.506030 0.092190 -0.910786
H90   H     H_    0.782913 0.518096 0.040816 0.251483
H91   H     H_    0.810745 0.464170 0.133902 0.234289
H92   H     H_    0.827182 0.546262 0.141934 0.231460
C121  C     C_3   0.325442 0.029216 0.879503 -0.893912
H93   H     H_    0.289914 0.052207 0.923630 0.247980
H94   H     H_    0.336186 0.064239 0.823553 0.220922
H95   H     H_    0.304542 0.987715 0.843240 0.232079
C122  C     C_3   0.674782 0.972204 0.119628 -0.896193
H96   H     H_    0.710677 0.950570 0.074550 0.247738
H97   H     H_    0.694891 0.013623 0.157178 0.233930
H98   H     H_    0.664705 0.936256 0.174466 0.219501
C123  C     C_3   0.677155 0.006036 0.907811 -0.910789
H99   H     H_    0.717085 0.018103 0.959186 0.251484
H100  H     H_    0.689256 0.964177 0.866096 0.234288
H101  H     H_    0.672816 0.046269 0.858070 0.231460
C124  C     C_3   0.322194 0.000840 0.092549 -0.915143
H102  H     H_    0.282275 0.987227 0.042158 0.250846
H103  H     H_    0.324366 0.963482 0.147675 0.225440
H104  H     H_    0.311418 0.045435 0.127787 0.241637

loop_
_geom_bond_atom_site_label_1
_geom_bond_atom_site_label_2
_geom_bond_distance
_ccdc_geom_bond_type
C63   C67   1.395322 A    
C102  H30   1.109376 S    
O8    Cu1   1.972846 S    
O10   Cu4   1.986710 S    
O5    Cu2   1.986717 S    
C58   H10   1.082965 S    
C110  H61   1.110599 S    
C104  H38   1.109438 S    
C57   H9    1.083387 S    
C103  H34   1.107953 S    
C14   C22   1.399089 A    
C28   C36   1.406462 A    
C14   H6    1.081358 S    
C98   C122  1.518709 S    
O9    C5    1.290136 A    
C74   N2    1.359418 A    
C29   N9    1.422529 S    
N7    H33   1.027363 S    
O15   Cu4   1.972843 S    
C45   C53   1.415977 A    
C12   C52   1.397471 A    
C106  H46   1.109842 S    
O10   C6    1.292607 A    
C114  H74   1.110334 S    
C26   N6    1.424213 S    
C113  H71   1.110503 S    
C10   C18   1.399270 A    
C122  H96   1.107957 S    
C115  H75   1.110826 S    
C7    C22   1.473824 S    
C96   C120  1.516601 S    
O12   Cu4   1.972848 S    
C54   C69   1.414784 A    
C27   C35   1.404571 A    
C103  H35   1.111411 S    
C39   C63   1.404257 A    
C53   C70   1.413620 A    
C124  H102  1.107238 S    
C115  H77   1.110560 S    
C35   C59   1.404479 A    
C38   C62   1.405750 A    
C123  H99   1.106983 S    
N11   C107  1.446325 S    
O6    Cu1   1.986714 S    
N6    C102  1.447978 S    
C77   H21   1.075329 S    
C46   C54   1.415634 A    
C79   H23   1.079929 S    
C112  H68   1.110335 S    
C29   C37   1.404572 A    
O13   C7    1.289364 A    
O3    C2    1.294052 A    
C109  H58   1.110393 S    
C120  H90   1.106984 S    
C110  H60   1.110821 S    
C101  H28   1.110329 S    
O14   C8    1.291604 A    
C74   H18   1.075328 S    
C67   C111  1.511206 S    
C70   C114  1.511170 S    
C16   C56   1.397748 A    
C74   C84   1.417659 A    
C77   N3    1.359415 A    
C33   C41   1.411775 A    
C41   C46   1.408229 A    
C38   C46   1.412073 A    
C82   C94   1.419308 A    
C6    C23   1.469992 S    
C11   C19   1.398048 A    
C75   C81   1.416639 A    
C108  H55   1.110875 S    
C35   C43   1.411739 A    
C93   C96   1.422974 A    
C101  H26   1.107212 S    
C36   C44   1.412086 A    
O13   Cu4   1.986717 S    
O11   Cu3   1.972847 S    
O14   Cu3   1.986714 S    
C71   C115  1.511257 S    
C15   C23   1.398616 A    
C118  H84   1.110342 S    
C10   C50   1.397748 A    
C114  H73   1.110535 S    
C59   C71   1.395541 A    
C12   C20   1.399073 A    
C75   H19   1.079898 S    
C10   H2    1.081447 S    
C39   C47   1.411784 A    
C24   C32   1.419688 A    
O16   Cu3   1.972846 S    
C11   C51   1.397867 A    
N10   C106  1.448181 S    
C25   C33   1.404136 A    
C102  H31   1.110875 S    
C80   C86   1.416636 A    
C121  H93   1.107670 S    
C83   C89   1.415483 A    
C101  H27   1.111418 S    
O1    Cu1   1.986710 S    
C8    C21   1.469400 S    
C104  H39   1.110879 S    
C42   C50   1.415677 A    
C59   H11   1.083371 S    
C87   C99   1.422074 A    
C15   H7    1.081702 S    
C88   C92   1.415489 A    
C21   C29   1.414940 A    
N7    C103  1.445949 S    
C116  H78   1.110821 S    
C105  H44   1.110653 S    
C9    C49   1.397979 A    
N9    C105  1.445950 S    
C81   C93   1.419441 A    
C117  H83   1.110108 S    
C97   C100  1.424204 A    
C61   H13   1.083371 S    
C122  H97   1.110109 S    
O8    C3    1.297934 A    
C18   C26   1.419688 A    
C100  C124  1.516750 S    
C84   C96   1.422076 A    
C73   N1    1.359680 A    
N12   H53   1.025241 S    
C107  H52   1.110329 S    
C44   C47   1.408226 A    
Cu2   N2    2.004992 S    
O3    Cu1   1.972847 S    
C103  H36   1.110652 S    
C78   H22   1.075209 S    
C105  H43   1.111410 S    
Cu4   N4    2.004992 S    
C106  H47   1.111286 S    
C81   C89   1.416435 A    
N8    H37   1.026215 S    
C80   H24   1.079898 S    
C73   C83   1.418470 A    
C73   H17   1.075206 S    
C34   C42   1.411848 A    
N5    C101  1.446324 S    
C85   C97   1.419310 A    
Cu1   Cu2   2.668573 S    
N9    H41   1.027360 S    
C19   C27   1.414940 A    
O12   C5    1.297937 A    
C58   C70   1.394959 A    
C80   N4    1.358113 A    
N8    C104  1.448170 S    
C83   C95   1.423637 A    
C120  H91   1.109225 S    
C1    C20   1.473859 S    
C30   C38   1.406473 A    
C60   C72   1.395278 A    
C109  H59   1.110560 S    
C33   C57   1.404261 A    
C2    C19   1.469399 S    
N12   C108  1.447979 S    
C76   C82   1.417194 A    
C117  H81   1.110403 S    
C31   N11   1.422017 S    
C3    C18   1.474281 S    
C102  H32   1.110261 S    
C76   N2    1.358360 A    
C5    C24   1.474281 S    
C78   C88   1.418474 A    
C85   C91   1.415736 A    
C123  H100  1.109225 S    
C105  H42   1.107951 S    
C60   H12   1.082998 S    
C86   C92   1.416437 A    
C108  H56   1.110259 S    
C57   C69   1.395327 A    
C26   C34   1.406318 A    
C112  H66   1.110840 S    
C119  H89   1.109481 S    
C84   C90   1.414985 A    
O2    Cu2   1.986710 S    
C78   N4    1.359684 A    
C76   H20   1.079928 S    
C118  H85   1.110096 S    
C66   C110  1.511227 S    
C113  H69   1.110846 S    
C55   C72   1.413773 A    
C22   C30   1.420022 A    
O5    C3    1.290139 A    
O4    C1    1.298448 A    
C13   C53   1.397868 A    
O15   C8    1.294050 A    
C12   H4    1.081357 S    
C43   C51   1.415980 A    
C72   C116  1.511224 S    
C108  H54   1.109375 S    
O16   C7    1.298459 A    
C79   N3    1.358364 A    
C68   C112  1.511170 S    
C121  H94   1.110336 S    
C117  H82   1.107958 S    
C104  H40   1.110348 S    
C37   C61   1.404479 A    
C15   C55   1.397985 A    
C47   C55   1.415817 A    
C17   C25   1.414523 A    
C116  H80   1.110307 S    
N6    H29   1.025241 S    
C52   C67   1.414783 A    
O9    Cu3   1.986710 S    
C69   C113  1.511206 S    
C89   C90   1.417015 A    
C111  H65   1.110503 S    
C65   C109  1.511257 S    
C20   C28   1.420030 A    
C111  H63   1.110846 S    
C43   C48   1.408321 A    
C86   C98   1.419440 A    
C122  H98   1.110401 S    
C106  H48   1.110709 S    
C42   C45   1.408321 A    
C99   C123  1.516601 S    
C110  H62   1.110307 S    
C64   C68   1.394958 A    
C37   C45   1.411739 A    
O2    C2    1.291600 A    
C93   C117  1.518710 S    
Cu1   N1    2.004992 S    
C123  H101  1.107992 S    
O4    Cu2   1.972848 S    
C119  H87   1.107242 S    
C16   H8    1.081449 S    
C94   C95   1.424199 A    
C77   C87   1.417659 A    
Cu3   N3    2.004992 S    
N10   H45   1.026224 S    
C48   C56   1.415675 A    
O6    C4    1.292610 A    
C32   N12   1.424212 S    
O11   C6    1.293278 A    
O1    C1    1.289389 A    
C36   C60   1.405731 A    
C75   N1    1.358119 A    
C120  H92   1.107993 S    
C41   C49   1.415816 A    
C124  H104  1.109478 S    
C119  H88   1.106827 S    
C30   N10   1.424956 S    
C88   C100  1.423640 A    
C113  H70   1.110408 S    
C13   C21   1.398051 A    
C107  H50   1.107214 S    
C115  H76   1.110392 S    
C62   C66   1.395266 A    
N5    H25   1.027391 S    
C9    H1    1.081700 S    
C4    C17   1.470013 S    
C40   C64   1.405753 A    
C23   C31   1.414514 A    
N11   H49   1.027395 S    
C28   N8    1.424948 S    
O7    Cu2   1.972843 S    
C11   H3    1.081734 S    
C79   C85   1.417196 A    
C114  H72   1.110842 S    
C116  H79   1.110599 S    
C94   C118  1.519658 S    
C63   H15   1.083386 S    
C50   C65   1.414733 A    
C25   N5    1.422008 S    
C62   H14   1.082996 S    
C109  H57   1.110826 S    
C118  H86   1.107690 S    
C87   C91   1.414988 A    
C107  H51   1.111418 S    
C16   C24   1.399267 A    
C98   C99   1.422973 A    
C56   C71   1.414733 A    
C51   C68   1.413619 A    
C27   N7    1.422530 S    
C95   C119  1.516750 S    
C64   H16   1.082964 S    
C31   C39   1.404130 A    
C40   C48   1.411848 A    
C32   C40   1.406316 A    
O7    C4    1.293283 A    
C121  H95   1.110079 S    
C9    C17   1.398612 A    
Cu3   Cu4   2.668573 S    
C112  H67   1.110536 S    
C14   C54   1.397483 A    
C13   H5    1.081733 S    
C124  H103  1.106812 S    
C97   C121  1.519660 S    
C111  H64   1.110409 S    
C82   C90   1.415739 A    
C61   C65   1.395539 A    
C49   C66   1.413763 A    
C91   C92   1.417016 A    
C44   C52   1.415642 A    
C34   C58   1.405752 A    
