data_mof_unit_52126.cif
_audit_creation_date              2013-03-05T16:00:12-0500
_audit_creation_method            fapswitch 2.2
_symmetry_space_group_name_H-M    P1
_symmetry_Int_Tables_number       1
_space_group_crystal_system       triclinic
_cell_length_a                    12.604336
_cell_length_b                    13.354654
_cell_length_c                    23.423568
_cell_angle_alpha                 92.451819
_cell_angle_beta                  101.447748
_cell_angle_gamma                 83.524846
_cell_volume                      3838.87685439

loop_
_atom_site_label
_atom_site_type_symbol
_atom_site_description
_atom_site_fract_x
_atom_site_fract_y
_atom_site_fract_z
_atom_type_partial_charge
O1    O     O_R   0.366740 0.627150 0.485570 -0.633346
O2    O     O_R   0.544830 0.662520 0.504870 -0.628116
C1    C     C_R   0.440060 0.690150 0.495398 0.989194
O3    O     O_R   0.410930 0.482340 0.574190 -0.579747
O4    O     O_R   0.589010 0.517710 0.593490 -0.609767
C2    C     C_R   0.501582 0.496194 0.610344 0.975186
Zn1   Zn    Zn3+2 0.381090 0.476380 0.487110 1.038197
Zn2   Zn    Zn3+2 0.618910 0.523620 0.512890 1.068812
O5    O     O_R   0.455170 0.337480 0.495130 -0.589546
O6    O     O_R   0.633260 0.372850 0.514430 -0.588446
O7    O     O_R   0.410990 0.482290 0.406510 -0.598956
O8    O     O_R   0.589070 0.517660 0.425810 -0.559592
C3    C     C_R   0.559505 0.309032 0.508186 1.008296
C4    C     C_R   0.500811 0.497127 0.389851 1.064534
C5    C     C_R   0.616627 0.480198 0.132555 0.615661
N1    N     N_R   0.519219 0.491022 0.150165 -0.327854
C6    C     C_R   0.422259 0.506183 0.112352 0.600603
C7    C     C_R   0.419843 0.514730 0.052694 -0.133051
C8    C     C_R   0.519728 0.495429 0.032625 -0.069124
C9    C     C_R   0.619933 0.477147 0.072690 -0.109704
C10   C     C_R   0.321151 0.538886 0.012392 0.329318
C11   C     C_R   0.322036 0.537223 0.953151 -0.190761
C12   C     C_R   0.419057 0.514310 0.932783 -0.062132
C13   C     C_R   0.518745 0.493894 0.972284 -0.036254
C14   C     C_R   0.616584 0.471254 0.951219 -0.110924
C15   C     C_R   0.716936 0.456174 0.991320 0.185651
C16   C     C_R   0.718775 0.458435 0.051467 0.171460
C17   C     C_R   0.418402 0.513291 0.873197 0.559059
N2    N     N_R   0.512417 0.486794 0.853332 -0.343253
C18   C     C_R   0.609448 0.462451 0.890383 0.534493
O9    O     O_2   0.708662 0.471971 0.173483 -0.535504
O10   O     O_2   0.329157 0.510981 0.132988 -0.477451
H1    H     H_    0.245817 0.555723 0.922999 0.223132
O11   O     O_2   0.324611 0.539013 0.835206 -0.516563
O12   O     O_2   0.697250 0.427366 0.867831 -0.555468
C19   C     C_R   0.445452 0.423263 0.754543 -0.126683
H2    H     H_    0.399371 0.372798 0.772332 0.190897
C20   C     C_R   0.443619 0.422148 0.694714 0.310432
C21   C     C_R   0.505947 0.487728 0.672709 -0.145317
C22   C     C_R   0.573944 0.547099 0.711191 -0.158827
H3    H     H_    0.626582 0.593344 0.695603 0.224364
C23   C     C_R   0.574467 0.547993 0.770282 -0.078725
H4    H     H_    0.625527 0.596194 0.799312 0.167752
C24   C     C_R   0.509929 0.486566 0.792109 0.224424
C25   C     C_R   0.524471 0.579053 0.242657 -0.173021
H5    H     H_    0.532540 0.647201 0.221098 0.203513
C26   C     C_R   0.514720 0.583069 0.300721 0.276166
C27   C     C_R   0.502483 0.493676 0.327803 -0.293915
C28   C     C_R   0.503859 0.400189 0.296508 0.155501
C29   C     C_R   0.506922 0.399196 0.236805 0.271508
C30   C     C_R   0.518624 0.488997 0.210789 0.096835
C31   C     C_R   0.711897 0.066000 0.572160 -0.195823
H6    H     H_    0.698311 0.894764 0.620599 0.183750
H7    H     H_    0.783464 0.042450 0.604663 0.186369
C32   C     C_R   0.592375 0.200823 0.518692 -0.180416
C33   C     C_R   0.319143 0.822763 0.440688 -0.185225
C34   C     C_R   0.318224 0.910269 0.410161 0.351820
C35   C     C_R   0.400747 0.972301 0.429442 -0.180300
C36   C     C_R   0.472662 0.956856 0.483789 0.024246
C37   C     C_R   0.474381 0.867756 0.513862 -0.037752
C38   C     C_R   0.543522 0.028400 0.508732 0.070050
C39   C     C_R   0.633930 0.999383 0.552575 0.014755
C40   C     C_R   0.636524 0.910370 0.581890 -0.262826
C41   C     C_R   0.549970 0.850744 0.567432 0.305785
C42   C     C_R   0.516102 0.130966 0.497741 0.145401
C43   C     C_R   0.693466 0.166199 0.554499 0.283165
C44   C     C_R   0.404421 0.796569 0.487704 -0.088529
H8    H     H_    0.262936 0.768545 0.422789 0.203362
H9    H     H_    0.408373 0.032876 0.401859 0.206132
C45   C     C_R   0.099484 0.322446 0.439500 -0.317557
H10   H     H_    0.915125 0.265292 0.447146 0.193615
H11   H     H_    0.075859 0.258498 0.411613 0.177300
N3    N     N_R   0.222200 0.444670 0.469780 -0.137852
C46   C     C_R   0.796227 0.636706 0.564968 -0.078382
C47   C     C_R   0.902344 0.657267 0.588915 0.070883
C48   C     C_R   0.991343 0.594949 0.574448 0.303623
C49   C     C_R   0.972092 0.514963 0.532918 -0.150103
C50   C     C_R   0.861926 0.492601 0.513304 0.080885
C51   C     C_R   0.055293 0.459220 0.506662 0.040888
C52   C     C_R   0.031866 0.368501 0.475768 0.078667
C53   C     C_R   0.931734 0.334019 0.472228 -0.158950
C54   C     C_R   0.844445 0.403912 0.478036 0.342808
C55   C     C_R   0.156557 0.493282 0.504263 0.006442
C56   C     C_R   0.190422 0.367262 0.433324 0.309257
N4    N     N_R   0.776960 0.554790 0.529910 -0.130408
H12   H     H_    0.183336 0.560406 0.526923 0.182612
H13   H     H_    0.728462 0.682605 0.577764 0.180876
N5    N     N_R   0.220042 0.570657 0.030441 0.246106
O13   O     O_R   0.211144 0.652582 0.062048 -0.306092
O14   O     O_R   0.132207 0.531193 0.005479 -0.376626
N6    N     N_R   0.516919 0.678464 0.331429 0.230819
O15   O     O_R   0.448326 0.704447 0.365445 -0.433087
O16   O     O_R   0.575826 0.745395 0.318953 -0.319779
N7    N     N_R   0.513969 0.305643 0.325565 0.257149
O17   O     O_R   0.458724 0.293894 0.365530 -0.417626
O18   O     O_R   0.580932 0.230496 0.312690 -0.253272
N8    N     N_R   0.494164 0.308048 0.202282 0.248162
O19   O     O_R   0.418959 0.251877 0.207702 -0.294218
O20   O     O_R   0.556265 0.281273 0.164838 -0.338198
N9    N     N_R   0.771227 0.233602 0.580398 0.214279
O21   O     O_R   0.744959 0.303193 0.617244 -0.359480
O22   O     O_R   0.873574 0.209963 0.578743 -0.364151
N10   N     N_2   0.404868 0.164274 0.475243 -0.323262
H14   H     H_    0.383974 0.200654 0.436353 0.278372
C57   C     C_3   0.325611 0.160774 0.512080 -0.578838
H15   H     H_    0.256475 0.121504 0.488222 0.215675
H16   H     H_    0.294580 0.238424 0.523615 0.275844
H17   H     H_    0.361578 0.120143 0.553017 0.265915
N11   N     N_R   0.238806 0.932432 0.357719 0.232059
O23   O     O_R   0.165658 0.871443 0.338064 -0.331693
O24   O     O_R   0.236999 0.015204 0.329980 -0.348520
N12   N     N_R   0.534392 0.781344 0.609801 0.193337
O25   O     O_R   0.612121 0.758748 0.654277 -0.456169
O26   O     O_R   0.436945 0.760140 0.611869 -0.376309
N13   N     N_2   0.243084 0.338519 0.386094 -0.264866
H18   H     H_    0.237514 0.264270 0.372893 0.239155
C58   C     C_3   0.207529 0.404270 0.336823 -0.577272
H19   H     H_    0.121099 0.396374 0.316833 0.223898
H20   H     H_    0.258288 0.383509 0.303557 0.258942
H21   H     H_    0.215321 0.484295 0.350341 0.244343
N14   N     N_R   0.098542 0.606400 0.607209 0.189950
O27   O     O_R   0.158349 0.529228 0.633035 -0.335648
O28   O     O_R   0.133713 0.694887 0.614910 -0.328322
N15   N     N_2   0.919404 0.737845 0.630199 -0.263548
H22   H     H_    0.866160 0.801552 0.619297 0.223203
C59   C     C_3   0.925937 0.709532 0.689807 -0.582635
H23   H     H_    0.944439 0.775198 0.719358 0.243347
H24   H     H_    0.991897 0.647327 0.702173 0.274987
H25   H     H_    0.847154 0.685255 0.695398 0.227941
N16   N     N_R   0.757666 0.402346 0.429183 0.212283
O29   O     O_R   0.761080 0.459076 0.385827 -0.368898
O30   O     O_R   0.709935 0.320356 0.417479 -0.374571
N17   N     N_2   0.818796 0.443608 0.972700 -0.282245
H26   H     H_    0.831479 0.492458 0.942417 0.273861
C60   C     C_3   0.873619 0.342337 0.972216 -0.540895
H27   H     H_    0.872850 0.315538 0.926633 0.258619
H28   H     H_    0.834234 0.288699 0.994183 0.226643
H29   H     H_    0.959421 0.342900 0.995305 0.252878
N18   N     N_2   0.822203 0.438610 0.089112 -0.293187
H30   H     H_    0.828816 0.384773 0.120186 0.286477
C61   C     C_3   0.880467 0.525668 0.106887 -0.541319
H31   H     H_    0.961765 0.501122 0.133427 0.252078
H32   H     H_    0.834938 0.579230 0.133253 0.252387
H33   H     H_    0.892464 0.564780 0.068107 0.249834
N19   N     N_R   0.385607 0.349204 0.658021 0.223541
O31   O     O_R   0.294352 0.324872 0.668554 -0.314495
O32   O     O_R   0.433690 0.293448 0.621753 -0.418370

loop_
_geom_bond_atom_site_label_1
_geom_bond_atom_site_label_2
_geom_bond_distance
_ccdc_geom_bond_type
C60   H29   1.109714 S    
C59   H23   1.110264 S    
C7    C10   1.418475 A    
H6    C40   1.082283 S    
C8    C9    1.419552 A    
N1    C30   1.422968 S    
N12   O26   1.301676 A    
N19   O31   1.301255 A    
C60   H27   1.110035 S    
Zn1   N3    2.051536 S    
C49   C50   1.434208 A    
Zn1   O7    2.003613 S    
C57   H16   1.108084 S    
C15   C16   1.403532 A    
C39   C40   1.392057 A    
C18   O12   1.348056 S    
C48   N14   1.436281 S    
C17   N2    1.362409 A    
C7    C8    1.422620 A    
O2    C1    1.307690 A    
C58   H20   1.110301 S    
C20   C21   1.415773 A    
O7    C4    1.306064 A    
C41   N12   1.442064 S    
C25   C30   1.389401 A    
N13   H18   1.031795 S    
C33   C34   1.393632 A    
Zn1   O5    1.979282 S    
Zn2   N4    2.039197 S    
C25   C26   1.387926 A    
C43   N9    1.433582 S    
O5    C3    1.305717 A    
N8    O20   1.300892 A    
C34   N11   1.440383 S    
C37   C44   1.407679 A    
N1    C6    1.359754 A    
N13   C58   1.447919 S    
C12   C13   1.411404 A    
C46   H13   1.078384 S    
C54   N16   1.418634 S    
C45   C56   1.385965 A    
N3    C56   1.356609 A    
C22   C23   1.382376 A    
C10   N5    1.435075 S    
C17   O11   1.350710 S    
C36   C37   1.404418 A    
C10   C11   1.389095 A    
N7    O17   1.296836 A    
C23   C24   1.395548 A    
O3    Zn1   1.999152 S    
N12   O25   1.300503 A    
C32   C42   1.418172 A    
C31   H7    1.084505 S    
N8    O19   1.301403 A    
C49   C51   1.439761 A    
C5    C9    1.409839 A    
C57   H17   1.111695 S    
O2    Zn2   1.979282 S    
C36   C38   1.410495 A    
C46   C47   1.396735 A    
N19   O32   1.300728 A    
C45   C52   1.396717 A    
C47   N15   1.421244 S    
C48   C49   1.421997 A    
O3    C2    1.306567 A    
C61   H33   1.110755 S    
N6    O15   1.298033 A    
C4    C27   1.456410 S    
C59   H25   1.111846 S    
C29   C30   1.403358 A    
C35   C36   1.416675 A    
C25   H5    1.083607 S    
C53   C54   1.384617 A    
C40   C41   1.401838 A    
O1    C1    1.299708 A    
C61   H32   1.110275 S    
N16   O30   1.301318 A    
C47   C48   1.407849 A    
C20   N19   1.435916 S    
N2    C18   1.366657 A    
N6    O16   1.301457 A    
C50   C54   1.427132 A    
C26   C27   1.413004 A    
Zn2   O8    1.999152 S    
C2    C21   1.459646 S    
N9    O22   1.300869 A    
C6    C7    1.400932 A    
N10   C57   1.449420 S    
C12   C17   1.393579 A    
C13   C14   1.414324 A    
N7    O18   1.301755 A    
N14   O27   1.301324 A    
C50   N4    1.387467 A    
C22   H3    1.078329 S    
N5    O14   1.301366 A    
C56   N13   1.417575 S    
N2    C24   1.428061 S    
N17   H26   1.030729 S    
C28   N7    1.441011 S    
C58   H21   1.111033 S    
C23   H4    1.083152 S    
C42   N10   1.423860 S    
C21   C22   1.400404 A    
C32   C43   1.420176 A    
C31   C43   1.398138 A    
N15   C59   1.446270 S    
C14   C18   1.410588 A    
C60   H28   1.112401 S    
C11   H1    1.083900 S    
C19   H2    1.083299 S    
C29   N8    1.438679 S    
C59   H24   1.111054 S    
O1    Zn1   2.002402 S    
C26   N6    1.436239 S    
C1    C44   1.449078 S    
O8    C4    1.303560 A    
C52   C53   1.377704 A    
O6    C3    1.313775 A    
O4    Zn2   2.003613 S    
N18   H30   1.029979 S    
C35   H9    1.080728 S    
C5    O9    1.347461 S    
C9    C16   1.423616 A    
C33   C44   1.403159 A    
C57   H15   1.109685 S    
C37   C41   1.426497 A    
C33   H8    1.083408 S    
N11   O24   1.301723 A    
C8    C13   1.410271 A    
C14   C15   1.417692 A    
C15   N17   1.426241 S    
C31   C39   1.396762 A    
C61   H31   1.110300 S    
C51   C55   1.414498 A    
N18   C61   1.447114 S    
C34   C35   1.395723 A    
O4    C2    1.306363 A    
C27   C28   1.420640 A    
C19   C20   1.396480 A    
N9    O21   1.301395 A    
N16   O29   1.302966 A    
C46   N4    1.354247 A    
C38   C39   1.404735 A    
C16   N18   1.425804 S    
N14   O28   1.301416 A    
C19   C24   1.398879 A    
C51   C52   1.414035 A    
C38   C42   1.396424 A    
C55   H12   1.075006 S    
N5    O13   1.301428 A    
Zn2   O6    2.002400 S    
C28   C29   1.406097 A    
N11   O23   1.301613 A    
N10   H14   1.024211 S    
N17   C60   1.448358 S    
C6    O10   1.349218 S    
C11   C12   1.396933 A    
C45   H11   1.084947 S    
H10   C53   1.086189 S    
C58   H19   1.111913 S    
N3    C55   1.362975 A    
C5    N1    1.361731 A    
N15   H22   1.030150 S    
C3    C32   1.474934 S    
