data_mof_unit_40601.cif
_audit_creation_date              2012-12-10T19:59:24-0500
_audit_creation_method            fapswitch 2.2
_symmetry_space_group_name_H-M    P1
_symmetry_Int_Tables_number       1
_space_group_crystal_system       triclinic
_cell_length_a                    15.005595
_cell_length_b                    14.2674
_cell_length_c                    10.701996
_cell_angle_alpha                 89.66425
_cell_angle_beta                  92.893103
_cell_angle_gamma                 90.856206
_cell_volume                      2287.9934939

loop_
_atom_site_label
_atom_site_type_symbol
_atom_type_description
_atom_site_fract_x
_atom_site_fract_y
_atom_site_fract_z
_atom_type_partial_charge
C1    C     C_R   0.327902 0.499254 0.508117 0.956718
C2    C     C_R   0.672435 0.500657 0.497069 0.958693
C3    C     C_R   0.190590 0.413274 0.571281 0.266112
C4    C     C_R   0.814385 0.424170 0.451941 0.256240
C5    C     C_R   0.099070 0.412925 0.590621 0.442547
C6    C     C_R   0.907610 0.421464 0.466877 0.426747
C7    C     C_R   0.049043 0.491000 0.553790 -0.046996
C8    C     C_R   0.952476 0.486741 0.545903 -0.020537
C9    C     C_R   0.483574 0.105346 0.389454 0.195617
C10   C     C_R   0.517574 0.106315 0.612963 0.184361
C11   C     C_R   0.472818 0.203962 0.394136 0.450516
C12   C     C_R   0.530234 0.204899 0.604836 0.478875
C13   C     C_R   0.499441 0.053715 0.502058 -0.168607
C14   C     C_R   0.559451 0.896282 0.578985 -0.261666
C15   C     C_R   0.438028 0.895534 0.426539 -0.260881
C16   C     C_R   0.557298 0.797726 0.580764 0.513198
C17   C     C_R   0.440591 0.797128 0.422756 0.475637
C18   C     C_R   0.498948 0.947317 0.502749 0.002079
C19   C     C_R   0.501087 0.500270 0.260246 0.932577
C20   C     C_R   0.501189 0.499870 0.739972 0.877860
C21   C     C_R   0.504709 0.585240 0.063127 0.027265
C22   C     C_R   0.505961 0.585158 0.935498 0.143156
C23   C     C_R   0.510903 0.501096 0.129337 -0.050330
C24   C     C_R   0.510383 0.500450 0.872408 -0.138627
C25   C     C_R   0.529532 0.417890 0.067669 -0.227451
C26   C     C_R   0.527221 0.417213 0.938794 -0.221951
C27   C     C_3   0.437391 0.660008 0.921192 0.166248
C28   C     C_3   0.435359 0.659719 0.063066 0.153733
C29   C     C_R   0.090812 0.574239 0.518992 -0.420120
C30   C     C_R   0.907035 0.560247 0.597156 -0.417339
C31   C     C_R   0.182945 0.580404 0.518247 0.449679
C32   C     C_R   0.817880 0.574292 0.562401 0.430753
C33   C     C_R   0.232601 0.497286 0.530848 -0.325020
C34   C     C_R   0.769429 0.500856 0.501673 -0.299983
H1    H     H_    0.539950 0.352452 0.117657 0.220484
H2    H     H_    0.533618 0.351006 0.892229 0.236707
H3    H     H_    0.608736 0.932653 0.638916 0.207801
H4    H     H_    0.387896 0.931328 0.368494 0.208299
H5    H     H_    0.374585 0.636746 0.869574 0.113246
H6    H     H_    0.459465 0.725448 0.110105 0.166354
H7    H     H_    0.051808 0.635380 0.493409 0.175824
H8    H     H_    0.943236 0.612022 0.654280 0.175704
N1    N     N_R   0.500000 0.252470 0.500000 -0.211997
N2    N     N_R   0.500000 0.747550 0.500000 -0.218388
O1    O     O_R   0.369060 0.579480 0.500010 -0.589551
O2    O     O_R   0.630940 0.579480 0.499990 -0.614806
O3    O     O_R   0.369050 0.420520 0.500010 -0.586287
O4    O     O_R   0.630950 0.420520 0.499990 -0.597566
O5    O     O_R   0.499990 0.579490 0.316780 -0.656337
O6    O     O_R   0.500010 0.579490 0.683220 -0.634987
O7    O     O_R   0.499980 0.420540 0.316780 -0.568130
O8    O     O_R   0.500020 0.420540 0.683220 -0.557010
Zn1   Zn    Zn3+2 0.500000 0.606140 0.500000 0.975885
Zn2   Zn    Zn3+2 0.500000 0.393860 0.500000 1.028031
O9    O     O_3   0.614538 0.755319 0.667162 -0.702070
H9    H     H_    0.610984 0.687566 0.654920 0.409589
O10   O     O_3   0.379011 0.754139 0.341967 -0.745939
H10   H     H_    0.390158 0.686845 0.342579 0.411063
O11   O     O_3   0.474544 0.743027 0.874848 -0.722045
H11   H     H_    0.425055 0.788389 0.867976 0.326414
O12   O     O_3   0.354025 0.624853 0.104272 -0.771539
H12   H     H_    0.312170 0.678008 0.097332 0.352121
O13   O     O_3   0.224188 0.667213 0.503838 -0.546092
C35   C     C_3   0.206781 0.724005 0.607958 0.135415
H13   H     H_    0.213663 0.684303 0.698122 0.112491
H14   H     H_    0.138423 0.753011 0.597052 0.125941
C36   C     C_3   0.272647 0.805810 0.616583 -0.785769
H15   H     H_    0.268453 0.847319 0.528503 0.268230
H16   H     H_    0.256693 0.851997 0.695316 0.187822
H17   H     H_    0.341317 0.779359 0.634257 0.258316
O14   O     O_3   0.778903 0.660169 0.583414 -0.563586
C37   C     C_3   0.828308 0.732252 0.524424 0.148129
H18   H     H_    0.850313 0.710380 0.430898 0.120199
H19   H     H_    0.887878 0.752724 0.584665 0.127000
C38   C     C_3   0.771844 0.818879 0.503608 -0.785487
H20   H     H_    0.753804 0.847658 0.594858 0.275164
H21   H     H_    0.810458 0.873422 0.454220 0.189545
H22   H     H_    0.710856 0.801114 0.445025 0.254143
O15   O     O_3   0.240378 0.336423 0.609723 -0.572743
C39   C     C_3   0.226388 0.263369 0.522030 0.167716
H23   H     H_    0.258435 0.282252 0.434197 0.134850
H24   H     H_    0.154488 0.247978 0.499411 0.181548
C40   C     C_3   0.268044 0.174308 0.575448 -0.815692
H25   H     H_    0.232743 0.151155 0.659259 0.260412
H26   H     H_    0.263008 0.117790 0.504429 0.188987
H27   H     H_    0.339289 0.187397 0.602931 0.255765
O16   O     O_3   0.769083 0.363276 0.369711 -0.593977
C41   C     C_3   0.765238 0.272738 0.423333 0.145700
H28   H     H_    0.731088 0.274295 0.512762 0.144920
H29   H     H_    0.832715 0.242803 0.440652 0.182632
C42   C     C_3   0.712143 0.208116 0.333947 -0.806292
H30   H     H_    0.748325 0.199295 0.246876 0.254642
H31   H     H_    0.702642 0.138423 0.378536 0.193833
H32   H     H_    0.645839 0.238473 0.309508 0.279854
O17   O     O_3   0.058032 0.333941 0.638225 -0.580812
C43   C     C_3   0.052162 0.345202 0.768419 0.112659
H33   H     H_    0.009047 0.405517 0.789075 0.134412
H34   H     H_    0.119545 0.356123 0.815270 0.157413
C44   C     C_3   0.010799 0.256987 0.822673 -0.821796
H35   H     H_    0.053857 0.195954 0.806931 0.259131
H36   H     H_    0.003953 0.265523 0.924786 0.204039
H37   H     H_    0.943763 0.243687 0.776970 0.251141
O18   O     O_3   0.955092 0.355864 0.403742 -0.591374
C45   C     C_3   0.973227 0.392060 0.284405 0.121243
H38   H     H_    0.001996 0.464561 0.289887 0.132691
H39   H     H_    0.911172 0.392415 0.222900 0.175218
C46   C     C_3   0.040992 0.330093 0.225346 -0.854151
H40   H     H_    0.014314 0.257290 0.216285 0.260207
H41   H     H_    0.055374 0.357430 0.130993 0.207282
H42   H     H_    0.104077 0.329711 0.284296 0.241626
O19   O     O_3   0.482357 0.063540 0.273388 -0.769580
H43   H     H_    0.521977 0.008614 0.278475 0.355294
O20   O     O_3   0.521330 0.065531 0.730308 -0.759988
H44   H     H_    0.481487 0.009532 0.728404 0.359175
O21   O     O_3   0.448159 0.254133 0.286992 -0.572625
C47   C     C_3   0.366763 0.220523 0.229959 0.170822
H45   H     H_    0.323320 0.183216 0.296164 0.101961
H46   H     H_    0.380941 0.171903 0.153012 0.211161
C48   C     C_3   0.315284 0.302772 0.172727 -0.861852
H47   H     H_    0.304537 0.356410 0.244976 0.258564
H48   H     H_    0.353109 0.335465 0.096913 0.274157
H49   H     H_    0.249449 0.277937 0.132729 0.209462
O22   O     O_3   0.566899 0.255518 0.705393 -0.571349
C49   C     C_3   0.650700 0.219260 0.747848 0.157721
H50   H     H_    0.684147 0.178506 0.675313 0.098381
H51   H     H_    0.641500 0.172805 0.829996 0.209152
C50   C     C_3   0.713478 0.299448 0.789034 -0.896719
H52   H     H_    0.718350 0.352130 0.712967 0.261160
H53   H     H_    0.689379 0.334063 0.873128 0.259986
H54   H     H_    0.780988 0.271772 0.812798 0.212588

loop_
_geom_bond_atom_site_label_1
_geom_bond_atom_site_label_2
_ccdc_geom_bond_type
C9    O19   S    
C15   C18   A    
O16   C41   S    
C7    C29   A    
C14   C18   A    
O17   C43   S    
O9    H9    S    
C3    O15   S    
C45   H39   S    
C1    C33   S    
O22   C49   S    
C4    O16   S    
C2    O2    A    
O4    Zn2   S    
C13   C18   S    
C40   H25   S    
C24   C26   A    
C12   N1    A    
C39   C40   S    
C3    C33   A    
O21   C47   S    
C43   C44   S    
C47   H45   S    
C9    C13   A    
C20   O6    A    
C17   N2    A    
N2    Zn1   S    
O19   H43   S    
C27   H5    S    
C43   H34   S    
C46   H40   S    
C31   C33   A    
C11   N1    A    
C11   O21   S    
C16   N2    A    
C37   H18   S    
C29   H7    S    
C28   O12   S    
C2    C34   S    
O1    Zn1   S    
O11   H11   S    
C21   C22   A    
C46   H41   S    
C37   C38   S    
C45   H38   S    
C5    O17   S    
O8    Zn2   S    
C32   O14   S    
C48   H48   S    
C4    C34   A    
O6    Zn1   S    
C36   H15   S    
C35   C36   S    
C31   O13   S    
C7    C8    S    
C37   H19   S    
C42   H30   S    
C5    C7    A    
C1    O3    A    
C6    C8    A    
C2    O4    A    
C25   C26   A    
O13   C35   S    
C36   H16   S    
C35   H14   S    
C19   C23   S    
C38   H20   S    
C50   H53   S    
C15   H4    S    
C42   H31   S    
C38   H21   S    
C19   O5    A    
N1    Zn2   S    
C44   H35   S    
C41   C42   S    
C43   H33   S    
C40   H27   S    
C6    O18   S    
C9    C11   A    
C10   O20   S    
C10   C12   A    
C25   H1    S    
C49   C50   S    
C26   H2    S    
C40   H26   S    
C21   C28   S    
C41   H29   S    
C22   C27   S    
O3    Zn2   S    
C46   H42   S    
C22   C24   A    
C4    C6    A    
C50   H52   S    
O18   C45   S    
C49   H51   S    
O20   H44   S    
C48   H49   S    
C15   C17   A    
C44   H36   S    
C39   H23   S    
C3    C5    A    
C10   C13   A    
C48   H47   S    
C47   C48   S    
O7    Zn2   S    
C8    C30   A    
C35   H13   S    
C36   H17   S    
C21   C23   A    
C50   H54   S    
O14   C37   S    
C29   C31   A    
C27   O11   S    
C42   H32   S    
C30   C32   A    
C1    O1    A    
O10   H10   S    
C12   O22   S    
O5    Zn1   S    
O2    Zn1   S    
C39   H24   S    
C47   H46   S    
C14   C16   A    
C23   C25   A    
O12   H12   S    
C38   H22   S    
C16   O9    S    
O15   C39   S    
C19   O7    A    
C44   H37   S    
C41   H28   S    
C20   O8    A    
C17   O10   S    
C27   C28   S    
C28   H6    S    
C30   H8    S    
C20   C24   S    
C45   C46   S    
C32   C34   A    
C49   H50   S    
C14   H3    S    
