data_mof_unit_17642.cif
_audit_creation_date              2012-12-10T16:59:14-0500
_audit_creation_method            fapswitch 2.2
_symmetry_space_group_name_H-M    P1
_symmetry_Int_Tables_number       1
_space_group_crystal_system       triclinic
_cell_length_a                    7.786679
_cell_length_b                    8.539432
_cell_length_c                    27.73651
_cell_angle_alpha                 91.737592
_cell_angle_beta                  85.48885
_cell_angle_gamma                 93.822975
_cell_volume                      1833.91846195

loop_
_atom_site_label
_atom_site_type_symbol
_atom_type_description
_atom_site_fract_x
_atom_site_fract_y
_atom_site_fract_z
_atom_type_partial_charge
C1    C     C_R   0.545794 0.794668 0.498785 0.957313
C2    C     C_R   0.531218 0.647332 0.128162 -0.056482
C3    C     C_R   0.507724 0.497637 0.646382 -0.029852
C4    C     C_R   0.492281 0.502392 0.353619 -0.029856
C5    C     C_R   0.552580 0.639515 0.025480 0.046152
C6    C     C_R   0.447439 0.360609 0.974521 0.046152
C7    C     C_R   0.426539 0.367887 0.025851 0.044388
C8    C     C_R   0.573479 0.632238 0.974149 0.044388
C9    C     C_R   0.484205 0.505637 0.051201 0.072488
C10   C     C_R   0.515813 0.494487 0.948800 0.072488
C11   C     C_R   0.593322 0.778925 0.051928 -0.269453
C12   C     C_R   0.454206 0.205332 0.501215 0.957315
C13   C     C_R   0.406699 0.221198 0.948073 -0.269454
C14   C     C_R   0.587391 0.783436 0.102065 0.001006
C15   C     C_R   0.412630 0.216686 0.897936 0.001007
C16   C     C_R   0.501942 0.499758 0.593870 0.849392
C17   C     C_R   0.498058 0.500245 0.406130 0.849392
C18   C     C_R   0.656903 0.756998 0.947357 -0.269404
C19   C     C_R   0.343113 0.243127 0.052644 -0.269404
C20   C     C_2   0.569881 0.958323 0.498046 -0.376902
C21   C     C_2   0.430119 0.041677 0.501954 -0.376904
C22   C     C_R   0.592423 0.620780 0.820820 0.511270
C23   C     C_R   0.527352 0.490358 0.897361 -0.070543
C24   C     C_R   0.407599 0.379339 0.179180 0.511269
C25   C     C_R   0.470103 0.357014 0.821087 0.510471
C26   C     C_R   0.529917 0.643105 0.178914 0.510471
C27   C     C_R   0.672309 0.479483 0.716259 -0.101121
C28   C     C_R   0.327710 0.520607 0.283742 -0.101110
C29   C     C_R   0.665737 0.481972 0.666448 -0.212791
C30   C     C_R   0.334273 0.518076 0.333552 -0.212790
C31   C     C_R   0.356383 0.510165 0.676893 -0.217775
C32   C     C_R   0.643625 0.489885 0.323107 -0.217773
C33   C     C_R   0.363356 0.507421 0.726761 -0.089278
C34   C     C_R   0.472667 0.509765 0.102640 -0.070544
C35   C     C_R   0.636661 0.492671 0.273240 -0.089285
C36   C     C_R   0.521263 0.492181 0.746336 0.327853
C37   C     C_R   0.478758 0.507931 0.253664 0.327848
C38   C     C_3   0.952741 0.302547 0.421096 -0.146403
C39   C     C_3   0.047259 0.697455 0.578903 -0.146411
C40   C     C_1   0.756293 0.890701 0.873976 0.271735
C41   C     C_1   0.243729 0.109419 0.126023 0.271735
C42   C     C_1   0.639806 0.932118 0.124788 0.286160
C43   C     C_1   0.360215 0.068003 0.875213 0.286160
C44   C     C_R   0.596608 0.624115 0.871494 -0.055452
C45   C     C_R   0.403412 0.376007 0.128506 -0.055453
C46   C     C_R   0.667408 0.755307 0.897196 0.001628
C47   C     C_R   0.332611 0.244816 0.102805 0.001628
C48   C     C_R   0.468802 0.352790 0.871839 -0.056483
H1    H     H_    0.233032 0.521711 0.662384 0.146040
H2    H     H_    0.372209 0.111128 0.965456 0.139671
H3    H     H_    0.720325 0.857458 0.964479 0.142313
H4    H     H_    0.279687 0.142669 0.035521 0.142314
H5    H     H_    0.701813 0.009593 0.494287 0.195579
H6    H     H_    0.298187 0.990407 0.505712 0.195578
H7    H     H_    0.950133 0.409539 0.399407 0.133398
H8    H     H_    0.822526 0.243484 0.427635 0.179306
H9    H     H_    0.032904 0.219609 0.399298 0.146660
H10   H     H_    0.177474 0.756519 0.572365 0.179306
H11   H     H_    0.049869 0.590462 0.600592 0.133398
H12   H     H_    0.766971 0.478322 0.337616 0.146043
H13   H     H_    0.967096 0.780392 0.600702 0.146660
H14   H     H_    0.246536 0.517313 0.750259 0.139522
H15   H     H_    0.753482 0.482789 0.249741 0.139523
H16   H     H_    0.215856 0.528892 0.356228 0.158140
H17   H     H_    0.784151 0.471138 0.643772 0.158141
H18   H     H_    0.205688 0.532730 0.268429 0.137248
H19   H     H_    0.794335 0.467372 0.731572 0.137249
H20   H     H_    0.627815 0.888995 0.034546 0.139670
N1    N     N_R   0.528281 0.489866 0.797460 -0.357473
N2    N     N_R   0.471741 0.510252 0.202541 -0.357473
N3    N     N_2   0.950320 0.457960 0.486880 0.191421
N4    N     N_2   0.049680 0.542040 0.513120 0.191422
N5    N     N_1   0.827427 0.999297 0.855681 -0.157986
N6    N     N_1   0.172599 0.000820 0.144318 -0.157988
N7    N     N_1   0.682081 0.051242 0.142690 -0.153716
N8    N     N_1   0.317940 0.948878 0.857312 -0.153717
O1    O     O_R   0.389250 0.738570 0.503220 -0.631861
O2    O     O_2   0.351867 0.252549 0.205291 -0.534829
O3    O     O_2   0.587125 0.769333 0.204928 -0.533784
O4    O     O_2   0.412895 0.230786 0.795074 -0.533783
O5    O     O_3   0.029115 0.336981 0.464575 -0.525560
O6    O     O_3   0.970886 0.663019 0.535424 -0.525559
O7    O     O_R   0.610750 0.261430 0.496780 -0.631860
O8    O     O_R   0.678390 0.711630 0.494810 -0.571073
O9    O     O_R   0.321610 0.288370 0.505190 -0.571072
O10   O     O_R   0.355440 0.513440 0.575450 -0.660709
O11   O     O_R   0.644560 0.486560 0.424550 -0.660710
O12   O     O_R   0.644590 0.486500 0.567040 -0.596224
O13   O     O_R   0.355410 0.513500 0.432960 -0.596225
O14   O     O_2   0.648158 0.747567 0.794708 -0.534830
Zn1   Zn    Zn3+2 0.306940 0.517990 0.505620 1.029521
Zn2   Zn    Zn3+2 0.693060 0.482010 0.494380 1.029521

loop_
_geom_bond_atom_site_label_1
_geom_bond_atom_site_label_2
_ccdc_geom_bond_type
C30   H16   S    
C27   C29   A    
C25   O4    S    
C1    O1    A    
O9    Zn1   S    
C24   N2    A    
C11   H20   S    
C1    O8    A    
C40   C46   S    
O7    Zn2   S    
C42   N7    T    
C12   O9    A    
C24   C45   A    
C35   C37   A    
C5    C11   A    
O10   Zn1   S    
C21   H6    S    
C11   C14   A    
C19   C47   A    
C33   C36   A    
C40   N5    T    
C3    C29   A    
C41   N6    T    
C19   H4    S    
C22   C44   A    
N3    Zn2   S    
O12   Zn2   S    
C33   H14   S    
C31   C33   A    
O13   Zn1   S    
C22   N1    A    
C14   C42   S    
C2    C34   A    
O11   Zn2   S    
C16   O10   A    
C15   C48   A    
C31   H1    S    
C18   C46   A    
C44   C46   A    
C18   H3    S    
C45   C47   A    
C41   C47   S    
C39   H13   S    
C38   H7    S    
C32   C35   A    
C17   O13   A    
N4    Zn1   S    
C39   H10   S    
C12   C21   S    
C8    C18   A    
C23   C44   A    
C12   O7    A    
C28   H18   S    
C5    C9    A    
C38   H9    S    
C39   H11   S    
C22   O14   S    
C2    C26   A    
C34   C45   A    
C3    C31   A    
C25   C48   A    
C4    C32   A    
C29   H17   S    
C4    C17   S    
C24   O2    S    
C7    C19   A    
C13   C15   A    
C38   O5    S    
C9    C34   A    
C26   N2    A    
C25   N1    A    
C32   H12   S    
C36   N1    S    
C43   N8    T    
C7    C9    A    
O1    Zn1   S    
C1    C20   S    
C23   C48   A    
C17   O11   A    
C39   O6    S    
C20   H5    S    
C6    C10   A    
C5    C8    A    
C6    C7    A    
C10   C23   A    
C26   O3    S    
C27   C36   A    
C28   C30   A    
C15   C43   S    
N3    N4    D    
C6    C13   A    
C28   C37   A    
C2    C14   A    
N4    O6    S    
C27   H19   S    
C13   H2    S    
C38   H8    S    
C20   C21   D    
C8    C10   A    
C16   O12   A    
C35   H15   S    
O8    Zn2   S    
C37   N2    S    
C4    C30   A    
C3    C16   S    
N3    O5    S    
