data_mof_unit_21153.cif
_audit_creation_date              2012-12-11T18:42:34-0500
_audit_creation_method            fapswitch 2.2
_symmetry_space_group_name_H-M    P1
_symmetry_Int_Tables_number       1
_space_group_crystal_system       triclinic
_cell_length_a                    8.451446
_cell_length_b                    14.7331
_cell_length_c                    18.546819
_cell_angle_alpha                 96.285687
_cell_angle_beta                  90.152709
_cell_angle_gamma                 93.488078
_cell_volume                      2291.13882641

loop_
_atom_site_label
_atom_site_type_symbol
_atom_type_description
_atom_site_fract_x
_atom_site_fract_y
_atom_site_fract_z
_atom_type_partial_charge
Ba1   Ba    Ba6+2 0.843240 0.541620 0.463500 1.766072
Ba2   Ba    Ba6+2 0.346570 0.458460 0.536510 1.741494
C1    C     C_3   0.666305 0.856727 0.248876 0.257239
C2    C     C_R   0.929376 0.384291 0.099752 -0.019326
C3    C     C_R   0.796934 0.392306 0.952744 -0.029933
C4    C     C_3   0.059790 0.741458 0.233797 0.996518
C5    C     C_R   0.950412 0.428676 0.974191 0.072102
C6    C     C_R   0.735347 0.401744 0.884344 -0.086237
C7    C     C_R   0.823262 0.446949 0.833524 0.003774
C8    C     C_R   0.974581 0.487591 0.854180 0.060309
C9    C     C_R   0.039196 0.476386 0.923719 0.060658
C10   C     C_R   0.767329 0.449907 0.761830 0.037612
C11   C     C_R   0.865730 0.488847 0.711198 -0.242917
C12   C     C_3   0.661961 0.770340 0.289943 0.302159
C13   C     C_R   0.011312 0.535062 0.731466 0.015883
C14   C     C_R   0.063839 0.537273 0.804660 -0.028100
C15   C     C_R   0.173065 0.458730 0.062362 0.059346
C16   C     C_3   0.975699 0.774162 0.168085 0.278184
C17   C     C_R   0.237961 0.462979 0.134600 0.011867
C18   C     C_R   0.136027 0.435007 0.190182 0.000344
C19   C     C_R   0.988143 0.390350 0.170114 -0.015511
C20   C     C_R   0.205937 0.584298 0.829455 -0.018018
C21   C     C_R   0.271594 0.570313 0.895867 -0.048523
C22   C     C_R   0.194163 0.511806 0.941901 0.072968
C23   C     C_3   0.566745 0.292885 0.322828 0.669151
C24   C     C_R   0.264337 0.493140 0.007786 -0.009681
C25   C     C_R   0.425528 0.507846 0.019567 -0.122102
C26   C     C_R   0.396794 0.503634 0.151490 -0.055637
C27   C     C_R   0.492113 0.524966 0.088987 0.422894
C28   C     C_3   0.236937 0.751268 0.630384 0.388693
C29   C     C_R   0.437496 0.524115 0.228396 0.081439
C30   C     C_R   0.327771 0.500117 0.281153 -0.214641
C31   C     C_R   0.180902 0.454519 0.264125 0.062258
C32   C     C_R   0.672734 0.942318 0.557950 -0.000712
C33   C     C_R   0.511748 0.802680 0.503180 -0.014316
C34   C     C_3   0.578009 0.257669 0.242192 0.235190
C35   C     C_R   0.378346 0.766680 0.461923 -0.277503
C36   C     C_R   0.274915 0.823928 0.433618 0.079896
C37   C     C_R   0.310540 0.918554 0.444119 -0.042610
C38   C     C_R   0.444046 0.957996 0.483724 0.041594
C39   C     C_R   0.544519 0.900395 0.515372 -0.063672
C40   C     C_3   0.297412 0.843140 0.669811 0.260916
C41   C     C_R   0.615535 0.095850 0.527249 -0.036132
C42   C     C_R   0.715738 0.038477 0.562168 -0.004510
C43   C     C_R   0.667263 0.189978 0.521909 0.005075
C44   C     C_R   0.813224 0.223941 0.553231 -0.251242
C45   C     C_3   0.081210 0.262486 0.760398 0.910050
C46   C     C_R   0.914557 0.169189 0.586990 0.040940
C47   C     C_R   0.864738 0.075956 0.593693 0.324504
C48   C     C_R   0.479257 0.053966 0.489919 0.097691
C49   C     C_3   0.024540 0.242682 0.371277 0.273194
C50   C     C_3   0.001640 0.147120 0.332181 0.638437
C51   C     C_3   0.695927 0.673003 0.674359 0.338827
C52   C     C_3   0.711932 0.701214 0.755679 -0.312570
C53   C     C_3   0.061034 0.210806 0.828903 0.427865
C54   C     C_3   0.540737 0.226989 0.702299 0.357091
C55   C     C_3   0.535276 0.134441 0.731603 -0.270376
C56   C     C_R   0.015705 0.423142 0.045081 0.084728
H1    H     H_    0.768334 0.772731 0.324643 0.022931
H2    H     H_    0.792182 0.763888 0.766060 0.164201
H3    H     H_    0.761075 0.646220 0.783415 0.018810
H4    H     H_    0.593899 0.714943 0.779090 0.161492
H5    H     H_    0.560537 0.768513 0.327302 0.082000
H6    H     H_    0.664216 0.344554 0.335231 0.062923
H7    H     H_    0.485390 0.202228 0.227387 0.195929
H8    H     H_    0.559155 0.314925 0.209185 -0.041084
H9    H     H_    0.629979 0.837566 0.191587 0.153874
H10   H     H_    0.003491 0.732381 0.116444 0.088156
H11   H     H_    0.959633 0.238415 0.860499 -0.027414
H12   H     H_    0.360398 0.885014 0.631452 -0.007668
H13   H     H_    0.028533 0.137325 0.811957 0.022661
H14   H     H_    0.657522 0.239298 0.677943 -0.055568
H15   H     H_    0.452500 0.225108 0.658323 0.092065
H16   H     H_    0.582565 0.082393 0.691161 0.037315
H17   H     H_    0.411152 0.111873 0.742450 0.206156
H18   H     H_    0.607712 0.138489 0.782033 0.146888
H19   H     H_    0.824851 0.486720 0.655692 0.050270
H20   H     H_    0.617833 0.372355 0.871900 0.140066
H21   H     H_    0.911107 0.361894 0.208744 0.146335
H22   H     H_    0.270709 0.630658 0.797361 0.113022
H23   H     H_    0.195042 0.880000 0.692410 0.189099
H24   H     H_    0.359392 0.515573 0.337967 0.072784
H25   H     H_    0.720461 0.355756 0.987500 0.060778
H26   H     H_    0.812067 0.352066 0.091016 0.051096
H27   H     H_    0.382510 0.608047 0.911258 0.098669
H28   H     H_    0.498001 0.514427 0.972563 0.145689
H29   H     H_    0.351075 0.693501 0.454207 0.053921
H30   H     H_    0.238299 0.960997 0.417491 0.205098
H31   H     H_    0.853674 0.293800 0.547080 0.041157
H32   H     H_    0.741428 0.897956 0.585650 0.190322
H33   H     H_    0.405198 0.094971 0.460927 0.155944
H34   H     H_    0.921664 0.258914 0.406513 -0.073426
H35   H     H_    0.849025 0.763558 0.170846 0.076497
H36   H     H_    0.338548 0.709718 0.615908 0.003586
H37   H     H_    0.172902 0.762266 0.580084 -0.020389
H38   H     H_    0.439077 0.891344 0.748254 0.327045
H39   H     H_    0.891731 0.936705 0.354293 0.376824
H40   H     H_    0.087636 0.196883 0.181154 0.357907
H41   H     H_    0.286209 0.939770 0.285188 0.449083
H42   H     H_    0.338427 0.287274 0.325513 0.320182
H43   H     H_    0.726960 0.203776 0.174297 0.319744
H44   H     H_    0.173810 0.377343 0.734683 0.322829
H45   H     H_    0.136585 0.251611 0.403138 0.069644
H46   H     H_    0.872180 0.214311 0.729448 0.221478
H47   H     H_    0.394395 0.322738 0.939438 0.332674
H48   H     H_    0.068736 0.621547 0.268575 0.292625
H49   H     H_    0.826922 0.640373 0.000278 0.354488
H50   H     H_    0.320428 0.814047 0.115605 0.373033
H51   H     H_    0.060935 0.942009 0.531194 0.359158
H52   H     H_    0.958828 0.881855 0.118516 0.323404
H53   H     H_    0.887756 0.139842 0.301843 0.103243
H54   H     H_    0.814263 0.658123 0.652219 0.015758
H55   H     H_    0.613939 0.610881 0.665518 0.039758
H56   H     H_    0.787696 0.888464 0.248094 0.045842
O1    O     O_2   0.887710 0.436190 0.327560 -0.479397
O2    O     O_2   0.243996 0.175855 0.571012 -0.443879
O3    O     O_3   0.170539 0.211693 0.707099 -0.590395
O4    O     O_3   0.135370 0.443490 0.416520 -0.485596
O5    O     O_3   0.551980 0.615210 0.532020 -0.499280
O6    O     O_2   0.394410 0.269100 0.474240 -0.445638
O7    O     O_3   0.580401 0.221236 0.366682 -0.570582
O8    O     O_2   0.440736 0.467041 0.757863 -0.466696
O9    O     O_3   0.509003 0.295867 0.758054 -0.528317
O10   O     O_3   0.634420 0.609440 0.364670 -0.504000
O11   O     O_2   0.762309 0.530893 0.249173 -0.406438
O12   O     O_3   0.635924 0.745460 0.642135 -0.595619
O13   O     O_3   0.029462 0.294843 0.314840 -0.647414
O14   O     O_3   0.663214 0.693121 0.237099 -0.511982
O15   O     O_2   0.795290 0.730930 0.525800 -0.432509
O16   O     O_3   0.044470 0.660110 0.398750 -0.486264
O17   O     O_2   0.955633 0.820816 0.430436 -0.462433
O18   O     O_3   0.398711 0.829493 0.726916 -0.715360
O19   O     O_2   0.110214 0.090353 0.453618 -0.380504
O20   O     O_2   0.828932 0.074842 0.427083 -0.365524
O21   O     O_3   0.999823 0.965248 0.351387 -0.481890
O22   O     O_2   0.306234 0.111651 0.309299 -0.265845
O23   O     O_3   0.054316 0.807417 0.296254 -0.585412
O24   O     O_2   0.110591 0.032243 0.223061 -0.193143
O25   O     O_3   0.184507 0.201986 0.211872 -0.552896
O26   O     O_2   0.608726 0.997663 0.347911 -0.270571
O27   O     O_2   0.526039 0.006557 0.223052 -0.201739
O28   O     O_3   0.363096 0.897430 0.299675 -0.481524
O29   O     O_3   0.424375 0.335358 0.335663 -0.799178
O30   O     O_3   0.726950 0.224349 0.227071 -0.747926
O31   O     O_3   0.160579 0.347531 0.779727 -0.660911
O32   O     O_3   0.928516 0.275722 0.735241 -0.830902
O33   O     O_2   0.160433 0.207320 0.965274 -0.295273
O34   O     O_2   0.301980 0.563840 0.672490 -0.484017
O35   O     O_2   0.332538 0.142393 0.870291 -0.277493
O36   O     O_3   0.329454 0.319349 0.894590 -0.486751
O37   O     O_3   0.988331 0.657013 0.247377 -0.712810
O38   O     O_2   0.618646 0.694914 0.102875 -0.270233
O39   O     O_2   0.802144 0.577435 0.128332 -0.293580
O40   O     O_3   0.734489 0.595426 0.997724 -0.571612
O41   O     O_2   0.347546 0.703066 0.262310 -0.413421
O42   O     O_2   0.246788 0.655403 0.139034 -0.378963
O43   O     O_3   0.331867 0.824838 0.169071 -0.415671
O44   O     O_2   0.146137 0.043303 0.662685 -0.318574
O45   O     O_3   0.054330 0.556590 0.583490 -0.500279
O46   O     O_2   0.900340 0.966166 0.697824 -0.311431
O47   O     O_3   0.023831 0.913001 0.574152 -0.548072
O48   O     O_3   0.016681 0.866361 0.161747 -0.654899
O49   O     O_3   0.555270 0.390630 0.635330 -0.512131
O50   O     O_3   0.131154 0.709912 0.676187 -0.631794
O51   O     O_3   0.637720 0.384870 0.467990 -0.477265
O52   O     O_3   0.145220 0.339960 0.601250 -0.492389
P1    P     P_3+3 0.061800 0.409390 0.339760 1.009609
P2    P     P_3+3 0.622760 0.718740 0.547830 0.989703
P3    P     P_3+3 0.088961 0.774621 0.385770 1.052262
P4    P     P_3+3 0.127890 0.590690 0.660240 0.971008
P5    P     P_3+3 0.114830 0.224558 0.616513 1.079146
P6    P     P_3+3 0.620197 0.587903 0.270414 1.148159
P7    P     P_3+3 0.576920 0.265593 0.458715 1.031303
P8    P     P_3+3 0.568680 0.402126 0.729458 0.995870
S1    S     S_3+6 0.987736 0.068754 0.395033 -0.119286
S2    S     S_3+6 0.155733 0.120635 0.268311 -0.028847
S3    S     S_3+6 0.540930 0.943894 0.281151 -0.002926
S4    S     S_3+6 0.225392 0.218290 0.891128 -0.032589
S5    S     S_3+6 0.666025 0.599024 0.083165 -0.096007
S6    S     S_3+6 0.253959 0.729480 0.200973 -0.071519
S7    S     S_3+6 0.988472 0.001651 0.635375 -0.131056

loop_
_geom_bond_atom_site_label_1
_geom_bond_atom_site_label_2
_ccdc_geom_bond_type
C42   C47   A    
O39   S5    D    
O45   P4    S    
C25   C27   A    
C16   O48   S    
O4    P1    S    
H41   O28   S    
O50   P4    S    
C17   C18   A    
C28   O50   S    
C45   O31   S    
Ba2   O4    S    
C44   H31   S    
C52   H2    S    
C51   C52   S    
C5    C9    A    
C12   H1    S    
C40   H23   S    
C24   C25   A    
C28   H37   S    
O27   S3    D    
C15   C24   A    
C23   O29   S    
C55   H18   S    
C45   C53   S    
C26   C27   A    
C33   C35   A    
C22   C24   A    
Ba1   O15   S    
H44   O31   S    
C36   C37   A    
C3    H25   S    
H43   O30   S    
C34   H8    S    
O28   S3    S    
C29   P6    S    
Ba1   P1    S    
O16   P3    S    
C16   H10   S    
C13   C14   A    
C9    C22   A    
C40   H12   S    
C12   O14   S    
C54   C55   S    
Ba1   Ba2   S    
Ba1   O5    S    
O11   P6    D    
C50   S1    S    
O7    P7    S    
Ba2   O45   S    
C54   H14   S    
O10   P6    S    
O34   P4    D    
C21   C22   A    
H48   O37   S    
C7    C8    A    
Ba2   O52   S    
C5    C56   A    
O23   P3    S    
C15   C56   A    
O36   S4    S    
O49   P8    S    
O17   P3    D    
C45   O32   S    
O52   P5    S    
O40   S5    S    
C6    H20   S    
O25   S2    S    
C31   P1    S    
C32   C39   A    
C37   H30   S    
O44   S7    D    
C51   H55   S    
O26   S3    D    
C44   C46   A    
H52   O48   S    
C4    C16   S    
C11   H19   S    
O20   S1    D    
C49   C50   S    
C54   O9    S    
H46   O32   S    
Ba1   O45   S    
C32   C42   A    
Ba1   O16   S    
C51   O12   S    
C37   C38   A    
C3    C5    A    
Ba2   O6    S    
C34   H7    S    
C6    C7    A    
O22   S2    D    
C52   H4    S    
C50   H53   S    
O8    P8    D    
Ba2   O34   S    
C1    H56   S    
C13   P4    S    
O43   S6    S    
O21   S1    S    
C55   H16   S    
C25   H28   S    
C41   C42   A    
C32   H32   S    
C35   C36   A    
H47   O36   S    
C43   P7    S    
C49   H34   S    
C46   P5    S    
C41   C43   A    
O3    P5    S    
C29   C30   A    
C2    H26   S    
Ba1   O51   S    
C19   H21   S    
C33   P2    S    
C18   C19   A    
C17   C26   A    
O19   S1    D    
Ba2   O51   S    
C53   H11   S    
C1    C12   S    
Ba2   P4    S    
C47   S7    S    
C18   C31   A    
C51   H54   S    
C38   C39   A    
O14   P6    S    
C11   C13   A    
O24   S2    D    
C53   S4    S    
C4    O37   S    
O1    P1    D    
O46   S7    D    
O9    P8    S    
O41   S6    D    
C36   P3    S    
C10   P8    S    
C50   S2    S    
C46   C47   A    
C14   C20   A    
C54   H15   S    
O15   P2    D    
C4    S6    S    
C35   H29   S    
C26   C29   A    
C1    H9    S    
H42   O29   S    
Ba2   O49   S    
C3    C6    A    
C40   O18   S    
Ba2   O5    S    
C41   C48   A    
H50   O43   S    
C52   H3    S    
C30   H24   S    
O12   P2    S    
O51   P7    S    
Ba1   P2    S    
H38   O18   S    
H40   O25   S    
C49   O13   S    
C30   C31   A    
C55   H17   S    
C4    O23   S    
C1    S3    S    
Ba1   O10   S    
C20   H22   S    
C28   H36   S    
H51   O47   S    
C27   S5    S    
C2    C19   A    
O42   S6    D    
O33   S4    D    
C23   O7    S    
O38   S5    D    
C38   C48   A    
C12   H5    S    
O35   S4    D    
C15   C17   A    
Ba1   O4    S    
C34   O30   S    
C33   C39   A    
C7    C10   A    
H49   O40   S    
C8    C9    A    
C23   C34   S    
C43   C44   A    
C48   H33   S    
C45   O3    S    
C10   C11   A    
O2    P5    D    
O13   P1    S    
C21   H27   S    
C2    C56   A    
C16   H35   S    
H39   O21   S    
C20   C21   A    
C28   C40   S    
C8    C14   A    
Ba1   O1    S    
O6    P7    D    
C49   H45   S    
O5    P2    S    
C23   H6    S    
O47   S7    S    
C53   H13   S    
