data_mof_unit_20867.cif
_audit_creation_date              2012-12-11T15:27:16-0500
_audit_creation_method            fapswitch 2.2
_symmetry_space_group_name_H-M    P1
_symmetry_Int_Tables_number       1
_space_group_crystal_system       triclinic
_cell_length_a                    13.739287
_cell_length_b                    13.946164
_cell_length_c                    28.417754
_cell_angle_alpha                 90.313181
_cell_angle_beta                  89.559624
_cell_angle_gamma                 119.717794
_cell_volume                      4728.83018494

loop_
_atom_site_label
_atom_site_type_symbol
_atom_type_description
_atom_site_fract_x
_atom_site_fract_y
_atom_site_fract_z
_atom_type_partial_charge
C1    C     C_R   0.251242 0.774208 0.573657 0.533956
C2    C     C_1   0.727471 0.851293 0.856357 0.060187
C3    C     C_1   0.148709 0.866504 0.857541 0.065867
C4    C     C_1   0.140099 0.292656 0.859608 0.078009
C5    C     C_1   0.609005 0.802526 0.659512 0.034064
C6    C     C_1   0.207365 0.803000 0.661657 0.026565
C7    C     C_1   0.197851 0.403878 0.662011 0.037011
C8    C     C_1   0.582357 0.786490 0.618638 0.055034
C9    C     C_1   0.222890 0.789523 0.620597 0.053493
C10   C     C_1   0.209001 0.431888 0.620850 0.056103
C11   C     C_R   0.090024 0.194637 0.943365 0.552397
C12   C     C_R   0.223027 0.471441 0.573247 0.539857
C13   C     C_R   0.800744 0.892645 0.944311 0.561611
C14   C     C_R   0.105472 0.910850 0.943634 0.552824
C15   C     C_R   0.568493 0.772757 0.379583 -0.034417
C16   C     C_R   0.225347 0.797350 0.379632 -0.028624
C17   C     C_R   0.204454 0.425896 0.380123 -0.026309
C18   C     C_R   0.591467 0.871673 0.358143 -0.152455
C19   C     C_R   0.127010 0.721273 0.357589 -0.154977
C20   C     C_R   0.277524 0.394985 0.359285 -0.141057
C21   C     C_R   0.628044 0.889268 0.311953 -0.096723
C22   C     C_R   0.113582 0.732567 0.310343 -0.094597
C23   C     C_R   0.545549 0.762000 0.570669 0.535805
C24   C     C_R   0.257539 0.359953 0.313175 -0.099253
C25   C     C_R   0.638811 0.810635 0.284338 -0.013685
C26   C     C_R   0.191613 0.826471 0.283055 0.006591
C27   C     C_R   0.169032 0.352259 0.284982 -0.004747
C28   C     C_R   0.247971 0.777836 0.427287 0.559182
C29   C     C_R   0.221370 0.466767 0.427598 0.564461
C30   C     C_R   0.532476 0.753455 0.427612 0.555346
C31   C     C_R   0.617110 0.708244 0.307514 0.242705
C32   C     C_R   0.294577 0.903640 0.306528 0.254590
C33   C     C_R   0.093393 0.384981 0.307619 0.238569
C34   C     C_3   0.668144 0.714728 0.785201 0.114748
C35   C     C_R   0.579483 0.689074 0.354651 0.259417
C36   C     C_R   0.309459 0.889634 0.354286 0.256314
C37   C     C_R   0.112730 0.419975 0.354791 0.250523
C38   C     C_R   0.689582 0.758363 0.206374 -0.065423
C39   C     C_R   0.244959 0.934592 0.204530 -0.069176
C40   C     C_R   0.064819 0.302617 0.205668 -0.080897
C41   C     C_R   0.735072 0.777115 0.161838 0.221706
C42   C     C_R   0.234018 0.947016 0.157440 0.205066
C43   C     C_R   0.046593 0.276425 0.159109 0.204648
C44   C     C_R   0.745151 0.957682 0.163227 -0.102028
C45   C     C_3   0.279477 0.948753 0.785776 0.114532
C46   C     C_R   0.050224 0.781001 0.160049 -0.100622
C47   C     C_R   0.212334 0.252684 0.161952 -0.113467
C48   C     C_R   0.699138 0.937698 0.209656 0.232406
C49   C     C_R   0.064671 0.763824 0.207898 0.240383
C50   C     C_R   0.228687 0.278455 0.210381 0.221301
C51   C     C_R   0.675756 0.835545 0.233297 -0.014394
C52   C     C_R   0.167162 0.840925 0.231691 0.006418
C53   C     C_R   0.152702 0.309225 0.233743 -0.000916
C54   C     C_R   0.763879 0.878668 0.140259 -0.017642
C55   C     C_R   0.132741 0.873306 0.135293 -0.028245
C56   C     C_3   0.046320 0.326318 0.787607 0.111694
C57   C     C_R   0.122934 0.250682 0.136490 -0.025294
C58   C     C_R   0.092093 0.198911 0.090785 0.571633
C59   C     C_R   0.833996 0.907444 0.097935 0.486118
C60   C     C_R   0.106964 0.907666 0.091039 0.564710
C61   C     C_3   0.552272 0.823943 0.744563 -0.164647
C62   C     C_3   0.175237 0.720106 0.744018 -0.162896
C63   C     C_3   0.278440 0.467927 0.745378 -0.158486
C64   C     C_3   0.757461 0.915921 0.720005 -0.263319
C65   C     C_3   0.083100 0.828355 0.720855 -0.279091
C66   C     C_3   0.182450 0.265607 0.723580 -0.283236
C67   C     C_3   0.643738 0.708957 0.730220 0.146644
C68   C     C_3   0.794269 0.922780 0.772898 -0.210264
C69   C     C_3   0.067487 0.846261 0.774576 -0.214149
C70   C     C_3   0.178332 0.242555 0.778067 -0.200961
C71   C     C_1   0.754957 0.870563 0.897582 0.068383
C72   C     C_1   0.130460 0.881196 0.898358 0.071648
C73   C     C_1   0.124758 0.255360 0.899608 0.080841
C74   C     C_3   0.639541 0.812515 0.712047 0.009662
C75   C     C_3   0.192574 0.820498 0.713188 -0.016779
C76   C     C_3   0.179199 0.374291 0.714555 -0.007361
C77   C     C_3   0.587478 0.842778 0.797008 0.082179
C78   C     C_3   0.291799 0.932351 0.731893 0.138971
C79   C     C_3   0.169417 0.741341 0.798204 0.065233
C80   C     C_3   0.257441 0.447974 0.799454 0.063577
C81   C     C_3   0.696244 0.832700 0.804401 0.022719
C82   C     C_3   0.165559 0.851225 0.805604 0.029317
C83   C     C_3   0.154427 0.326100 0.807856 0.019515
C84   C     C_3   0.060227 0.352989 0.732551 0.143664
Cl1   Cl    Cl    0.610283 0.975693 0.816009 -0.476704
Cl2   Cl    Cl    0.688129 0.051030 0.232233 -0.424880
Cl3   Cl    Cl    0.939442 0.673450 0.233299 -0.454813
Cl4   Cl    Cl    0.343283 0.265290 0.235093 -0.466697
Cl5   Cl    Cl    0.625506 0.593199 0.283577 -0.386798
Cl6   Cl    Cl    0.418004 0.000638 0.280623 -0.411519
Cl7   Cl    Cl    0.971837 0.385724 0.282986 -0.414811
Cl8   Cl    Cl    0.548379 0.556686 0.378982 -0.445869
Cl9   Cl    Cl    0.434314 0.998238 0.380272 -0.435840
Cl10  Cl    Cl    0.013138 0.454870 0.379183 -0.458803
Cl11  Cl    Cl    0.515739 0.606876 0.713471 -0.676743
Cl12  Cl    Cl    0.048356 0.624129 0.823360 -0.511769
Cl13  Cl    Cl    0.423005 0.954829 0.714209 -0.614815
Cl14  Cl    Cl    0.065795 0.482357 0.717012 -0.643896
Cl15  Cl    Cl    0.387054 0.474284 0.828169 -0.553666
Cl16  Cl    Cl    0.778579 0.682991 0.797256 -0.564340
Cl17  Cl    Cl    0.284992 0.077205 0.795209 -0.632269
Cl18  Cl    Cl    0.920744 0.202951 0.800103 -0.598031
Cl19  Cl    Cl    0.756721 0.672064 0.137028 -0.448158
Cl20  Cl    Cl    0.352735 0.058632 0.128987 -0.426718
Cl21  Cl    Cl    0.930892 0.279712 0.131806 -0.435387
Cr1   Cr    Cr6+3 0.164410 0.584450 0.499910 1.120230
Cr2   Cr    Cr6+3 0.415550 0.579960 0.499910 1.118660
Cr3   Cr    Cr6+3 0.420040 0.835590 0.499910 1.114884
Cr4   Cr    Cr6+3 0.156760 0.076070 0.017830 1.133965
Cr5   Cr    Cr6+3 0.923930 0.080690 0.017830 1.145616
Cr6   Cr    Cr6+3 0.919310 0.843240 0.017830 1.144844
H1    H     H_    0.463427 0.754890 0.742479 0.151613
H2    H     H_    0.664273 0.687082 0.217185 0.245524
H3    H     H_    0.312583 0.002827 0.216768 0.254477
H4    H     H_    0.005316 0.320802 0.218819 0.251430
H5    H     H_    0.654593 0.961500 0.300677 0.249856
H6    H     H_    0.044654 0.660542 0.297671 0.252785
H7    H     H_    0.315575 0.337624 0.300079 0.251536
H8    H     H_    0.770544 0.037144 0.146426 0.215186
H9    H     H_    0.972738 0.724169 0.142701 0.228843
H10   H     H_    0.269487 0.229863 0.144804 0.213507
H11   H     H_    0.549479 0.892529 0.731062 0.249163
H12   H     H_    0.246674 0.702645 0.737219 0.158551
H13   H     H_    0.080902 0.653375 0.737010 0.269369
H14   H     H_    0.342689 0.443963 0.738152 0.254151
H15   H     H_    0.820302 0.911663 0.696429 0.119382
H16   H     H_    0.087729 0.897011 0.699900 0.130384
H17   H     H_    0.111108 0.194236 0.705884 0.135418
H18   H     H_    0.756382 0.993147 0.710487 0.192313
H19   H     H_    0.007302 0.753513 0.707888 0.174914
H20   H     H_    0.260282 0.271508 0.708195 0.175928
H21   H     H_    0.818795 0.006167 0.786884 0.250897
H22   H     H_    0.987451 0.778609 0.787390 0.245819
H23   H     H_    0.292685 0.552234 0.738614 0.178799
H24   H     H_    0.264756 0.257237 0.789281 0.252437
H25   H     H_    0.870490 0.912373 0.774900 0.138792
H26   H     H_    0.063865 0.924118 0.778508 0.152349
H27   H     H_    0.114983 0.152498 0.785602 0.169927
H28   H     H_    0.707614 0.699358 0.710226 0.197538
H29   H     H_    0.290357 0.999935 0.711812 0.211578
H30   H     H_    0.989152 0.283338 0.712733 0.192794
H31   H     H_    0.592934 0.649231 0.804297 0.239942
H32   H     H_    0.351356 0.954908 0.805712 0.219444
H33   H     H_    0.034184 0.389625 0.806020 0.232978
H34   H     H_    0.517551 0.779520 0.818934 0.150200
H35   H     H_    0.242067 0.745297 0.817127 0.143595
H36   H     H_    0.238152 0.512731 0.815841 0.163290
H37   H     H_    0.585594 0.936045 0.377704 0.228623
H38   H     H_    0.060307 0.653902 0.377310 0.230846
H39   H     H_    0.343996 0.392614 0.379181 0.225733
O1    O     O_R   0.137310 0.468260 0.552980 -0.482236
O2    O     O_R   0.139940 0.470480 0.446230 -0.439839
O3    O     O_R   0.529520 0.669460 0.446230 -0.441421
O4    O     O_R   0.330540 0.860060 0.446230 -0.439633
O5    O     O_R   0.176560 0.690850 0.450770 -0.489625
O6    O     O_R   0.309150 0.485710 0.450770 -0.491223
O7    O     O_R   0.514290 0.823440 0.450770 -0.498240
O8    O     O_3   0.333333 0.666667 0.499990 -0.353739
O9    O     O_3   1.000000 0.000000 0.017910 -0.326770
O10   O     O_R   0.149710 0.171070 0.967700 -0.487077
O11   O     O_R   0.828930 0.978640 0.967700 -0.483015
O12   O     O_R   0.531740 0.669050 0.552980 -0.480274
O13   O     O_R   0.021360 0.850290 0.967700 -0.483109
O14   O     O_R   0.178510 0.985930 0.071830 -0.444507
O15   O     O_R   0.014070 0.192580 0.071830 -0.447293
O16   O     O_R   0.807420 0.821490 0.071830 -0.402794
O17   O     O_R   0.147830 0.173300 0.066650 -0.501169
O18   O     O_R   0.826700 0.974530 0.066650 -0.464004
O19   O     O_R   0.025470 0.852170 0.066650 -0.499136
O20   O     O_R   0.330950 0.862690 0.552980 -0.472377
O21   O     O_R   0.180530 0.983530 0.965090 -0.480484
O22   O     O_R   0.016470 0.197000 0.965090 -0.475048
O23   O     O_R   0.803000 0.819470 0.965090 -0.476190
O24   O     O_R   0.174120 0.688790 0.549730 -0.492137
O25   O     O_R   0.311210 0.485330 0.549730 -0.488281
O26   O     O_R   0.514670 0.825880 0.549730 -0.498021

loop_
_geom_bond_atom_site_label_1
_geom_bond_atom_site_label_2
_ccdc_geom_bond_type
C25   C31   A    
C30   O7    A    
C28   O4    A    
Cr3   O7    S    
C16   C28   S    
Cr3   O20   S    
C22   H6    S    
C18   C21   A    
C17   C29   S    
C49   Cl3   S    
C15   C18   A    
C45   C82   S    
C24   C27   A    
C20   H39   S    
C76   C84   S    
C6    C9    T    
C62   H13   S    
C65   H19   S    
Cr5   O9    S    
C6    C75   S    
C27   C33   A    
C26   C32   A    
C4    C83   S    
C46   C49   A    
C15   C30   S    
C60   O19   A    
C64   C68   S    
C18   H37   S    
C33   Cl7   S    
Cr5   O15   S    
C47   H10   S    
C40   H4    S    
Cr3   O8    S    
C63   C76   S    
C1    O20   A    
C5    C74   S    
C17   C20   A    
C3    C82   S    
C43   Cl21  S    
C7    C10   T    
C14   O13   A    
C68   H21   S    
C58   O15   A    
Cr6   O9    S    
C69   C82   S    
Cr4   O17   S    
C19   H38   S    
Cr5   O18   S    
C36   Cl9   S    
C48   C51   A    
C32   Cl6   S    
C20   C24   A    
C61   C77   S    
C31   Cl5   S    
C46   C55   A    
C28   O5    A    
C34   Cl16  S    
C45   C78   S    
C34   C81   S    
C47   C50   A    
C67   H28   S    
Cr2   O6    S    
C50   Cl4   S    
C63   C80   S    
C23   O12   A    
C35   Cl8   S    
C39   H3    S    
C39   C52   A    
C77   Cl1   S    
C11   O22   A    
C55   C60   S    
C67   Cl11  S    
C12   O1    A    
C8    C23   S    
C21   H5    S    
C10   C12   S    
C15   C35   A    
C62   H12   S    
Cr5   O11   S    
C11   O10   A    
C56   C84   S    
C39   C42   A    
C54   C59   S    
C30   O3    A    
C69   H26   S    
C1    O24   A    
C50   C53   A    
Cr1   O2    S    
C46   H9    S    
C63   H23   S    
C79   H35   S    
C68   H25   S    
C19   C22   A    
C1    C9    S    
C38   C41   A    
C11   C73   S    
Cr6   O16   S    
C38   H2    S    
C38   C51   A    
C13   C71   S    
C44   H8    S    
Cr1   O8    S    
C33   C37   A    
C41   Cl19  S    
C42   Cl20  S    
C61   H11   S    
Cr6   O19   S    
C13   O23   A    
C25   C51   S    
C58   O17   A    
C26   C52   S    
C42   C55   A    
C47   C57   A    
C62   C79   S    
Cr2   O12   S    
C77   C81   S    
C49   C52   A    
C66   C76   S    
C40   C43   A    
C78   Cl13  S    
Cr1   O24   S    
Cr6   O13   S    
C67   C74   S    
C17   C37   A    
C70   C83   S    
C4    C73   T    
Cr2   O3    S    
C59   O16   A    
C45   Cl17  S    
C29   O6    A    
C70   H27   S    
C64   H15   S    
C12   O25   A    
C80   Cl15  S    
C70   H24   S    
C31   C35   A    
C62   C75   S    
C63   H14   S    
C5    C8    T    
C68   C81   S    
C2    C71   T    
Cr4   O9    S    
C32   C36   A    
Cr2   O8    S    
C56   C83   S    
C80   C83   S    
C66   H20   S    
C21   C25   A    
C34   H31   S    
C69   H22   S    
Cr1   O1    S    
Cr6   O23   S    
C14   C72   S    
C65   H16   S    
Cr1   O5    S    
C14   O21   A    
Cr4   O14   S    
C78   H29   S    
C34   C67   S    
C79   C82   S    
C27   C53   S    
C13   O11   A    
C7    C76   S    
C23   O26   A    
C61   C74   S    
C80   H36   S    
C24   H7    S    
C65   C75   S    
C84   Cl14  S    
C3    C72   T    
C56   Cl18  S    
C79   Cl12  S    
C44   C48   A    
C16   C36   A    
C29   O2    A    
C61   H1    S    
C57   C58   S    
C66   C70   S    
C77   H34   S    
Cr2   O25   S    
C84   H30   S    
C16   C19   A    
C65   C69   S    
Cr3   O26   S    
C60   O14   A    
C66   H17   S    
C37   Cl10  S    
C48   Cl2   S    
C75   C78   S    
C41   C54   A    
C43   C57   A    
C56   H33   S    
C44   C54   A    
Cr3   O4    S    
C64   H18   S    
C40   C53   A    
C22   C26   A    
C45   H32   S    
C64   C74   S    
C2    C81   S    
Cr4   O10   S    
C59   O18   A    
Cr4   O21   S    
Cr5   O22   S    
