data_mof_unit_30573.cif
_audit_creation_date              2012-12-10T18:11:50-0500
_audit_creation_method            fapswitch 2.2
_symmetry_space_group_name_H-M    P1
_symmetry_Int_Tables_number       1
_space_group_crystal_system       triclinic
_cell_length_a                    15.845477
_cell_length_b                    10.749854
_cell_length_c                    9.464044
_cell_angle_alpha                 90.262558
_cell_angle_beta                  90.304439
_cell_angle_gamma                 89.020875
_cell_volume                      1611.7983384

loop_
_atom_site_label
_atom_site_type_symbol
_atom_type_description
_atom_site_fract_x
_atom_site_fract_y
_atom_site_fract_z
_atom_type_partial_charge
C1    C     C_R   0.500462 0.259903 0.499685 0.787112
C2    C     C_3   0.082850 0.499236 0.498080 0.162062
C3    C     C_3   0.971296 0.586493 0.588931 -0.169641
C4    C     C_3   0.917052 0.499895 0.497580 0.112427
C5    C     C_3   0.027182 0.612382 0.458491 -0.192288
C6    C     C_3   0.972006 0.525206 0.368687 0.035141
C7    C     C_1   0.174557 0.499171 0.498731 -0.024296
C8    C     C_1   0.825327 0.499857 0.499626 0.002718
C9    C     C_3   0.577328 0.068842 0.589509 -0.131507
C10   C     C_3   0.577275 0.924457 0.586473 -0.427421
C11   C     C_3   0.418664 0.074752 0.566627 -0.418123
C12   C     C_R   0.339923 0.499782 0.499740 0.829170
C13   C     C_3   0.505421 0.069575 0.346327 -0.360019
C14   C     C_3   0.501550 0.121620 0.499677 0.073280
C15   C     C_3   0.500384 0.877833 0.500574 0.136030
C16   C     C_3   0.418267 0.930938 0.567782 -0.375099
C17   C     C_3   0.506747 0.927467 0.347207 -0.370336
C18   C     C_3   0.547950 0.608812 0.085080 -0.198652
C19   C     C_3   0.548061 0.609629 0.918219 -0.171711
C20   C     C_3   0.543906 0.385930 0.080435 -0.071717
C21   C     C_3   0.413633 0.506060 0.079898 -0.037413
C22   C     C_3   0.540471 0.387054 0.912995 -0.221884
C23   C     C_R   0.499702 0.740000 0.500224 0.763500
C24   C     C_3   0.414587 0.508904 0.913372 -0.222077
C25   C     C_R   0.660053 0.499938 0.500271 0.863245
C26   C     C_3   0.973125 0.387016 0.537026 -0.184469
C27   C     C_3   0.029037 0.412401 0.406450 -0.192361
C28   C     C_1   0.250169 0.499376 0.499221 -0.138593
C29   C     C_1   0.749746 0.499928 0.500513 -0.128107
C30   C     C_3   0.028640 0.473598 0.628528 -0.128240
Cu1   Cu    Cu3+1 0.500040 0.499860 0.642410 0.913426
Cu2   Cu    Cu3+1 0.499960 0.500140 0.357590 0.954026
H1    H     H_    0.574500 0.889469 0.696883 0.155436
H2    H     H_    0.412252 0.110336 0.676765 0.168560
H3    H     H_    0.412517 0.897791 0.678519 0.176048
H4    H     H_    0.449559 0.103297 0.284676 0.157782
H5    H     H_    0.561995 0.102057 0.290548 0.246261
H6    H     H_    0.566013 0.892333 0.297062 0.184762
H7    H     H_    0.452903 0.894008 0.282469 0.196848
H8    H     H_    0.363070 0.110516 0.505873 0.163886
H9    H     H_    0.362337 0.897366 0.508041 0.161431
H10   H     H_    0.613378 0.611517 0.126430 0.183386
H11   H     H_    0.949741 0.294719 0.569456 0.151176
H12   H     H_    0.521553 0.697831 0.124348 0.190930
H13   H     H_    0.519485 0.699009 0.881573 0.158949
H14   H     H_    0.614255 0.607413 0.879761 0.168540
H15   H     H_    0.603945 0.373376 0.865191 0.203965
H16   H     H_    0.380984 0.419322 0.110931 0.101161
H17   H     H_    0.381809 0.593406 0.870954 0.173152
H18   H     H_    0.508700 0.302990 0.115488 0.101144
H19   H     H_    0.503806 0.305148 0.877728 0.132583
H20   H     H_    0.050463 0.704642 0.425676 0.153514
H21   H     H_    0.946491 0.657697 0.663965 0.156610
H22   H     H_    0.053400 0.452312 0.735832 0.157650
H23   H     H_    0.566964 0.098530 0.701164 0.127552
H24   H     H_    0.636350 0.884955 0.539902 0.177431
N1    N     N_3   0.501840 0.500250 0.143650 -0.201357
N2    N     N_3   0.501160 0.503300 0.856280 -0.143350
O1    O     O_R   0.500050 0.317570 0.620260 -0.597558
O2    O     O_R   0.499980 0.317810 0.379740 -0.582177
O3    O     O_R   0.379110 0.499870 0.620240 -0.600608
O4    O     O_R   0.379040 0.500110 0.379720 -0.565899
O5    O     O_R   0.500020 0.682190 0.620260 -0.599592
O6    O     O_R   0.499950 0.682430 0.379740 -0.597438
O7    O     O_R   0.620960 0.499890 0.620280 -0.576032
O8    O     O_R   0.620890 0.500130 0.379760 -0.561393
H25   H     H_    0.053822 0.341374 0.331161 0.151549
C31   C     C_2   0.634802 0.365024 0.129173 0.889833
O9    O     O_2   0.691957 0.425888 0.079424 -0.606912
O10   O     O_R   0.654098 0.271824 0.226586 -0.758199
H26   H     H_    0.716600 0.266820 0.249855 0.356479
C32   C     C_2   0.356916 0.614142 0.128848 0.879325
O11   O     O_2   0.286983 0.592177 0.175946 -0.594832
O12   O     O_R   0.378504 0.737594 0.104071 -0.821669
H27   H     H_    0.333320 0.799140 0.136366 0.321447
H28   H     H_    0.377972 0.428710 0.872722 0.140874
C33   C     C_2   0.942120 0.554453 0.221879 0.831094
O13   O     O_2   0.993775 0.571633 0.128862 -0.588220
O14   O     O_R   0.855783 0.562130 0.191890 -0.738011
H29   H     H_    0.843777 0.582623 0.089197 0.350645
C34   C     C_2   0.662255 0.119002 0.547328 0.835745
O15   O     O_2   0.696009 0.084742 0.437642 -0.593337
O16   O     O_R   0.702840 0.203180 0.636628 -0.774753
H30   H     H_    0.759432 0.229542 0.598476 0.327404

loop_
_geom_bond_atom_site_label_1
_geom_bond_atom_site_label_2
_ccdc_geom_bond_type
Cu1   O3    S    
C2    C7    S    
C4    C8    S    
C34   O15   D    
C19   H14   S    
Cu1   Cu2   S    
C33   O13   D    
C30   H22   S    
C26   C27   S    
C12   C28   S    
C8    C29   T    
Cu1   N2    S    
C10   C15   S    
C1    O1    A    
C16   H3    S    
C5    C6    S    
C11   C14   S    
C15   C16   S    
Cu1   O7    S    
C18   C19   S    
C17   H7    S    
Cu1   O1    S    
C20   H18   S    
O16   H30   S    
C31   O9    D    
C5    H20   S    
O10   H26   S    
C9    H23   S    
C10   H24   S    
C9    C10   S    
C13   H5    S    
C21   H16   S    
C15   C23   S    
C22   H15   S    
C13   C14   S    
Cu2   N1    S    
C34   O16   S    
C26   H11   S    
C33   O14   S    
C19   N2    S    
C25   C29   S    
O12   H27   S    
C21   C32   S    
Cu1   O5    S    
C25   O7    A    
Cu2   O6    S    
C13   H4    S    
C4    C6    S    
C1    O2    A    
C24   H28   S    
C6    C33   S    
C7    C28   T    
C3    C30   S    
C9    C14   S    
C21   N1    S    
C18   H12   S    
C12   O4    A    
C11   C16   S    
C18   N1    S    
C6    C27   S    
C2    C27   S    
C32   O12   S    
C23   O6    A    
C20   C22   S    
C26   C30   S    
C2    C5    S    
Cu2   O2    S    
C3    C4    S    
Cu2   O8    S    
C24   H17   S    
C15   C17   S    
C20   C31   S    
C11   H2    S    
C25   O8    A    
C32   O11   D    
C3    C5    S    
C22   N2    S    
C4    C26   S    
C19   H13   S    
C13   C17   S    
C2    C30   S    
C18   H10   S    
Cu2   O4    S    
C12   O3    A    
C3    H21   S    
C23   O5    A    
C10   H1    S    
C17   H6    S    
C11   H8    S    
C27   H25   S    
O14   H29   S    
C24   N2    S    
C21   C24   S    
C31   O10   S    
C1    C14   S    
C20   N1    S    
C16   H9    S    
C9    C34   S    
C22   H19   S    
