data_mof_unit_49277.cif
_audit_creation_date              2012-10-26T20:33:00-0400
_audit_creation_method            fapswitch 2.2
_symmetry_space_group_name_H-M    P1
_symmetry_Int_Tables_number       1
_space_group_crystal_system       triclinic
_cell_length_a                    27.81388
_cell_length_b                    10.853543
_cell_length_c                    9.536779
_cell_angle_alpha                 90.049211
_cell_angle_beta                  89.862454
_cell_angle_gamma                 90.255448
_cell_volume                      2878.91672316

loop_
_atom_site_label
_atom_site_type_symbol
_atom_type_description
_atom_site_fract_x
_atom_site_fract_y
_atom_site_fract_z
_atom_type_partial_charge
C1    C     C_R   0.500004 0.262712 0.499818 0.557273
C2    C     C_R   0.974325 0.384507 0.514184 0.019030
C3    C     C_R   0.974689 0.611782 0.498804 0.019035
C4    C     C_R   0.407457 0.499787 0.500145 0.547929
C5    C     C_R   0.949256 0.498119 0.506656 0.034203
C6    C     C_R   0.947177 0.273826 0.514641 -0.139285
C7    C     C_R   0.897254 0.274964 0.512867 -0.109620
C8    C     C_R   0.872297 0.386224 0.510111 0.024718
C9    C     C_R   0.898119 0.498075 0.506834 -0.026947
C10   C     C_R   0.872670 0.609889 0.503576 0.025185
C11   C     C_R   0.822193 0.607829 0.503792 0.398574
C12   C     C_R   0.278889 0.484414 0.627532 -0.056190
C13   C     C_R   0.821819 0.388204 0.509070 0.399653
C14   C     C_R   0.720341 0.455386 0.620814 -0.049605
C15   C     C_R   0.670210 0.455779 0.619255 -0.131159
C16   C     C_R   0.500032 0.737317 0.499891 0.555611
C17   C     C_R   0.671535 0.541520 0.384586 -0.139202
C18   C     C_R   0.721653 0.540993 0.386214 -0.050692
C19   C     C_R   0.746266 0.498003 0.504314 0.237519
C20   C     C_R   0.025406 0.385022 0.519823 0.018947
C21   C     C_R   0.050829 0.498205 0.505379 0.034181
C22   C     C_R   0.025753 0.611360 0.491800 0.018936
C23   C     C_R   0.253654 0.498331 0.501791 0.244433
C24   C     C_R   0.052213 0.275941 0.540389 -0.140052
C25   C     C_R   0.102790 0.719037 0.467532 -0.111271
C26   C     C_R   0.947909 0.722421 0.499147 -0.139492
C27   C     C_R   0.897987 0.721201 0.501205 -0.109802
C28   C     C_R   0.592505 0.499768 0.500051 0.558638
C29   C     C_R   0.052873 0.720484 0.470369 -0.139995
C30   C     C_R   0.503103 0.062307 0.620880 0.018797
C31   C     C_R   0.499778 0.130151 0.498153 0.011515
C32   C     C_R   0.496280 0.064470 0.370721 -0.146044
C33   C     C_R   0.496303 0.935283 0.370805 -0.148973
C34   C     C_R   0.101963 0.498224 0.504439 -0.027087
C35   C     C_R   0.499749 0.869926 0.498338 0.017650
C36   C     C_R   0.502925 0.938111 0.621037 0.006934
C37   C     C_3   0.508322 0.928807 0.776289 -0.263491
C38   C     C_3   0.508335 0.071194 0.776381 -0.059317
C39   C     C_R   0.525453 0.587137 0.073559 0.152413
C40   C     C_R   0.177917 0.389620 0.521434 0.398308
C41   C     C_R   0.471372 0.421556 0.074581 0.017968
C42   C     C_R   0.471318 0.421677 0.925612 0.033502
C43   C     C_R   0.525410 0.587256 0.926019 0.149186
C44   C     C_3   0.578379 0.607818 0.919657 -0.266509
C45   C     C_R   0.127437 0.387516 0.522378 0.024561
C46   C     C_3   0.578464 0.606875 0.078419 -0.275911
C47   C     C_R   0.178230 0.606857 0.484497 0.398745
C48   C     C_R   0.278770 0.512597 0.375444 -0.056429
C49   C     C_R   0.328910 0.512726 0.374651 -0.142879
C50   C     C_R   0.329022 0.485163 0.627174 -0.142514
C51   C     C_2   0.555236 0.129229 0.820977 0.596114
C52   C     C_R   0.102142 0.277422 0.541400 -0.111407
C53   C     C_R   0.127760 0.608942 0.485520 0.024392
C54   C     C_R   0.354507 0.499255 0.500635 0.006314
C55   C     C_R   0.645380 0.498819 0.500991 0.009515
Cu1   Cu    Cu3+1 0.500000 0.499980 0.640670 0.966702
Cu2   Cu    Cu3+1 0.500000 0.500020 0.359330 0.954492
H1    H     H_    0.347761 0.474268 0.725779 0.125881
H2    H     H_    0.493638 0.887366 0.271430 0.138471
H3    H     H_    0.475990 0.887717 0.826915 0.122304
H4    H     H_    0.259587 0.473477 0.725519 0.128019
H5    H     H_    0.543018 0.886090 0.806529 0.156969
H6    H     H_    0.476159 0.111852 0.827787 0.101919
H7    H     H_    0.449005 0.356250 0.130607 0.111917
H8    H     H_    0.448934 0.356423 0.869752 0.109745
H9    H     H_    0.598053 0.528420 0.874196 0.156803
H10   H     H_    0.587917 0.698946 0.874271 0.133749
H11   H     H_    0.597743 0.525979 0.121512 0.155779
H12   H     H_    0.259371 0.523264 0.277915 0.128350
H13   H     H_    0.588248 0.697308 0.125396 0.132352
H14   H     H_    0.120882 0.191258 0.557301 0.167449
H15   H     H_    0.650923 0.421204 0.709856 0.132317
H16   H     H_    0.739093 0.422167 0.712592 0.138661
H17   H     H_    0.878255 0.187584 0.513432 0.168897
H18   H     H_    0.963320 0.183879 0.513535 0.106621
H19   H     H_    0.035794 0.187434 0.558818 0.107663
H20   H     H_    0.347569 0.523878 0.275632 0.129022
H21   H     H_    0.588210 0.254719 0.944207 0.334664
H22   H     H_    0.121778 0.805222 0.450979 0.167749
H23   H     H_    0.964350 0.812374 0.500492 0.106567
H24   H     H_    0.653380 0.577228 0.293395 0.116656
H25   H     H_    0.879273 0.808550 0.500900 0.168573
H26   H     H_    0.741432 0.574211 0.295799 0.136879
H27   H     H_    0.036705 0.808994 0.452514 0.107764
H28   H     H_    0.493547 0.112125 0.271324 0.149332
N1    N     N_R   0.202137 0.498244 0.502490 -0.399407
N2    N     N_R   0.797866 0.497998 0.505994 -0.399836
N3    N     N_R   0.500300 0.500930 0.147930 -0.230394
N4    N     N_R   0.500310 0.500890 0.852020 -0.223013
O1    O     O_R   0.500000 0.319640 0.618810 -0.492659
O2    O     O_R   0.569730 0.499960 0.618810 -0.501257
O3    O     O_R   0.569740 0.500000 0.381220 -0.501828
O4    O     O_2   0.202636 0.283954 0.538371 -0.490170
O5    O     O_2   0.593205 0.097097 0.767460 -0.500454
O6    O     O_R   0.554906 0.220957 0.923815 -0.705699
O7    O     O_2   0.796857 0.281269 0.509863 -0.481407
O8    O     O_2   0.203258 0.712545 0.466661 -0.488918
O9    O     O_2   0.797586 0.714739 0.502713 -0.485256
O10   O     O_R   0.500010 0.319680 0.381230 -0.505835
O11   O     O_R   0.430260 0.500000 0.618780 -0.512439
O12   O     O_R   0.430270 0.500040 0.381190 -0.510210
O13   O     O_R   0.499990 0.680320 0.618770 -0.500340
O14   O     O_R   0.500000 0.680360 0.381190 -0.509054

loop_
_geom_bond_atom_site_label_1
_geom_bond_atom_site_label_2
_ccdc_geom_bond_type
C10   C27   A    
C24   C52   A    
C8    C13   A    
C22   C29   A    
C41   C42   A    
C44   H9    S    
C35   C36   A    
C40   O4    S    
C1    O10   A    
C37   H5    S    
C6    H18   S    
C46   H11   S    
C15   H15   S    
C12   C23   A    
C26   C27   A    
C50   C54   A    
C11   O9    S    
C36   C37   S    
Cu2   O3    S    
C25   C53   A    
C19   N2    S    
C16   C35   S    
C30   C31   A    
C49   C54   A    
Cu2   O10   S    
C1    C31   S    
Cu1   Cu2   S    
C30   C38   S    
C18   C19   A    
C40   N1    A    
Cu1   O2    S    
C20   C24   A    
C11   N2    A    
C8    C9    A    
C23   N1    S    
C42   H8    S    
C9    C10   A    
C17   C55   A    
C47   C53   A    
Cu1   O1    S    
C33   H2    S    
C21   C22   A    
C2    C6    A    
C39   N3    A    
C28   C55   S    
C44   C46   S    
C18   H26   S    
C7    H17   S    
C27   H25   S    
C48   H12   S    
C25   C29   A    
C40   C45   A    
Cu2   O14   S    
C13   O7    S    
C2    C20   A    
C50   H1    S    
C47   N1    A    
C7    C8    A    
C29   H27   S    
C24   H19   S    
C39   C43   A    
C21   C34   A    
C45   C52   A    
C26   H23   S    
C15   C55   A    
C43   C44   S    
C14   H16   S    
C5    C9    A    
C37   C38   S    
C16   O14   A    
C31   C32   A    
H21   O6    S    
C4    O12   A    
C13   N2    A    
C17   C18   A    
C28   O3    A    
C34   C45   A    
C43   N4    A    
C39   C46   S    
C16   O13   A    
C48   C49   A    
C4    O11   A    
C2    C5    A    
Cu1   O11   S    
C1    O1    A    
C38   H6    S    
C41   N3    A    
Cu1   N4    S    
C23   C48   A    
C4    C54   S    
C25   H22   S    
C14   C19   A    
C3    C26   A    
C3    C22   A    
C3    C5    A    
C12   C50   A    
C6    C7    A    
C38   C51   S    
Cu2   O12   S    
C47   O8    S    
Cu2   N3    S    
C30   C36   A    
C42   N4    A    
C32   C33   A    
Cu1   O13   S    
C52   H14   S    
C12   H4    S    
C32   H28   S    
C33   C35   A    
C49   H20   S    
C28   O2    A    
C17   H24   S    
C46   H13   S    
C37   H3    S    
C10   C11   A    
C51   O5    D    
C20   C21   A    
C34   C53   A    
C14   C15   A    
C44   H10   S    
C41   H7    S    
C51   O6    S    
