data_mof_unit_55133.cif
_audit_creation_date              2012-12-11T17:37:45-0500
_audit_creation_method            fapswitch 2.2
_symmetry_space_group_name_H-M    P1
_symmetry_Int_Tables_number       1
_space_group_crystal_system       triclinic
_cell_length_a                    12.971805
_cell_length_b                    13.033743
_cell_length_c                    15.303821
_cell_angle_alpha                 116.10648
_cell_angle_beta                  64.356975
_cell_angle_gamma                 96.674035
_cell_volume                      2085.79646273

loop_
_atom_site_label
_atom_site_type_symbol
_atom_type_description
_atom_site_fract_x
_atom_site_fract_y
_atom_site_fract_z
_atom_type_partial_charge
C1    C     C_R   0.022853 0.834002 0.030243 -0.129221
C2    C     C_R   0.319539 0.538465 0.780602 -0.161100
C3    C     C_R   0.245837 0.477016 0.104735 -0.180184
C4    C     C_R   0.701722 0.406345 0.208902 -0.155038
C5    C     C_R   0.984717 0.302519 0.697868 -0.162188
C6    C     C_R   0.338990 0.535612 0.070725 0.173434
C7    C     C_R   0.925494 0.209390 0.699014 0.054980
C8    C     C_R   0.324815 0.473295 0.678861 0.054536
C9    C     C_R   0.080708 0.145183 0.975009 0.024099
C10   C     C_R   0.299356 0.739224 0.346257 -0.103663
C11   C     C_R   0.189562 0.789867 0.385614 -0.124786
C12   C     C_R   0.704962 0.438043 0.305857 0.059298
C13   C     C_R   0.176262 0.894380 0.384178 0.132302
C14   C     C_R   0.274116 0.945716 0.340038 -0.175999
C15   C     C_R   0.383769 0.894020 0.299507 -0.109257
C16   C     C_R   0.739438 0.578691 0.948026 -0.153962
C17   C     C_R   0.396314 0.791900 0.304320 -0.071747
C18   C     C_R   0.043012 0.056542 0.537549 -0.242936
C19   C     C_R   0.934079 0.115089 0.603114 0.062704
C20   C     C_R   0.839979 0.079994 0.577903 0.022342
C21   C     C_R   0.859429 0.981657 0.483128 -0.244739
C22   C     C_R   0.969208 0.922963 0.418141 0.057977
C23   C     C_R   0.638041 0.560958 0.021196 0.143832
C24   C     C_R   0.061798 0.959196 0.444871 0.006629
C25   C     C_R   0.625746 0.083455 0.674033 -0.166991
C26   C     C_R   0.516285 0.142645 0.740025 -0.110755
C27   C     C_R   0.503057 0.261911 0.780374 -0.086546
C28   C     C_R   0.960533 0.717726 0.315601 -0.147125
C29   C     C_R   0.599231 0.322190 0.754490 -0.119325
C30   C     C_R   0.708684 0.263330 0.688288 -0.115261
C31   C     C_R   0.723430 0.143273 0.647892 0.124064
C32   C     C_R   0.917866 0.264180 0.366481 -0.106346
C33   C     C_R   0.811945 0.291515 0.374503 -0.139339
C34   C     C_R   0.986286 0.824784 0.321711 0.060945
C35   C     C_R   0.738284 0.385301 0.465443 0.126510
C36   C     C_R   0.772253 0.451332 0.548362 -0.175469
C37   C     C_R   0.878432 0.424224 0.539757 -0.144220
C38   C     C_R   0.950844 0.330211 0.449213 -0.099898
C39   C     C_R   0.527863 0.425419 0.567031 -0.244580
C40   C     C_R   0.662397 0.481978 0.047852 -0.108622
C41   C     C_R   0.421366 0.460328 0.582169 0.065838
C42   C     C_R   0.408678 0.485726 0.506722 0.014866
C43   C     C_R   0.503564 0.466766 0.412631 -0.245148
C44   C     C_R   0.610926 0.433147 0.397103 0.067028
C45   C     C_R   0.324127 0.575520 0.007557 -0.136409
C46   C     C_R   0.625162 0.414202 0.475294 0.016778
C47   C     C_R   0.251409 0.491285 0.454358 -0.203249
C48   C     C_R   0.150970 0.543914 0.473441 -0.137729
C49   C     C_R   0.100003 0.647050 0.564872 -0.106955
C50   C     C_R   0.150413 0.698825 0.636513 -0.105834
C51   C     C_R   0.251468 0.647134 0.617240 -0.123765
C52   C     C_R   0.048639 0.818163 0.219995 -0.119309
C53   C     C_R   0.301855 0.541829 0.526830 0.126137
C54   C     C_2   0.434595 0.553763 0.097521 -0.188111
C55   C     C_2   0.525018 0.599886 0.047604 -0.218790
C56   C     C_R   0.903933 0.201597 0.791756 -0.128613
C57   C     C_2   0.892924 0.964067 0.025179 -0.205941
C58   C     C_2   0.875276 0.054200 0.118471 -0.166335
C59   C     C_R   0.800300 0.495691 0.306219 -0.125419
C60   C     C_R   0.926957 0.748471 0.929954 -0.147815
C61   C     C_R   0.949176 0.854058 0.993947 0.136712
C62   C     C_R   0.216432 0.447663 0.685661 -0.110666
C63   C     C_R   0.095249 0.251062 0.047307 -0.122180
C64   C     C_R   0.996457 0.167315 0.950327 -0.084166
H1    H     H_    0.064413 0.897973 0.074527 0.088010
H2    H     H_    0.309474 0.659833 0.349333 0.120396
H3    H     H_    0.115126 0.750366 0.421312 0.104015
H4    H     H_    0.643969 0.350535 0.179474 0.095302
H5    H     H_    0.265285 0.027307 0.339970 0.109429
H6    H     H_    0.458966 0.934401 0.266547 0.112509
H7    H     H_    0.113052 0.085125 0.561182 0.144501
H8    H     H_    0.790191 0.951295 0.458931 0.135968
H9    H     H_    0.634319 0.991148 0.644421 0.109483
H10   H     H_    0.441660 0.095990 0.760130 0.110791
H11   H     H_    0.418329 0.307567 0.831522 0.119924
H12   H     H_    0.853912 0.140535 0.819259 0.092291
H13   H     H_    0.588981 0.414564 0.785429 0.106258
H14   H     H_    0.781625 0.311597 0.668259 0.119837
H15   H     H_    0.032617 0.308710 0.443045 0.102715
H16   H     H_    0.746897 0.626482 0.903734 0.087426
H17   H     H_    0.974569 0.191865 0.296294 0.098453
H18   H     H_    0.786556 0.239809 0.310598 0.121557
H19   H     H_    0.716872 0.524231 0.619280 0.105196
H20   H     H_    0.904094 0.475497 0.603786 0.114118
H21   H     H_    0.534941 0.408135 0.627498 0.137275
H22   H     H_    0.495087 0.488549 0.355086 0.127731
H23   H     H_    0.190958 0.401591 0.620860 0.105227
H24   H     H_    0.289379 0.410841 0.383659 0.110244
H25   H     H_    0.112759 0.504879 0.417183 0.117989
H26   H     H_    0.021888 0.687245 0.579771 0.097675
H27   H     H_    0.111297 0.779143 0.706917 0.107584
H28   H     H_    0.921321 0.692634 0.380665 0.095208
H29   H     H_    0.289987 0.688603 0.673100 0.108625
H30   H     H_    0.437613 0.510362 0.142704 0.114211
H31   H     H_    0.520529 0.647859 0.006670 0.124686
H32   H     H_    0.856190 0.969620 0.975609 0.126802
H33   H     H_    0.905384 0.051148 0.173309 0.127631
H34   H     H_    0.154857 0.266190 0.082807 0.096116
H35   H     H_    0.604917 0.443146 0.097929 0.084451
H36   H     H_    0.092487 0.885368 0.199289 0.087873
H37   H     H_    0.832620 0.524901 0.366711 0.103678
H38   H     H_    0.882498 0.733756 0.880723 0.087502
H39   H     H_    0.370478 0.637502 0.979693 0.084724
H40   H     H_    0.964708 0.104602 0.895211 0.087915
H41   H     H_    0.388563 0.577038 0.802155 0.096863
H42   H     H_    0.224561 0.447405 0.165890 0.092989
H43   H     H_    0.009696 0.335946 0.638885 0.098346
H44   H     H_    0.481233 0.753184 0.275014 0.114405
N1    N     N_R   0.037320 0.720000 0.995830 -0.044170
N2    N     N_R   0.824900 0.517970 0.936430 -0.039044
N3    N     N_R   0.003190 0.648180 0.211390 -0.036790
N4    N     N_R   0.774330 0.457010 0.995830 -0.044452
N5    N     N_R   0.053760 0.709130 0.151980 -0.037838
N6    N     N_R   0.853840 0.498830 0.211390 -0.039703
N7    N     N_R   0.974250 0.667320 0.936430 -0.038477
N8    N     N_R   0.225670 0.542990 0.004170 -0.044288
N9    N     N_R   0.946240 0.290870 0.848020 -0.042299
N10   N     N_R   0.146160 0.501170 0.788610 -0.041532
N11   N     N_R   0.025750 0.332680 0.063570 -0.039544
N12   N     N_R   0.962680 0.280000 0.004170 -0.043456
N13   N     N_R   0.209230 0.553860 0.848010 -0.039934
N14   N     N_R   0.175100 0.482030 0.063570 -0.041384
N15   N     N_R   0.996810 0.351820 0.788610 -0.037685
N16   N     N_R   0.790770 0.446140 0.151990 -0.039141
Ni1   Ni    Ni4+2 0.130310 0.630310 0.000000 0.207466
Ni2   Ni    Ni4+2 0.869690 0.369690 0.000000 0.209642
Ni3   Ni    Ni4+2 0.985660 0.509480 0.863750 0.211575
Ni4   Ni    Ni4+2 0.014340 0.490520 0.136250 0.211839

loop_
_geom_bond_atom_site_label_1
_geom_bond_atom_site_label_2
_ccdc_geom_bond_type
C25   C31   A    
C56   H12   S    
C6    C45   A    
C27   C29   A    
C9    C64   A    
C41   C42   A    
C35   C36   A    
C49   H26   S    
C3    C6    A    
C40   H35   S    
C16   N2    A    
C39   C41   A    
C52   N5    A    
C32   H17   S    
C26   C27   A    
C29   C30   A    
N8    N14   A    
C18   C24   A    
N16   Ni2   S    
C36   C37   A    
C63   H34   S    
C42   C53   S    
C5    H43   S    
C30   C31   A    
C33   C35   A    
N12   Ni2   S    
N5    Ni1   S    
C38   H15   S    
C36   H19   S    
C23   C40   A    
N7    Ni3   S    
C4    N16   A    
C15   C17   A    
C18   C19   A    
C56   N9    A    
C45   H39   S    
C1    N1    A    
C12   C59   A    
C19   C20   A    
C11   H3    S    
C57   H32   S    
C1    H1    S    
C37   H20   S    
C32   C38   A    
C4    C12   A    
C33   H18   S    
N4    Ni2   S    
C3    N14   A    
N2    Ni3   S    
C47   C53   A    
N6    N16   A    
N11   Ni4   S    
C28   C34   A    
C3    H42   S    
C13   C14   A    
C58   H33   S    
C7    C56   A    
C6    C54   S    
C60   H38   S    
C44   C46   A    
C10   H2    S    
C28   N3    A    
C22   C34   S    
C54   H30   S    
C21   H8    S    
C59   H37   S    
C8    C41   S    
C40   N4    A    
C17   H44   S    
C5    C7    A    
C25   C26   A    
C52   H36   S    
C13   C24   S    
C60   C61   A    
C16   H16   S    
N10   N13   A    
C30   H14   S    
C43   C44   A    
N13   Ni1   S    
C37   C38   A    
N6    Ni4   S    
N15   Ni3   S    
C47   C48   A    
C50   C51   A    
N3    N5    A    
C57   C61   S    
C51   H29   S    
C39   C46   A    
C55   H31   S    
C48   C49   A    
C49   C50   A    
C16   C23   A    
C7    C19   S    
N8    Ni1   S    
C14   H5    S    
C22   C24   A    
C42   C43   A    
C39   H21   S    
C4    H4    S    
N9    Ni2   S    
C2    N13   A    
N1    Ni1   S    
C18   H7    S    
C64   H40   S    
C15   H6    S    
C54   C55   D    
C9    C63   A    
C43   H22   S    
C2    C8    A    
C27   H11   S    
C1    C61   A    
N11   N12   A    
C23   C55   S    
C62   H23   S    
C5    N15   A    
C2    H41   S    
C34   C52   A    
C64   N12   A    
C48   H25   S    
C47   H24   S    
N9    N15   A    
C12   C44   S    
C32   C33   A    
C11   C13   A    
C45   N8    A    
C57   C58   D    
C59   N6    A    
C26   H10   S    
C25   H9    S    
N14   Ni4   S    
N2    N4    A    
C62   N10   A    
C10   C11   A    
N1    N7    A    
C28   H28   S    
C50   H27   S    
C29   H13   S    
C20   C21   A    
C63   N11   A    
N10   Ni3   S    
N3    Ni4   S    
C14   C15   A    
C60   N7    A    
C10   C17   A    
C51   C53   A    
C21   C22   A    
C35   C46   S    
C8    C62   A    
C20   C31   S    
