data_mof_unit_53804.cif
_audit_creation_date              2012-12-11T16:09:02-0500
_audit_creation_method            fapswitch 2.2
_symmetry_space_group_name_H-M    P1
_symmetry_Int_Tables_number       1
_space_group_crystal_system       triclinic
_cell_length_a                    12.965061
_cell_length_b                    13.300742
_cell_length_c                    27.796783
_cell_angle_alpha                 94.545597
_cell_angle_beta                  89.787055
_cell_angle_gamma                 118.88878
_cell_volume                      4180.43352068

loop_
_atom_site_label
_atom_site_type_symbol
_atom_type_description
_atom_site_fract_x
_atom_site_fract_y
_atom_site_fract_z
_atom_type_partial_charge
C1    C     C_R   0.626560 0.899063 0.426357 0.543608
C2    C     C_R   0.189445 0.756290 0.298923 -0.035555
C3    C     C_2   0.963394 0.357169 0.701708 0.552474
C4    C     C_2   0.467864 0.276833 0.890528 0.588322
C5    C     C_3   0.322935 0.213347 0.711850 -0.398170
C6    C     C_3   0.945382 0.708628 0.681442 -0.350827
C7    C     C_2   0.914314 0.682088 0.786164 0.582864
C8    C     C_3   0.868319 0.000633 0.705302 -0.360443
C9    C     C_2   0.881467 0.973117 0.810562 0.591578
C10   C     C_3   0.446381 0.674906 0.697997 -0.376003
C11   C     C_3   0.983671 0.594718 0.147838 -0.318245
C12   C     C_2   0.141553 0.648835 0.373370 0.625900
C13   C     C_R   0.158432 0.735235 0.199476 0.007403
C14   C     C_2   0.173917 0.550998 0.193473 0.557381
C15   C     C_2   0.248754 0.014841 0.119288 0.570634
C16   C     C_R   0.600271 0.221168 0.440295 0.551553
C17   C     C_R   0.173630 0.651208 0.221498 0.055111
C18   C     C_R   0.189762 0.663510 0.271248 -0.078395
C19   C     C_R   0.096307 0.709609 0.155690 0.008305
C20   C     C_R   0.118190 0.801235 0.127601 -0.007932
C21   C     C_R   0.218950 0.956217 0.353872 0.023454
C22   C     C_R   0.199156 0.946160 0.302858 -0.031217
C23   C     C_R   0.194164 0.849510 0.275743 -0.007186
C24   C     C_R   0.564771 0.285806 0.222842 -0.110866
C25   C     C_R   0.181808 0.027543 0.278055 0.063754
C26   C     C_R   0.176606 0.020736 0.226824 -0.003946
C27   C     C_R   0.186195 0.930373 0.200202 0.007448
C28   C     C_R   0.270473 0.878079 0.425200 0.554506
C29   C     C_R   0.184190 0.840638 0.225201 -0.006100
C30   C     C_R   0.180116 0.915694 0.148904 0.013239
C31   C     C_R   0.214519 0.861671 0.376667 -0.043423
C32   C     C_R   0.725635 0.964292 0.351112 -0.082868
C33   C     C_R   0.736258 0.950932 0.301531 0.004540
C34   C     C_R   0.732712 0.922981 0.201023 -0.015232
C35   C     C_R   0.555338 0.272565 0.272271 -0.114553
C36   C     C_R   0.807823 0.029355 0.225303 -0.142163
C37   C     C_R   0.814903 0.045242 0.275489 0.048836
C38   C     C_R   0.739823 0.910170 0.151621 -0.130682
C39   C     C_R   0.673589 0.803262 0.126258 0.012278
C40   C     C_R   0.626620 0.898895 0.565033 0.547044
C41   C     C_R   0.578480 0.764210 0.352644 -0.098983
C42   C     C_R   0.584536 0.746090 0.302511 -0.015412
C43   C     C_R   0.660710 0.840931 0.276749 0.014304
C44   C     C_R   0.514793 0.636104 0.277707 0.072615
C45   C     C_R   0.520194 0.620558 0.226993 -0.011491
C46   C     C_R   0.656201 0.305669 0.301687 0.010481
C47   C     C_R   0.584625 0.718569 0.200499 0.024530
C48   C     C_R   0.659071 0.827113 0.226170 0.029696
C49   C     C_R   0.583136 0.712106 0.149124 -0.015135
C50   C     C_R   0.647712 0.872634 0.376581 -0.014914
C51   C     C_R   0.733981 0.294244 0.652950 -0.123800
C52   C     C_R   0.600432 0.223541 0.579305 0.543408
C53   C     C_R   0.748595 0.312960 0.703589 0.001111
C54   C     C_R   0.767804 0.336788 0.805764 -0.009808
C55   C     C_R   0.861954 0.344648 0.777840 -0.074956
C56   C     C_R   0.855157 0.336542 0.727448 0.059969
C57   C     C_R   0.674454 0.328713 0.201805 0.007282
C58   C     C_R   0.780459 0.359360 0.856545 0.032982
C59   C     C_R   0.686057 0.358819 0.882921 -0.029516
C60   C     C_R   0.535790 0.266406 0.657708 -0.126781
C61   C     C_R   0.542752 0.273305 0.707970 0.029039
C62   C     C_R   0.650745 0.299203 0.731285 0.055740
C63   C     C_R   0.442187 0.248656 0.735194 -0.015154
C64   C     C_R   0.271920 0.879578 0.563469 0.553516
C65   C     C_R   0.451752 0.254184 0.785314 -0.094963
C66   C     C_R   0.560542 0.290030 0.809514 -0.030213
C67   C     C_R   0.660062 0.309766 0.782229 0.030266
C68   C     C_1   0.686554 0.355696 0.152055 -0.052930
C69   C     C_R   0.572461 0.308682 0.860336 0.026597
C70   C     C_R   0.627851 0.270096 0.630100 -0.016703
C71   C     C_1   0.220581 0.862548 0.609915 -0.007470
C72   C     C_R   0.048883 0.772568 0.717456 0.008769
C73   C     C_R   0.032345 0.761318 0.767888 0.118680
C74   C     C_R   0.240210 0.901593 0.784296 -0.127481
C75   C     C_R   0.256660 0.910798 0.735070 -0.126682
C76   C     C_1   0.627858 0.263865 0.393642 0.074902
C77   C     C_R   0.162881 0.846280 0.701530 0.033069
C78   C     C_R   0.129838 0.826583 0.800985 0.034394
C79   C     C_1   0.641908 0.287095 0.352258 0.048340
C80   C     C_1   0.118595 0.813981 0.852178 0.027741
C81   C     C_1   0.189524 0.853614 0.651018 -0.053156
C82   C     C_1   0.098743 0.796931 0.894014 0.061661
C83   C     C_1   0.641681 0.865773 0.611239 -0.013015
C84   C     C_R   0.765367 0.909627 0.730548 -0.029688
C85   C     C_R   0.770578 0.901175 0.781070 0.096860
C86   C     C_R   0.565668 0.748777 0.776195 -0.114294
C87   C     C_R   0.560053 0.754097 0.726232 -0.000269
C88   C     C_R   0.767953 0.351198 0.281013 0.065512
C89   C     C_R   0.660004 0.834383 0.703236 0.040360
C90   C     C_1   0.699079 0.388013 0.111943 -0.019098
C91   C     C_R   0.668958 0.821452 0.803607 0.001725
C92   C     C_1   0.673088 0.805697 0.854321 0.009963
C93   C     C_1   0.650934 0.847360 0.652354 -0.053521
C94   C     C_1   0.686180 0.792648 0.895873 0.045812
C95   C     C_R   0.063214 0.770840 0.079188 0.582412
C96   C     C_R   0.716304 0.440265 0.067077 0.548087
C97   C     C_R   0.718403 0.782350 0.080265 0.537696
C98   C     C_R   0.056728 0.766331 0.941264 0.569063
C99   C     C_R   0.709896 0.430689 0.929801 0.568040
C100  C     C_R   0.774897 0.358681 0.230734 -0.105289
C101  C     C_R   0.183522 0.757083 0.349101 0.039701
C102  C     C_R   0.717103 0.776560 0.943035 0.552805
C103  C     C_2   0.878744 0.395110 0.310729 0.612546
C104  C     C_3   0.138189 0.096259 0.202087 -0.327491
C105  C     C_2   0.148264 0.107342 0.304812 0.585791
C106  C     C_2   0.253634 0.067897 0.382413 0.633747
C107  C     C_2   0.911023 0.159379 0.297290 0.591545
C108  C     C_3   0.477722 0.622131 0.118565 -0.355923
C109  C     C_3   0.475042 0.498826 0.203494 -0.366650
C110  C     C_2   0.437004 0.535807 0.304611 0.570004
C111  C     C_2   0.892795 0.386196 0.881764 0.596158
Cr1   Cr    Cr6+3 0.416430 0.829200 0.492370 1.070469
Cr2   Cr    Cr6+3 0.674630 0.087020 0.504170 1.071804
Cr3   Cr    Cr6+3 0.408920 0.083740 0.503490 1.078465
Cr4   Cr    Cr6+3 0.914010 0.832750 0.013970 1.085552
Cr5   Cr    Cr6+3 0.922310 0.578600 0.003000 1.087788
Cr6   Cr    Cr6+3 0.656280 0.574630 0.003870 1.055806
H1    H     H_    0.804234 0.982265 0.133241 0.138498
H2    H     H_    0.486792 0.265075 0.201329 0.169921
H3    H     H_    0.314718 0.951609 0.809453 0.132666
H4    H     H_    0.343978 0.967574 0.722992 0.123889
H5    H     H_    0.489303 0.686681 0.793927 0.130958
H6    H     H_    0.469190 0.238026 0.287657 0.188774
H7    H     H_    0.199942 0.598428 0.288059 0.244168
H8    H     H_    0.959500 0.392616 0.372290 0.372105
H9    H     H_    0.106152 0.065018 0.164172 0.133306
H10   H     H_    0.061690 0.096168 0.220088 0.152040
H11   H     H_    0.211896 0.186136 0.203623 0.195701
H12   H     H_    0.768009 0.048648 0.370001 0.206596
H13   H     H_    0.186300 0.271214 0.323383 0.373008
H14   H     H_    0.364995 0.238967 0.390948 0.344023
H15   H     H_    0.047784 0.314263 0.285220 0.396842
H16   H     H_    0.396313 0.594345 0.138772 0.183475
H17   H     H_    0.464200 0.659248 0.086282 0.154403
H18   H     H_    0.489177 0.546910 0.106228 0.154663
H19   H     H_    0.473529 0.439586 0.229661 0.161251
H20   H     H_    0.384025 0.463167 0.188272 0.158130
H21   H     H_    0.535437 0.496620 0.175586 0.125911
H22   H     H_    0.423348 0.431959 0.356116 0.348515
H23   H     H_    0.865024 0.099624 0.204351 0.158627
H24   H     H_    0.067780 0.493048 0.891484 0.347019
H25   H     H_    0.105709 0.333295 0.698196 0.339556
H26   H     H_    0.373973 0.187174 0.944995 0.350823
H27   H     H_    0.254097 0.195207 0.738865 0.162931
H28   H     H_    0.328273 0.283709 0.691187 0.136886
H29   H     H_    0.293805 0.133632 0.687284 0.136704
H30   H     H_    0.916308 0.614941 0.678871 0.197480
H31   H     H_    0.871316 0.723420 0.692996 0.149638
H32   H     H_    0.966420 0.737601 0.644640 0.130378
H33   H     H_    0.793595 0.654223 0.836772 0.331541
H34   H     H_    0.859150 0.389121 0.214166 0.156274
H35   H     H_    0.941296 0.063860 0.730147 0.194800
H36   H     H_    0.903676 0.958167 0.679339 0.139633
H37   H     H_    0.838344 0.051606 0.685354 0.149437
H38   H     H_    0.960708 0.081480 0.870016 0.359741
H39   H     H_    0.377099 0.616741 0.721444 0.142897
H40   H     H_    0.412900 0.726636 0.680762 0.149894
H41   H     H_    0.461921 0.620702 0.669584 0.146097
H42   H     H_    0.910408 0.608158 0.135310 0.120098
H43   H     H_    0.994891 0.533873 0.121546 0.206226
H44   H     H_    0.955324 0.554818 0.182236 0.116417
H45   H     H_    0.516560 0.696247 0.373319 0.180946
H46   H     H_    0.171933 0.521367 0.391865 0.341214
H47   H     H_    0.159897 0.393160 0.193949 0.345170
H48   H     H_    0.375084 0.180800 0.118143 0.338705
H49   H     H_    0.801776 0.291827 0.630965 0.174812
H50   H     H_    0.944102 0.361360 0.794953 0.187825
H51   H     H_    0.372879 0.232037 0.805087 0.169919
H52   H     H_    0.454090 0.247789 0.639601 0.146943
O1    O     O_R   0.296680 0.802170 0.437540 -0.480443
O2    O     O_R   0.637200 0.461990 0.052510 -0.508470
O3    O     O_R   0.664790 0.681920 0.057970 -0.509775
O4    O     O_R   0.525380 0.838530 0.443500 -0.497928
O5    O     O_R   0.815840 0.852920 0.961840 -0.481037
O6    O     O_R   0.012100 0.822630 0.963670 -0.478121
O7    O     O_R   0.037010 0.668460 0.953040 -0.486999
O8    O     O_R   0.813390 0.478970 0.949660 -0.467579
O9    O     O_R   0.632250 0.456930 0.945520 -0.476832
O10   O     O_R   0.660200 0.677230 0.958780 -0.498955
O11   O     O_3   0.830870 0.661990 0.006950 -0.277847
O12   O     O_R   0.662610 0.183990 0.557860 -0.498750
O13   O     O_R   0.702130 0.995190 0.446810 -0.500017
O14   O     O_R   0.661770 0.181390 0.458760 -0.485586
O15   O     O_R   0.499820 0.198480 0.455280 -0.495712
O16   O     O_R   0.311660 0.976250 0.449080 -0.471425
O17   O     O_R   0.297580 0.804960 0.544440 -0.493946
O18   O     O_R   0.526220 0.841130 0.542590 -0.495613
O19   O     O_R   0.703030 0.997990 0.553710 -0.500621
O20   O     O_2   0.972362 0.461940 0.294347 -0.521164
O21   O     O_R   0.877682 0.360508 0.356998 -0.663879
O22   O     O_2   0.064169 0.068584 0.330946 -0.458838
O23   O     O_R   0.500730 0.201280 0.562180 -0.520356
O24   O     O_R   0.213590 0.225838 0.300860 -0.671638
O25   O     O_2   0.193990 0.072685 0.415832 -0.451752
O26   O     O_R   0.352296 0.167832 0.369891 -0.715786
O27   O     O_2   0.935443 0.178226 0.340575 -0.480353
O28   O     O_R   0.980321 0.244487 0.267042 -0.694868
O29   O     O_2   0.331469 0.481688 0.294157 -0.476972
O30   O     O_R   0.485096 0.501926 0.340850 -0.702290
O31   O     O_2   0.892755 0.323876 0.911834 -0.481079
O32   O     O_R   0.997508 0.483833 0.871868 -0.691330
O33   O     O_2   0.994335 0.417341 0.667815 -0.524044
O34   O     O_R   0.312500 0.978850 0.548170 -0.495590
O35   O     O_R   0.033408 0.312272 0.718026 -0.718229
O36   O     O_2   0.404970 0.320813 0.885987 -0.510559
O37   O     O_R   0.445963 0.200980 0.926062 -0.677462
O38   O     O_2   0.852782 0.586775 0.765170 -0.540489
O39   O     O_R   0.873852 0.716184 0.827679 -0.686155
O40   O     O_2   0.972986 0.974760 0.798406 -0.518762
O41   O     O_R   0.880323 0.036937 0.852821 -0.666801
O42   O     O_2   0.053081 0.615451 0.397039 -0.485766
O43   O     O_R   0.207605 0.591053 0.372463 -0.685019
O44   O     O_2   0.189890 0.552444 0.150112 -0.551202
O45   O     O_3   0.499990 0.999990 0.500010 -0.276481
O46   O     O_R   0.157976 0.455486 0.216811 -0.651189
O47   O     O_2   0.237063 0.003039 0.075250 -0.500328
O48   O     O_R   0.332905 0.120823 0.141842 -0.729572
O49   O     O_R   0.820790 0.857990 0.068830 -0.518728
O50   O     O_R   0.016700 0.827330 0.062850 -0.471317
O51   O     O_R   0.041970 0.673520 0.060040 -0.513484
O52   O     O_R   0.817980 0.483660 0.048840 -0.502786

loop_
_geom_bond_atom_site_label_1
_geom_bond_atom_site_label_2
_ccdc_geom_bond_type
C55   C56   A    
C63   C65   A    
C102  O10   A    
C2    C18   A    
C59   C99   S    
C41   C42   A    
C105  O22   D    
C99   O8    A    
C19   C20   A    
C14   C17   S    
C76   C79   T    
C55   H50   S    
H13   O24   S    
C6    H30   S    
C111  O32   S    
Cr1   O18   S    
C85   C91   A    
C16   O14   A    
C25   C105  S    
C4    O36   D    
C47   C49   A    
C40   O18   A    
C20   C30   A    
C44   C45   A    
C105  O24   S    
C21   C31   A    
C65   H51   S    
C1    O4    A    
C26   C27   A    
C97   O3    A    
C62   C67   A    
C97   O49   A    
C60   H52   S    
C23   C29   A    
C13   C29   A    
C36   C37   A    
C8    H35   S    
H24   O32   S    
C37   C107  S    
Cr4   O5    S    
C86   C91   A    
Cr1   O17   S    
C46   C79   S    
C45   C109  S    
C39   C97   S    
C66   C69   A    
C27   C29   A    
C83   C93   T    
C11   H44   S    
C6    H31   S    
C5    C63   S    
C109  H20   S    
C53   C62   A    
C64   C71   S    
Cr5   O52   S    
C61   C63   A    
Cr3   O45   S    
C32   H12   S    
Cr4   O6    S    
C9    C85   S    
C21   C22   A    
C6    H32   S    
Cr2   O12   S    
C47   C48   A    
C9    O40   D    
C24   C57   A    
C96   O2    A    
C86   H5    S    
C68   C90   T    
C73   C78   A    
Cr4   O49   S    
H8    O21   S    
C103  O20   D    
C51   C70   A    
Cr1   O45   S    
Cr5   O51   S    
C8    H37   S    
C1    C50   S    
C10   H41   S    
C34   C36   A    
Cr4   O11   S    
Cr6   O11   S    
H48   O48   S    
C26   C104  S    
Cr1   O4    S    
C100  H34   S    
C75   H4    S    
C41   H45   S    
C109  H19   S    
C3    O35   S    
C82   C98   S    
C40   C83   S    
Cr4   O50   S    
C42   C44   A    
Cr2   O45   S    
C4    C69   S    
C34   C38   A    
C11   H43   S    
C95   O51   A    
C49   C108  S    
C46   C88   A    
C45   C47   A    
H47   O46   S    
Cr1   O1    S    
C10   C87   S    
C24   C35   A    
Cr3   O23   S    
C74   C75   A    
Cr5   O7    S    
C11   H42   S    
C58   C111  S    
C33   C43   A    
C5    H28   S    
C52   O12   A    
C12   O43   S    
C108  H18   S    
C7    C73   S    
C107  O27   D    
C91   C92   S    
C107  O28   S    
C13   C19   A    
C86   C87   A    
C7    O39   S    
C5    H27   S    
C54   C67   A    
C2    C101  A    
C8    C84   S    
C25   C26   A    
Cr2   O19   S    
C22   C25   A    
C33   C37   A    
C15   O47   D    
C14   O44   D    
C60   C61   A    
C51   C53   A    
Cr2   O14   S    
H25   O35   S    
C6    C72   S    
C108  H17   S    
C72   C77   A    
C111  O31   D    
C98   O7    A    
C3    C56   S    
Cr6   O2    S    
C95   O50   A    
Cr2   O13   S    
C104  H11   S    
C60   C70   A    
C9    O41   S    
C1    O13   A    
C43   C48   A    
C11   C19   S    
C92   C94   T    
C17   C18   A    
C78   C80   S    
C104  H9    S    
C103  O21   S    
C84   C85   A    
C4    O37   S    
C8    H36   S    
Cr3   O16   S    
C10   H40   S    
C32   C50   A    
C88   C100  A    
C99   O9    A    
C7    O38   D    
C39   C49   A    
C20   C95   S    
C59   C69   A    
C96   O52   A    
C28   C31   S    
C110  O29   D    
C74   C78   A    
C15   O48   S    
C42   C43   A    
C57   C68   S    
C10   H39   S    
C31   C101  A    
C41   C50   A    
C88   C103  S    
Cr6   O9    S    
C15   C30   S    
C54   C58   A    
C53   C56   A    
C28   O1    A    
C3    O33   D    
C54   C55   A    
C24   H2    S    
C5    H29   S    
C110  O30   S    
C16   C76   S    
C64   O34   A    
H38   O41   S    
H14   O26   S    
C21   C106  S    
C12   O42   D    
C72   C73   A    
H46   O43   S    
C16   O15   A    
C90   C96   S    
C106  O26   S    
C40   O19   A    
C102  O5    A    
C74   H3    S    
C13   C17   A    
C32   C33   A    
Cr5   O11   S    
C58   C59   A    
H33   O39   S    
C12   C101  S    
C65   C66   A    
C28   O16   A    
C98   O6    A    
C57   C100  A    
Cr6   O3    S    
C38   C39   A    
C104  H10   S    
C106  O25   D    
Cr3   O15   S    
C35   H6    S    
H15   O28   S    
C52   O23   A    
C80   C82   T    
C14   O46   S    
C66   C67   A    
H22   O30   S    
C36   H23   S    
C89   C93   S    
C61   C62   A    
C52   C70   S    
C38   H1    S    
C108  H16   S    
C34   C48   A    
C94   C102  S    
C77   C81   S    
C84   C89   A    
C75   C77   A    
C2    C23   A    
C87   C89   A    
C22   C23   A    
C109  H21   S    
C51   H49   S    
C71   C81   T    
Cr5   O8    S    
C35   C46   A    
Cr3   O34   S    
C64   O17   A    
Cr6   O10   S    
C18   H7    S    
H26   O37   S    
C27   C30   A    
C44   C110  S    
