data_mof_unit_31870.cif
_audit_creation_date              2012-12-11T16:51:20-0500
_audit_creation_method            fapswitch 2.2
_symmetry_space_group_name_H-M    P1
_symmetry_Int_Tables_number       1
_space_group_crystal_system       triclinic
_cell_length_a                    24.362927
_cell_length_b                    17.098
_cell_length_c                    15.478641
_cell_angle_alpha                 89.98576
_cell_angle_beta                  129.292762
_cell_angle_gamma                 90.015953
_cell_volume                      4990.0371305

loop_
_atom_site_label
_atom_site_type_symbol
_atom_type_description
_atom_site_fract_x
_atom_site_fract_y
_atom_site_fract_z
_atom_type_partial_charge
C1    C     C_R   0.832809 0.889421 0.199129 -0.158686
C2    C     C_R   0.167141 0.889231 0.800748 -0.157265
C3    C     C_R   0.332757 0.389218 0.199608 -0.160743
C4    C     C_R   0.667138 0.389215 0.800736 -0.157900
C5    C     C_R   0.884825 0.103520 0.591695 -0.131598
C6    C     C_R   0.115257 0.103466 0.408392 -0.131989
C7    C     C_R   0.384750 0.603384 0.591640 -0.132925
C8    C     C_R   0.615231 0.603441 0.408341 -0.132014
C9    C     C_R   0.815480 0.118542 0.498346 0.077734
C10   C     C_R   0.184567 0.118527 0.501807 0.080062
C11   C     C_R   0.315417 0.618420 0.498289 0.077882
C12   C     C_R   0.684563 0.618463 0.501696 0.078992
C13   C     C_R   0.879062 0.180067 0.200652 0.142870
C14   C     C_R   0.122054 0.179328 0.800924 0.133363
C15   C     C_R   0.379061 0.680068 0.200653 0.142834
C16   C     C_R   0.620334 0.680886 0.797604 0.136266
C17   C     C_R   0.854631 0.708096 0.607138 0.167051
C18   C     C_R   0.145308 0.707942 0.392910 0.167987
C19   C     C_R   0.354517 0.208522 0.607543 0.167296
C20   C     C_R   0.645319 0.207933 0.392949 0.167852
C21   C     C_R   0.835548 0.736416 0.506317 0.033223
C22   C     C_R   0.164471 0.736401 0.493723 0.032426
C23   C     C_R   0.335587 0.236530 0.506680 0.032976
C24   C     C_R   0.664466 0.236395 0.493749 0.032014
C25   C     C_R   0.780949 0.697585 0.407171 -0.201614
C26   C     C_R   0.219124 0.697634 0.592905 -0.201859
C27   C     C_R   0.281199 0.197442 0.407649 -0.202227
C28   C     C_R   0.719148 0.197666 0.592950 -0.201541
C29   C     C_R   0.235131 0.148144 0.407042 -0.204751
C30   C     C_R   0.765235 0.148427 0.593553 -0.201457
C31   C     C_R   0.734876 0.648304 0.406585 -0.204154
C32   C     C_R   0.265169 0.648332 0.593480 -0.202085
C33   C     C_R   0.244352 0.137880 0.505747 0.032668
C34   C     C_R   0.755758 0.137819 0.494677 0.030565
C35   C     C_R   0.744296 0.637767 0.505426 0.033006
C36   C     C_R   0.255690 0.637711 0.494602 0.030818
C37   C     C_R   0.309478 0.159394 0.606973 0.163755
C38   C     C_R   0.690374 0.158838 0.393520 0.163742
C39   C     C_R   0.809601 0.658953 0.606587 0.161097
C40   C     C_R   0.190327 0.658795 0.393455 0.163802
C41   C     C_3   0.827270 0.695393 0.709498 -0.523877
C42   C     C_3   0.172510 0.695098 0.290351 -0.526866
C43   C     C_3   0.326664 0.196278 0.709340 -0.527948
C44   C     C_3   0.672524 0.195129 0.290389 -0.526812
C45   C     C_R   0.086056 0.855411 0.406310 -0.148037
C46   C     C_R   0.913944 0.855398 0.593679 -0.147326
C47   C     C_R   0.586040 0.355403 0.406309 -0.148135
C48   C     C_R   0.413942 0.355462 0.593764 -0.147253
C49   C     C_3   0.876113 0.749557 0.709892 -0.523559
C50   C     C_3   0.123640 0.749227 0.289924 -0.526355
C51   C     C_3   0.375578 0.250372 0.709811 -0.525716
C52   C     C_3   0.623619 0.249209 0.289938 -0.526072
C53   C     C_2   0.192805 0.834274 0.976220 0.110383
C54   C     C_2   0.806961 0.835394 0.023072 0.095951
C55   C     C_2   0.692800 0.334240 0.976195 0.110278
C56   C     C_2   0.305980 0.333947 0.024203 0.104560
C57   C     C_2   0.262565 0.853091 0.045490 -0.316188
C58   C     C_2   0.737071 0.853507 0.954456 -0.218400
C59   C     C_2   0.762554 0.353078 0.045483 -0.315579
C60   C     C_2   0.236634 0.354514 0.955148 -0.229705
C61   C     C_2   0.849879 0.250586 0.131423 -0.268749
C62   C     C_2   0.154305 0.247272 0.874823 -0.340280
C63   C     C_2   0.349875 0.750583 0.131416 -0.268824
C64   C     C_2   0.649799 0.751333 0.867057 -0.348162
C65   C     C_2   0.815905 0.305754 0.144018 0.259116
C66   C     C_2   0.182311 0.307060 0.857163 0.264163
C67   C     C_2   0.315913 0.805763 0.144021 0.259940
C68   C     C_2   0.684005 0.806508 0.854853 0.261056
C69   C     C_R   0.163517 0.856048 0.591890 -0.123063
C70   C     C_R   0.836493 0.856036 0.408098 -0.123413
C71   C     C_R   0.663506 0.356043 0.591891 -0.122926
C72   C     C_R   0.336461 0.356045 0.408195 -0.123351
C73   C     C_R   0.076330 0.890418 0.802035 -0.161371
C74   C     C_R   0.923611 0.890677 0.197827 -0.155076
C75   C     C_R   0.576331 0.390407 0.802031 -0.161190
C76   C     C_R   0.423349 0.390208 0.197763 -0.155774
C77   C     C_R   0.853407 0.868074 0.137132 0.091997
C78   C     C_R   0.146474 0.867649 0.862575 0.103555
C79   C     C_R   0.353112 0.367534 0.137588 0.090198
C80   C     C_R   0.646469 0.367623 0.862556 0.103445
C81   C     C_R   0.138395 0.811926 0.497877 0.070031
C82   C     C_R   0.861621 0.811917 0.502116 0.069904
C83   C     C_R   0.638375 0.311915 0.497880 0.069994
C84   C     C_R   0.361615 0.311979 0.502275 0.069964
C85   C     C_R   0.810639 0.101308 0.406937 -0.145823
C86   C     C_R   0.189359 0.101321 0.593150 -0.159551
C87   C     C_R   0.310618 0.601261 0.406907 -0.145678
C88   C     C_R   0.689379 0.601263 0.593082 -0.156879
C89   C     C_R   0.938879 0.138376 0.234858 -0.161151
C90   C     C_R   0.061866 0.138005 0.766391 -0.128324
C91   C     C_R   0.438878 0.638377 0.234858 -0.161151
C92   C     C_R   0.560744 0.638932 0.764059 -0.133414
C93   C     C_R   0.152658 0.138734 0.763795 -0.146148
C94   C     C_R   0.848039 0.139497 0.237356 -0.095034
C95   C     C_R   0.651736 0.639751 0.761984 -0.138460
C96   C     C_R   0.348039 0.639499 0.237359 -0.095431
H1    H     H_    0.779269 0.890080 0.170655 0.088224
H2    H     H_    0.220700 0.889799 0.829290 0.089843
H3    H     H_    0.279247 0.389932 0.171287 0.089690
H4    H     H_    0.720698 0.389781 0.829281 0.090077
H5    H     H_    0.188215 0.127037 0.327572 0.124211
H6    H     H_    0.812330 0.127651 0.673074 0.124567
H7    H     H_    0.687827 0.627437 0.327082 0.124092
H8    H     H_    0.312245 0.627521 0.672994 0.124717
H9    H     H_    0.781924 0.726766 0.694531 0.208772
H10   H     H_    0.217795 0.726528 0.305166 0.201861
H11   H     H_    0.281074 0.227641 0.693587 0.204068
H12   H     H_    0.717787 0.226598 0.305180 0.201963
H13   H     H_    0.856125 0.654435 0.781544 0.194585
H14   H     H_    0.143696 0.654056 0.218383 0.194868
H15   H     H_    0.355385 0.155662 0.781818 0.194921
H16   H     H_    0.643738 0.154065 0.218446 0.194666
H17   H     H_    0.857784 0.811331 0.694632 0.201031
H18   H     H_    0.141857 0.811039 0.304899 0.199283
H19   H     H_    0.357124 0.312118 0.693992 0.200795
H20   H     H_    0.641795 0.311036 0.304873 0.199444
H21   H     H_    0.932958 0.740151 0.782694 0.192437
H22   H     H_    0.066785 0.739666 0.217272 0.193549
H23   H     H_    0.432377 0.241178 0.782949 0.192403
H24   H     H_    0.566769 0.239600 0.217297 0.193233
H25   H     H_    0.282745 0.896181 0.020305 0.133994
H26   H     H_    0.716609 0.895451 0.980423 0.112951
H27   H     H_    0.782729 0.396191 0.020317 0.133742
H28   H     H_    0.217498 0.400019 0.979084 0.116227
H29   H     H_    0.846983 0.251455 0.058389 0.119532
H30   H     H_    0.165741 0.241778 0.954815 0.137118
H31   H     H_    0.346967 0.751444 0.058371 0.119332
H32   H     H_    0.652624 0.752031 0.940039 0.137357
H33   H     H_    0.053185 0.838575 0.320120 0.110061
H34   H     H_    0.946789 0.838552 0.679857 0.110112
H35   H     H_    0.553164 0.338580 0.320114 0.109841
H36   H     H_    0.446767 0.338664 0.679962 0.110145
H37   H     H_    0.205019 0.840447 0.677911 0.091134
H38   H     H_    0.795003 0.840432 0.322072 0.091386
H39   H     H_    0.705012 0.340446 0.677911 0.091242
H40   H     H_    0.294889 0.340406 0.322226 0.091395
H41   H     H_    0.047511 0.893325 0.833616 0.089169
H42   H     H_    0.952445 0.893771 0.166283 0.088630
H43   H     H_    0.547523 0.393324 0.833631 0.089196
H44   H     H_    0.451973 0.392715 0.165821 0.089976
H45   H     H_    0.762728 0.092379 0.322282 0.097505
H46   H     H_    0.237250 0.092387 0.677826 0.102065
H47   H     H_    0.262722 0.592343 0.322235 0.097540
H48   H     H_    0.737280 0.592314 0.677743 0.101309
H49   H     H_    0.974772 0.152650 0.218536 0.104554
H50   H     H_    0.026627 0.151857 0.784159 0.099181
H51   H     H_    0.474768 0.652651 0.218530 0.104505
H52   H     H_    0.524785 0.653373 0.780179 0.099790
H53   H     H_    0.201688 0.152284 0.779714 0.104970
H54   H     H_    0.799361 0.153624 0.222239 0.105386
H55   H     H_    0.700485 0.653778 0.777249 0.110543
H56   H     H_    0.299362 0.653626 0.222242 0.105394
H57   H     H_    0.905230 0.099580 0.677116 0.083686
H58   H     H_    0.094948 0.099474 0.323028 0.083848
H59   H     H_    0.405094 0.599327 0.677018 0.083908
H60   H     H_    0.594880 0.599425 0.322957 0.083921
H61   H     H_    0.767801 0.712813 0.328148 0.125727
H62   H     H_    0.232331 0.712920 0.671944 0.125747
H63   H     H_    0.268202 0.212471 0.328674 0.125577
H64   H     H_    0.732344 0.212947 0.671984 0.125807
N1    N     N_R   0.888400 0.921830 0.294620 -0.035939
N2    N     N_R   0.111600 0.921830 0.705380 -0.035994
N3    N     N_R   0.388400 0.421830 0.294620 -0.035667
N4    N     N_R   0.611600 0.421830 0.705380 -0.036115
N5    N     N_R   0.079940 0.922160 0.443410 -0.038938
N6    N     N_R   0.920060 0.922160 0.556590 -0.039335
N7    N     N_R   0.579940 0.422160 0.443410 -0.038925
N8    N     N_R   0.420060 0.422160 0.556590 -0.039232
N9    N     N_R   0.125650 0.922400 0.556620 -0.038636
N10   N     N_R   0.874350 0.922400 0.443380 -0.039476
N11   N     N_R   0.625650 0.422400 0.556620 -0.038729
N12   N     N_R   0.374350 0.422400 0.443380 -0.039414
N13   N     N_R   0.054230 0.922730 0.705400 -0.036447
N14   N     N_R   0.945770 0.922730 0.294600 -0.036254
N15   N     N_R   0.554230 0.422730 0.705400 -0.036432
N16   N     N_R   0.445770 0.422730 0.294600 -0.036235
N17   N     N_R   0.873790 0.077030 0.443380 -0.038287
N18   N     N_R   0.126210 0.077030 0.556620 -0.039002
N19   N     N_R   0.373790 0.577030 0.443380 -0.038229
N20   N     N_R   0.626210 0.577030 0.556620 -0.039209
N21   N     N_R   0.945200 0.076700 0.294600 -0.041517
N22   N     N_R   0.054800 0.076700 0.705400 -0.042642
N23   N     N_R   0.445200 0.576700 0.294600 -0.041454
N24   N     N_R   0.554800 0.576700 0.705400 -0.042331
N25   N     N_R   0.111030 0.077600 0.705380 -0.041547
N26   N     N_R   0.888970 0.077600 0.294620 -0.048416
N27   N     N_R   0.611030 0.577600 0.705380 -0.043231
N28   N     N_R   0.388970 0.577600 0.294620 -0.048404
N29   N     N_R   0.919490 0.077280 0.556590 -0.038604
N30   N     N_R   0.080510 0.077280 0.443410 -0.038076
N31   N     N_R   0.419490 0.577280 0.556590 -0.038422
N32   N     N_R   0.580510 0.577280 0.443410 -0.038082
Ni1   Ni    Ni4+2 0.882160 0.999430 0.370180 0.207390
Ni2   Ni    Ni4+2 0.117840 0.999430 0.629820 0.207768
Ni3   Ni    Ni4+2 0.382160 0.499430 0.370180 0.207394
Ni4   Ni    Ni4+2 0.617840 0.499430 0.629820 0.207841
Ni5   Ni    Ni4+2 0.012460 0.999430 0.370180 0.207223
Ni6   Ni    Ni4+2 0.987540 0.999430 0.629820 0.207602
Ni7   Ni    Ni4+2 0.512460 0.499430 0.370180 0.207378
Ni8   Ni    Ni4+2 0.487540 0.499430 0.629820 0.207693
N33   N     N_2   0.823652 0.312404 0.243394 -0.113245
H65   H     H_    0.785180 0.346455 0.233858 0.164797
C97   C     C_3   0.894007 0.333395 0.342988 -0.894276
H66   H     H_    0.894747 0.335017 0.415443 0.246089
H67   H     H_    0.908783 0.392126 0.332736 0.244422
H68   H     H_    0.933918 0.289848 0.361358 0.262193
N34   N     N_2   0.159776 0.324672 0.748252 -0.103484
H69   H     H_    0.131884 0.283383 0.685927 0.176563
C98   C     C_3   0.198645 0.381875 0.736824 -0.922898
H70   H     H_    0.169775 0.393920 0.646949 0.248831
H71   H     H_    0.252152 0.359403 0.773761 0.242811
H72   H     H_    0.203285 0.437725 0.777638 0.260936
N35   N     N_2   0.323679 0.812427 0.243412 -0.112716
H73   H     H_    0.285214 0.846486 0.233886 0.164865
C99   C     C_3   0.394040 0.833422 0.342986 -0.898255
H74   H     H_    0.394795 0.835060 0.415455 0.245476
H75   H     H_    0.408812 0.892148 0.332710 0.244460
H76   H     H_    0.433945 0.789870 0.361347 0.262542
N36   N     N_2   0.675373 0.813064 0.754382 -0.112542
H77   H     H_    0.628307 0.791249 0.683509 0.182455
C100  C     C_3   0.696300 0.886094 0.735319 -0.943027
H78   H     H_    0.687212 0.882706 0.655467 0.250118
H79   H     H_    0.753607 0.897485 0.803054 0.259305
H80   H     H_    0.664397 0.935091 0.730201 0.256727
C101  C     C_3   0.161231 0.773791 0.005712 -0.401890
C102  C     C_3   0.146363 0.696954 0.943229 -0.229843
C103  C     C_3   0.117455 0.634858 0.975879 -0.954498
H81   H     H_    0.156969 0.621635 0.066468 0.253254
H82   H     H_    0.067424 0.655366 0.956417 0.263392
H83   H     H_    0.106352 0.580307 0.928330 0.254923
H84   H     H_    0.106962 0.707064 0.851688 0.198513
H85   H     H_    0.196211 0.674854 0.963276 0.200159
H86   H     H_    0.196427 0.761582 0.096448 0.186551
H87   H     H_    0.111143 0.796989 0.983555 0.173375
C104  C     C_3   0.838601 0.776552 0.991812 -0.392679
C105  C     C_3   0.854731 0.699058 0.053645 -0.240158
C106  C     C_3   0.883075 0.638230 0.018594 -0.954735
H88   H     H_    0.842543 0.624935 0.928233 0.253916
H89   H     H_    0.932101 0.659943 0.035652 0.263626
H90   H     H_    0.895742 0.583442 0.066514 0.254753
H91   H     H_    0.894883 0.708676 0.145193 0.199616
H92   H     H_    0.805518 0.676016 0.034955 0.204127
H93   H     H_    0.802930 0.765056 0.900798 0.210225
H94   H     H_    0.888148 0.800943 0.013228 0.171079
C107  C     C_3   0.661243 0.273701 0.005646 -0.401465
C108  C     C_3   0.646564 0.196834 0.943322 -0.229531
C109  C     C_3   0.617669 0.134684 0.975927 -0.956125
H95   H     H_    0.657125 0.121548 0.066551 0.253572
H96   H     H_    0.567557 0.155091 0.956267 0.263456
H97   H     H_    0.606714 0.080107 0.928508 0.254112
H98   H     H_    0.607221 0.206870 0.851756 0.198041
H99   H     H_    0.696487 0.174828 0.963548 0.200457
H100  H     H_    0.696387 0.261571 0.096401 0.186525
H101  H     H_    0.611080 0.296798 0.983316 0.173300
C110  C     C_3   0.336071 0.272590 0.993309 -0.391503
C111  C     C_3   0.355206 0.197547 0.061294 -0.241519
C112  C     C_3   0.383025 0.134902 0.027524 -0.952528
H102  H     H_    0.341822 0.119403 0.938079 0.254401
H103  H     H_    0.431229 0.156137 0.041578 0.262429
H104  H     H_    0.396949 0.081535 0.078600 0.254770
H105  H     H_    0.396638 0.210196 0.151754 0.199623
H106  H     H_    0.307402 0.174632 0.047273 0.202572
H107  H     H_    0.298174 0.257617 0.903303 0.197385
H108  H     H_    0.384084 0.296605 0.009076 0.173335

loop_
_geom_bond_atom_site_label_1
_geom_bond_atom_site_label_2
_ccdc_geom_bond_type
N29   Ni6   S    
C25   C31   A    
C49   H17   S    
C97   H66   S    
C26   C32   A    
C48   C84   A    
C66   N34   S    
C91   N23   A    
N27   Ni4   S    
C92   H52   S    
C1    C77   A    
C111  H106  S    
C96   N28   A    
N26   Ni1   S    
C93   H53   S    
N22   Ni6   S    
C76   C79   A    
C28   H64   S    
N25   Ni2   S    
N21   Ni5   S    
C2    N2    A    
C91   H51   S    
C95   N27   A    
C6    N30   A    
C39   C41   S    
N2    N13   A    
N19   Ni3   S    
N35   H73   S    
C45   H33   S    
C74   H42   S    
C18   C50   S    
C56   C79   S    
C41   H9    S    
C44   H12   S    
C2    C78   A    
C101  H87   S    
C72   N12   A    
C11   C36   S    
C24   C83   S    
C4    C80   A    
C100  H80   S    
C55   C59   D    
C99   H75   S    
C71   H39   S    
N18   N30   A    
C5    H57   S    
C72   H40   S    
C27   C29   A    
C70   N10   A    
C27   H63   S    
C102  H84   S    
C14   C62   S    
C29   C33   A    
C86   N18   A    
C98   H72   S    
C20   C38   A    
C105  C106  S    
N4    N15   A    
C112  H102  S    
N33   H65   S    
N32   Ni7   S    
C105  H92   S    
C60   H28   S    
C18   C40   A    
C14   C90   A    
C22   C26   A    
C19   C37   A    
C9    C85   A    
C46   C82   A    
C49   H21   S    
C68   N36   S    
C20   C24   A    
N28   Ni3   S    
C11   C87   A    
N24   Ni8   S    
C74   C77   A    
C47   N7    A    
C51   H23   S    
C104  C105  S    
C4    N4    A    
N21   N26   A    
C70   C82   A    
C47   C83   A    
C8    C12   A    
C17   C21   A    
N8    Ni8   S    
C75   C80   A    
C14   C93   A    
N20   Ni4   S    
C3    N3    A    
C54   C77   S    
C53   C101  S    
C44   C52   S    
C7    H59   S    
C52   H20   S    
C89   H49   S    
C3    C79   A    
C50   H22   S    
C107  C108  S    
N5    N9    A    
N33   C97   S    
C7    N31   A    
C43   H15   S    
C54   C104  S    
C57   C67   S    
C1    N1    A    
C46   N6    A    
N3    N16   A    
C41   C49   S    
C94   N26   A    
C44   H16   S    
C38   C44   S    
C88   N20   A    
C71   C83   A    
C108  H98   S    
C109  H96   S    
C59   H27   S    
N15   Ni8   S    
C97   H68   S    
C63   C67   D    
C58   H26   S    
N17   N29   A    
C23   C84   S    
C30   C34   A    
C75   N15   A    
N34   H69   S    
C22   C81   S    
C90   N22   A    
C36   C40   A    
C76   N16   A    
C69   C81   A    
N31   Ni8   S    
C98   H70   S    
N20   N32   A    
C99   H76   S    
C17   C49   S    
N36   H77   S    
C62   H30   S    
C53   C57   D    
C19   C23   A    
C34   C38   A    
C108  H99   S    
C90   H50   S    
C64   H32   S    
C43   H11   S    
C107  H100  S    
C51   H19   S    
N4    Ni4   S    
C56   C60   D    
C61   H29   S    
C47   H35   S    
C112  H103  S    
N22   N25   A    
C31   H7    S    
C105  H91   S    
C37   C43   S    
C35   C39   A    
C99   H74   S    
N6    Ni6   S    
C6    C10   A    
C5    C9    A    
C100  H78   S    
C29   H5    S    
N5    Ni5   S    
N36   C100  S    
C97   H67   S    
C7    C11   A    
C103  H81   S    
C48   N8    A    
N3    Ni3   S    
C73   C78   A    
C12   C88   A    
C111  C112  S    
N2    Ni2   S    
C32   H8    S    
C101  C102  S    
C13   C61   S    
C69   N9    A    
C110  H108  S    
C12   C35   S    
C70   H38   S    
C42   H10   S    
C104  H93   S    
C72   C84   A    
N17   Ni1   S    
C30   H6    S    
C42   C50   S    
C60   C66   S    
C85   H45   S    
C52   H24   S    
C58   C68   S    
C17   C39   A    
C103  H82   S    
C87   N19   A    
C110  H107  S    
C16   C92   A    
C23   C27   A    
C4    H4    S    
C92   N24   A    
C9    C34   S    
C71   N11   A    
C67   N35   S    
C95   H55   S    
C76   H44   S    
C1    H1    S    
C110  C111  S    
C64   C68   D    
C15   C96   A    
C86   H46   S    
C33   C37   A    
C54   C58   D    
C109  H97   S    
C21   C25   A    
C108  C109  S    
C10   C86   A    
N14   Ni5   S    
C69   H37   S    
N18   Ni2   S    
C65   N33   S    
C13   C89   A    
N13   Ni6   S    
C18   C22   A    
N7    Ni7   S    
C45   C81   A    
C24   C28   A    
N1    N14   A    
N11   Ni4   S    
C87   H47   S    
C57   H25   S    
C46   H34   S    
N10   Ni1   S    
N7    N11   A    
C109  H95   S    
C32   C36   A    
C74   N14   A    
N9    Ni2   S    
C94   H54   S    
C16   C64   S    
C107  H101  S    
N24   N27   A    
C93   N25   A    
C13   C94   A    
C20   C52   S    
C112  H104  S    
C101  H86   S    
C106  H89   S    
C53   C78   S    
C42   H14   S    
N35   C99   S    
C5    N29   A    
C28   C30   A    
C100  H79   S    
C75   H43   S    
N23   N28   A    
C59   C65   S    
C25   H61   S    
C55   C80   S    
C16   C95   A    
C43   C51   S    
C6    H58   S    
C73   H41   S    
C8    N32   A    
C19   C51   S    
C102  H85   S    
C106  H88   S    
C40   C42   S    
C98   H71   S    
N6    N10   A    
C26   H62   S    
C10   C33   S    
C31   C35   A    
C61   C65   D    
C73   N13   A    
C8    H60   S    
N23   Ni7   S    
C104  H94   S    
C56   C110  S    
C62   C66   D    
N1    Ni1   S    
C15   C91   A    
C3    H3    S    
N8    N12   A    
C103  H83   S    
N19   N31   A    
C21   C82   S    
C2    H2    S    
C85   N17   A    
C102  C103  S    
C55   C107  S    
C106  H90   S    
N34   C98   S    
C15   C63   S    
C48   H36   S    
N12   Ni3   S    
C41   H13   S    
N16   Ni7   S    
C50   H18   S    
C111  H105  S    
C45   N5    A    
C88   H48   S    
C63   H31   S    
N30   Ni5   S    
C89   N21   A    
C96   H56   S    
