data_mof_unit_26951.cif
_audit_creation_date              2012-12-11T15:08:58-0500
_audit_creation_method            fapswitch 2.2
_symmetry_space_group_name_H-M    P1
_symmetry_Int_Tables_number       1
_space_group_crystal_system       triclinic
_cell_length_a                    19.419951
_cell_length_b                    11.41613
_cell_length_c                    18.676889
_cell_angle_alpha                 90.033551
_cell_angle_beta                  90.139438
_cell_angle_gamma                 89.995466
_cell_volume                      4140.66610455

loop_
_atom_site_label
_atom_site_type_symbol
_atom_type_description
_atom_site_fract_x
_atom_site_fract_y
_atom_site_fract_z
_atom_type_partial_charge
C1    C     C_R   0.272191 0.044044 0.853308 0.544731
C2    C     C_R   0.727805 0.044006 0.146678 0.543671
C3    C     C_R   0.772190 0.544048 0.853306 0.544723
C4    C     C_R   0.227805 0.544008 0.146678 0.543672
C5    C     C_3   0.526735 0.727648 0.970024 -0.116411
C6    C     C_3   0.473252 0.727632 0.029907 -0.116474
C7    C     C_3   0.026733 0.227649 0.970023 -0.116408
C8    C     C_3   0.973252 0.227634 0.029908 -0.116476
C9    C     C_3   0.313286 0.533488 0.045325 -0.234915
C10   C     C_3   0.686718 0.533475 0.954615 -0.234970
C11   C     C_3   0.813290 0.033502 0.045328 -0.234913
C12   C     C_3   0.186718 0.033465 0.954619 -0.234969
C13   C     C_3   0.324478 0.565995 0.966260 -0.240753
C14   C     C_3   0.675508 0.565941 0.033703 -0.240835
C15   C     C_3   0.824485 0.066025 0.966264 -0.240749
C16   C     C_3   0.175506 0.065943 0.033704 -0.240836
C17   C     C_3   0.181660 0.546102 0.025577 -0.242601
C18   C     C_3   0.818353 0.546053 0.974371 -0.242709
C19   C     C_3   0.681666 0.046116 0.025572 -0.242614
C20   C     C_3   0.318351 0.046046 0.974375 -0.242714
C21   C     C_3   0.247430 0.717662 0.066936 -0.113007
C22   C     C_3   0.752578 0.717662 0.933180 -0.113235
C23   C     C_3   0.747433 0.217672 0.066949 -0.113000
C24   C     C_3   0.252575 0.217654 0.933179 -0.113234
C25   C     C_3   0.243990 0.583953 0.073389 0.059278
C26   C     C_3   0.756019 0.583964 0.926608 0.059023
C27   C     C_3   0.743993 0.083961 0.073392 0.059276
C28   C     C_3   0.256019 0.083957 0.926611 0.059020
C29   C     C_3   0.261515 0.635445 0.937409 0.037407
C30   C     C_3   0.738477 0.635337 0.062608 0.037678
C31   C     C_3   0.761525 0.135485 0.937415 0.037407
C32   C     C_3   0.238476 0.135339 0.062609 0.037678
C33   C     C_3   0.198871 0.554306 0.945752 -0.243003
C34   C     C_3   0.801120 0.554162 0.054201 -0.243139
C35   C     C_3   0.698882 0.054336 0.945748 -0.242957
C36   C     C_3   0.301118 0.054165 0.054204 -0.243132
C37   C     C_3   0.246188 0.745149 0.985269 -0.237295
C38   C     C_3   0.753804 0.745073 0.014870 -0.237227
C39   C     C_3   0.746192 0.245177 0.985285 -0.237329
C40   C     C_3   0.253803 0.245071 0.014868 -0.237234
C41   C     C_3   0.494162 0.701415 0.457976 -0.234950
C42   C     C_3   0.492618 0.701137 0.538057 -0.228150
C43   C     C_3   0.994164 0.201415 0.457977 -0.234951
C44   C     C_3   0.992619 0.201138 0.538057 -0.228151
C45   C     C_R   0.467346 0.820528 0.855527 0.562829
C46   C     C_R   0.532652 0.820493 0.144481 0.562170
C47   C     C_R   0.967344 0.320528 0.855528 0.562823
C48   C     C_R   0.032655 0.320493 0.144480 0.562174
C49   C     C_3   0.568435 0.882175 0.473151 -0.226314
C50   C     C_3   0.437243 0.908634 0.526692 -0.216046
C51   C     C_3   0.068437 0.382176 0.473153 -0.226315
C52   C     C_3   0.937243 0.408632 0.526693 -0.216045
C53   C     C_3   0.445349 0.900585 0.444551 -0.255475
C54   C     C_3   0.558948 0.881072 0.555415 -0.261589
C55   C     C_3   0.945352 0.400588 0.444552 -0.255474
C56   C     C_3   0.058949 0.381074 0.555416 -0.261588
C57   C     C_3   0.508665 0.827187 0.429980 0.060191
C58   C     C_3   0.488518 0.828110 0.568677 0.064463
C59   C     C_3   0.008667 0.327187 0.429981 0.060189
C60   C     C_3   0.988520 0.328110 0.568678 0.064462
C61   C     C_3   0.183962 0.661040 0.456666 -0.233895
C62   C     C_3   0.822933 0.640445 0.539032 -0.228291
C63   C     C_3   0.683962 0.161039 0.456666 -0.233895
C64   C     C_3   0.322935 0.140437 0.539031 -0.228289
C65   C     C_3   0.185998 0.666159 0.536767 -0.228065
C66   C     C_3   0.820938 0.644737 0.458895 -0.235736
C67   C     C_3   0.685999 0.166161 0.536767 -0.228069
C68   C     C_3   0.320938 0.144734 0.458894 -0.235734
C69   C     C_3   0.240440 0.461708 0.472611 -0.225413
C70   C     C_3   0.744441 0.455269 0.526864 -0.215275
C71   C     C_3   0.740438 0.961707 0.472611 -0.225412
C72   C     C_3   0.244438 0.955269 0.526864 -0.215279
C73   C     C_3   0.309635 0.634989 0.442313 -0.256546
C74   C     C_3   0.698222 0.647915 0.557714 -0.261958
C75   C     C_3   0.809635 0.134986 0.442313 -0.256547
C76   C     C_3   0.198224 0.147919 0.557714 -0.261954
C77   C     C_3   0.240900 0.576816 0.428914 0.062939
C78   C     C_3   0.760474 0.570411 0.569429 0.067453
C79   C     C_3   0.740900 0.076815 0.428914 0.062941
C80   C     C_3   0.260474 0.070410 0.569429 0.067449
C81   C     C_3   0.252882 0.608571 0.566971 0.064302
C82   C     C_3   0.749217 0.603890 0.431510 0.060507
C83   C     C_3   0.752882 0.108569 0.566971 0.064297
C84   C     C_3   0.249217 0.103890 0.431510 0.060507
C85   C     C_3   0.244792 0.477942 0.554544 -0.262792
C86   C     C_3   0.743275 0.473309 0.445059 -0.254961
C87   C     C_3   0.744788 0.977941 0.554544 -0.262793
C88   C     C_3   0.243272 0.973309 0.445059 -0.254962
C89   C     C_R   0.270564 0.672529 0.860931 0.548570
C90   C     C_R   0.729434 0.672470 0.139077 0.548371
C91   C     C_R   0.770580 0.172587 0.860940 0.548519
C92   C     C_R   0.229433 0.172474 0.139078 0.548377
C93   C     C_3   0.318832 0.644309 0.524274 -0.218193
C94   C     C_3   0.692533 0.665069 0.475937 -0.229654
C95   C     C_3   0.818833 0.144303 0.524275 -0.218195
C96   C     C_3   0.192534 0.165071 0.475937 -0.229652
C97   C     C_R   0.273567 0.041965 0.645376 0.544002
C98   C     C_R   0.727571 0.045385 0.353197 0.540973
C99   C     C_R   0.773567 0.541965 0.645376 0.544005
C100  C     C_R   0.227571 0.545385 0.353197 0.540972
C101  C     C_R   0.468075 0.822763 0.645220 0.542890
C102  C     C_R   0.530171 0.822720 0.353647 0.540889
C103  C     C_R   0.968077 0.322763 0.645222 0.542889
C104  C     C_R   0.030174 0.322720 0.353648 0.540896
C105  C     C_R   0.261117 0.641476 0.643235 0.548819
C106  C     C_R   0.739821 0.638785 0.355611 0.547328
C107  C     C_R   0.761116 0.141475 0.643235 0.548827
C108  C     C_R   0.239821 0.138785 0.355611 0.547327
C109  C     C_3   0.472337 0.920280 0.029953 -0.111057
C110  C     C_3   0.527661 0.920295 0.970167 -0.111127
C111  C     C_3   0.972339 0.420281 0.029955 -0.111059
C112  C     C_3   0.027659 0.420296 0.970165 -0.111127
C113  C     C_3   0.432793 0.822600 0.989865 -0.121950
C114  C     C_3   0.567197 0.822564 0.010162 -0.121755
C115  C     C_3   0.932792 0.322602 0.989869 -0.121967
C116  C     C_3   0.067197 0.322565 0.010159 -0.121770
C117  C     C_3   0.487750 0.824421 0.931143 0.067000
C118  C     C_3   0.512238 0.824350 0.068878 0.067304
C119  C     C_3   0.987746 0.324421 0.931144 0.066999
C120  C     C_3   0.012241 0.324351 0.068878 0.067302
Cr1   Cr    Cr6+3 0.229620 0.836040 0.749110 1.000252
Cr2   Cr    Cr6+3 0.770380 0.836040 0.250890 0.999354
Cr3   Cr    Cr6+3 0.729620 0.336040 0.749110 1.000248
Cr4   Cr    Cr6+3 0.270380 0.336040 0.250890 0.999351
Cr5   Cr    Cr6+3 0.387630 0.990680 0.750730 1.002675
Cr6   Cr    Cr6+3 0.612370 0.990680 0.249270 1.001779
Cr7   Cr    Cr6+3 0.887630 0.490680 0.750730 1.002668
Cr8   Cr    Cr6+3 0.112370 0.490680 0.249270 1.001778
Cr9   Cr    Cr6+3 0.386020 0.676590 0.749210 1.003423
Cr10  Cr    Cr6+3 0.613980 0.676590 0.250790 1.002509
Cr11  Cr    Cr6+3 0.886020 0.176590 0.749210 1.003425
Cr12  Cr    Cr6+3 0.113980 0.176590 0.250790 1.002508
H1    H     H_    0.379283 0.803431 0.980584 0.101866
H2    H     H_    0.620700 0.803376 0.019490 0.101802
H3    H     H_    0.879280 0.303443 0.980594 0.101863
H4    H     H_    0.120701 0.303378 0.019475 0.101811
H5    H     H_    0.201075 0.758325 0.091675 0.113681
H6    H     H_    0.798934 0.758337 0.908489 0.113803
H7    H     H_    0.701079 0.258330 0.091691 0.113688
H8    H     H_    0.298930 0.258329 0.908486 0.113804
H9    H     H_    0.275184 0.821419 0.970387 0.090576
H10   H     H_    0.724803 0.821329 0.029851 0.090627
H11   H     H_    0.775181 0.321458 0.970411 0.090569
H12   H     H_    0.224803 0.321328 0.029847 0.090627
H13   H     H_    0.191984 0.768125 0.973332 0.110914
H14   H     H_    0.808007 0.768004 0.026857 0.111057
H15   H     H_    0.691986 0.268146 0.973349 0.110906
H16   H     H_    0.308006 0.268001 0.026853 0.111058
H17   H     H_    0.636691 0.104453 0.035869 0.132013
H18   H     H_    0.363321 0.104400 0.964158 0.132023
H19   H     H_    0.136686 0.604440 0.035871 0.132018
H20   H     H_    0.863320 0.604417 0.964158 0.132019
H21   H     H_    0.153119 0.587037 0.916083 0.146471
H22   H     H_    0.846860 0.586833 0.083929 0.146378
H23   H     H_    0.653129 0.087068 0.916080 0.146494
H24   H     H_    0.346860 0.086839 0.083929 0.146378
H25   H     H_    0.532300 0.634585 0.441738 0.137018
H26   H     H_    0.451732 0.643459 0.555679 0.138120
H27   H     H_    0.032301 0.134585 0.441738 0.137017
H28   H     H_    0.951732 0.143460 0.555680 0.138122
H29   H     H_    0.444951 0.670623 0.435840 0.119066
H30   H     H_    0.539667 0.657218 0.558746 0.114762
H31   H     H_    0.944951 0.170625 0.435840 0.119067
H32   H     H_    0.039668 0.157218 0.558747 0.114763
H33   H     H_    0.609443 0.825065 0.460048 0.110622
H34   H     H_    0.384101 0.896933 0.543514 0.111151
H35   H     H_    0.109444 0.325065 0.460050 0.110619
H36   H     H_    0.884103 0.396916 0.543511 0.111153
H37   H     H_    0.599552 0.828588 0.582122 0.110072
H38   H     H_    0.399157 0.861202 0.419347 0.106899
H39   H     H_    0.099553 0.328591 0.582123 0.110071
H40   H     H_    0.899159 0.361208 0.419346 0.106899
H41   H     H_    0.450609 0.999046 0.056036 0.113582
H42   H     H_    0.549405 0.999069 0.944167 0.113616
H43   H     H_    0.950612 0.499047 0.056039 0.113583
H44   H     H_    0.049398 0.499071 0.944164 0.113614
H45   H     H_    0.453558 0.988818 0.421080 0.117631
H46   H     H_    0.562198 0.971206 0.577604 0.113268
H47   H     H_    0.953562 0.488822 0.421084 0.117633
H48   H     H_    0.062197 0.471208 0.577604 0.113269
H49   H     H_    0.452076 0.998881 0.541139 0.121184
H50   H     H_    0.578225 0.972436 0.454773 0.129878
H51   H     H_    0.952069 0.498880 0.541144 0.121188
H52   H     H_    0.078227 0.472436 0.454773 0.129877
H53   H     H_    0.130923 0.635803 0.441370 0.136201
H54   H     H_    0.872853 0.608099 0.556021 0.136718
H55   H     H_    0.630924 0.135802 0.441371 0.136201
H56   H     H_    0.372853 0.108077 0.556018 0.136716
H57   H     H_    0.191772 0.749033 0.433493 0.117513
H58   H     H_    0.822002 0.731389 0.560552 0.115040
H59   H     H_    0.691772 0.249032 0.433492 0.117512
H60   H     H_    0.322010 0.231381 0.560555 0.115044
H61   H     H_    0.178892 0.756567 0.553196 0.136032
H62   H     H_    0.834666 0.735428 0.443486 0.135702
H63   H     H_    0.678897 0.256569 0.553195 0.136033
H64   H     H_    0.334665 0.235427 0.443487 0.135702
H65   H     H_    0.140104 0.620609 0.558822 0.115799
H66   H     H_    0.861165 0.588685 0.435633 0.119161
H67   H     H_    0.640105 0.120616 0.558822 0.115801
H68   H     H_    0.361164 0.088684 0.435630 0.119160
H69   H     H_    0.691410 0.927433 0.459843 0.110973
H70   H     H_    0.277213 0.882054 0.542398 0.109653
H71   H     H_    0.191411 0.427435 0.459845 0.110973
H72   H     H_    0.777216 0.382055 0.542399 0.109651
H73   H     H_    0.697965 0.944393 0.581456 0.110160
H74   H     H_    0.285998 0.925236 0.419040 0.106362
H75   H     H_    0.197970 0.444389 0.581457 0.110156
H76   H     H_    0.786001 0.425238 0.419039 0.106362
H77   H     H_    0.350453 0.579150 0.418495 0.117641
H78   H     H_    0.650961 0.606365 0.579381 0.114246
H79   H     H_    0.850454 0.079147 0.418495 0.117642
H80   H     H_    0.150962 0.106374 0.579383 0.114245
H81   H     H_    0.311650 0.722507 0.416732 0.106710
H82   H     H_    0.704781 0.732974 0.585827 0.108533
H83   H     H_    0.811651 0.222505 0.416734 0.106712
H84   H     H_    0.204787 0.232979 0.585826 0.108534
H85   H     H_    0.545527 0.647693 0.943252 0.122874
H86   H     H_    0.454462 0.647669 0.056608 0.122761
H87   H     H_    0.045526 0.147696 0.943250 0.122882
H88   H     H_    0.954465 0.147671 0.056612 0.122762
H89   H     H_    0.338888 0.729591 0.540173 0.111078
H90   H     H_    0.702951 0.754775 0.465768 0.111318
H91   H     H_    0.838889 0.229584 0.540174 0.111077
H92   H     H_    0.202952 0.254776 0.465767 0.111317
H93   H     H_    0.357801 0.577924 0.538466 0.121080
H94   H     H_    0.641168 0.637601 0.457220 0.129791
H95   H     H_    0.857801 0.077917 0.538466 0.121080
H96   H     H_    0.141169 0.137602 0.457221 0.129789
H97   H     H_    0.282078 0.402653 0.454615 0.129576
H98   H     H_    0.691345 0.430898 0.541895 0.121147
H99   H     H_    0.782077 0.902652 0.454617 0.129575
H100  H     H_    0.191342 0.930899 0.541896 0.121148
H101  H     H_    0.289299 0.428648 0.576852 0.112860
H102  H     H_    0.693932 0.441143 0.422068 0.117258
H103  H     H_    0.789293 0.928645 0.576854 0.112860
H104  H     H_    0.193929 0.941145 0.422068 0.117260
H105  H     H_    0.315528 0.439544 0.052456 0.120545
H106  H     H_    0.684479 0.439524 0.947379 0.120677
H107  H     H_    0.815530 0.939554 0.052450 0.120536
H108  H     H_    0.184488 0.939514 0.947393 0.120671
H109  H     H_    0.356693 0.564523 0.078585 0.131618
H110  H     H_    0.643315 0.564540 0.921377 0.131688
H111  H     H_    0.856696 0.064529 0.078593 0.131623
H112  H     H_    0.143314 0.064516 0.921380 0.131693
H113  H     H_    0.372642 0.615366 0.959243 0.132414
H114  H     H_    0.627346 0.615344 0.040747 0.132468
H115  H     H_    0.872652 0.115389 0.959252 0.132399
H116  H     H_    0.127345 0.115348 0.040745 0.132466
H117  H     H_    0.331446 0.483939 0.934859 0.125467
H118  H     H_    0.668528 0.483876 0.065032 0.125321
H119  H     H_    0.831453 0.983974 0.934858 0.125486
H120  H     H_    0.168524 0.983882 0.065037 0.125327
H121  H     H_    0.662446 0.962075 0.041509 0.114589
H122  H     H_    0.337575 0.962023 0.958298 0.114489
H123  H     H_    0.162442 0.462064 0.041523 0.114594
H124  H     H_    0.837587 0.462039 0.958288 0.114492
H125  H     H_    0.711863 0.968199 0.924376 0.156778
H126  H     H_    0.288128 0.967998 0.075456 0.156601
H127  H     H_    0.211849 0.468167 0.924386 0.156767
H128  H     H_    0.788129 0.467991 0.075448 0.156591
O1    O     O_R   0.214130 0.708570 0.829890 -0.522453
O2    O     O_R   0.785870 0.708570 0.170110 -0.523113
O3    O     O_R   0.714130 0.208570 0.829890 -0.522428
O4    O     O_R   0.285870 0.208570 0.170110 -0.523118
O5    O     O_R   0.446360 0.919990 0.675230 -0.509675
O6    O     O_R   0.553640 0.919990 0.324770 -0.509756
O7    O     O_R   0.946360 0.419990 0.675230 -0.509673
O8    O     O_R   0.053640 0.419990 0.324770 -0.509756
O9    O     O_R   0.457170 0.717300 0.668380 -0.531030
O10   O     O_R   0.542830 0.717300 0.331620 -0.531213
O11   O     O_R   0.957170 0.217300 0.668380 -0.531029
O12   O     O_R   0.042830 0.217300 0.331620 -0.531212
O13   O     O_R   0.320870 0.624890 0.673130 -0.508197
O14   O     O_R   0.679130 0.624890 0.326870 -0.508328
O15   O     O_R   0.820870 0.124890 0.673130 -0.508191
O16   O     O_R   0.179130 0.124890 0.326870 -0.508329
O17   O     O_3   0.334430 0.834430 0.749680 -0.292506
O18   O     O_3   0.665570 0.834430 0.250320 -0.289344
O19   O     O_3   0.834430 0.334430 0.749680 -0.292524
O20   O     O_3   0.165570 0.334430 0.250320 -0.289348
O21   O     O_R   0.236050 0.959150 0.825270 -0.518940
O22   O     O_R   0.763950 0.959150 0.174730 -0.519398
O23   O     O_R   0.736050 0.459150 0.825270 -0.518958
O24   O     O_R   0.263950 0.459150 0.174730 -0.519400
O25   O     O_R   0.332100 0.076650 0.832310 -0.531123
O26   O     O_R   0.667900 0.076650 0.167690 -0.531685
O27   O     O_R   0.832100 0.576650 0.832310 -0.531123
O28   O     O_R   0.167900 0.576650 0.167690 -0.531685
O29   O     O_R   0.446500 0.918620 0.826240 -0.506606
O30   O     O_R   0.553500 0.918620 0.173760 -0.507081
O31   O     O_R   0.946500 0.418620 0.826240 -0.506610
O32   O     O_R   0.053500 0.418620 0.173760 -0.507081
O33   O     O_R   0.457310 0.715830 0.831280 -0.525382
O34   O     O_R   0.542690 0.715830 0.168720 -0.525867
O35   O     O_R   0.957310 0.215830 0.831280 -0.525385
O36   O     O_R   0.042690 0.215830 0.168720 -0.525867
O37   O     O_R   0.321000 0.623520 0.824130 -0.504514
O38   O     O_R   0.679000 0.623520 0.175870 -0.505147
O39   O     O_R   0.821000 0.123520 0.824130 -0.504488
O40   O     O_R   0.179000 0.123520 0.175870 -0.505152
O41   O     O_R   0.213990 0.710040 0.667000 -0.530834
O42   O     O_R   0.786010 0.710040 0.333000 -0.531049
O43   O     O_R   0.713990 0.210040 0.667000 -0.530830
O44   O     O_R   0.286010 0.210040 0.333000 -0.531049
O45   O     O_R   0.235920 0.960520 0.674260 -0.512942
O46   O     O_R   0.764080 0.960520 0.325740 -0.512841
O47   O     O_R   0.735920 0.460520 0.674260 -0.512942
O48   O     O_R   0.264080 0.460520 0.325740 -0.512842
O49   O     O_R   0.331960 0.078120 0.669410 -0.532750
O50   O     O_R   0.668040 0.078120 0.330590 -0.532722
O51   O     O_R   0.831960 0.578120 0.669410 -0.532748
O52   O     O_R   0.168040 0.578120 0.330590 -0.532723
C121  C     C_1   0.307044 0.764626 0.106901 0.145277
N1    N     N_1   0.353179 0.800180 0.139709 -0.320731
C122  C     C_1   0.692966 0.764635 0.893246 0.145675
N2    N     N_1   0.646833 0.800178 0.860450 -0.319634
C123  C     C_1   0.807047 0.264630 0.106917 0.145287
N3    N     N_1   0.853182 0.300181 0.139726 -0.320719
C124  C     C_1   0.192962 0.264617 0.893243 0.145670
N4    N     N_1   0.146828 0.300150 0.860445 -0.319632

loop_
_geom_bond_atom_site_label_1
_geom_bond_atom_site_label_2
_ccdc_geom_bond_type
C82   C94   S    
C55   C59   S    
C35   H125  S    
C83   C87   S    
C73   C93   S    
C47   O31   A    
C42   C58   S    
C29   C89   S    
C16   H120  S    
C89   O37   A    
C48   C120  S    
C24   H8    S    
C57   C102  S    
Cr6   O18   S    
Cr7   O7    S    
C85   H101  S    
C59   C104  S    
C63   H55   S    
Cr1   O17   S    
C5    C6    S    
Cr10  O10   S    
C109  H41   S    
Cr4   O4    S    
Cr12  O16   S    
C29   C33   S    
C87   H103  S    
C30   C38   S    
C77   C100  S    
C9    C13   S    
C87   H73   S    
C11   C15   S    
C5    H85   S    
C12   C16   S    
C98   O50   A    
C99   O47   A    
C19   H17   S    
C21   H5    S    
C60   C103  S    
C107  O15   A    
Cr4   O24   S    
C83   C107  S    
C113  H1    S    
C74   H82   S    
C61   H57   S    
C54   H37   S    
C17   H19   S    
C18   H20   S    
C64   H60   S    
C109  C118  S    
C16   H116  S    
C70   H72   S    
Cr5   O25   S    
C50   C53   S    
C75   C95   S    
C7    C119  S    
Cr8   O28   S    
C62   H58   S    
C62   C66   S    
Cr2   O2    S    
C20   C28   S    
C18   H124  S    
Cr12  O36   S    
C43   C44   S    
C66   C82   S    
Cr9   O33   S    
C58   C101  S    
C105  O41   A    
C92   O4    A    
C107  O43   A    
C53   H38   S    
C116  H4    S    
C108  O44   A    
C56   H39   S    
C89   O1    A    
Cr5   O49   S    
C55   H40   S    
C91   O3    A    
Cr1   O45   S    
Cr5   O5    S    
Cr2   O42   S    
C3    C26   S    
C84   C88   S    
C31   C91   S    
C53   H45   S    
Cr12  O12   S    
C13   H117  S    
Cr10  O34   S    
C17   C25   S    
C19   C35   S    
C76   C96   S    
C1    O21   A    
C32   C92   S    
C75   H83   S    
Cr3   O19   S    
C95   H95   S    
C22   C26   S    
C61   C65   S    
C12   H108  S    
C78   C99   S    
C45   O29   A    
C75   C79   S    
Cr5   O29   S    
C22   C38   S    
C67   C83   S    
C80   C97   S    
C11   H111  S    
C69   C77   S    
C111  C112  S    
C9    H109  S    
C71   C79   S    
C4    C25   S    
Cr4   O20   S    
C7    C8    S    
Cr10  O38   S    
Cr4   O44   S    
C96   H96   S    
C73   H77   S    
C35   H23   S    
C43   H27   S    
C64   C68   S    
C100  O52   A    
C33   H21   S    
C49   C57   S    
Cr11  O11   S    
Cr9   O37   S    
C38   H14   S    
C52   C60   S    
C19   H121  S    
C61   C77   S    
C12   H112  S    
C11   C27   S    
C93   H93   S    
C36   H126  S    
C47   O35   A    
C110  C114  S    
C48   O36   A    
C43   C59   S    
C62   H54   S    
C76   H80   S    
C10   H106  S    
C6    H86   S    
Cr1   O21   S    
Cr2   O18   S    
C110  H42   S    
Cr12  O20   S    
C81   C105  S    
C30   C34   S    
C23   C123  S    
C10   C14   S    
C101  O9    A    
C95   H91   S    
C116  C120  S    
C103  O11   A    
C7    C116  S    
C69   H97   S    
C33   H127  S    
C61   H53   S    
C114  H2    S    
C34   H128  S    
C64   H56   S    
C66   H66   S    
C113  C117  S    
C112  H44   S    
C115  C119  S    
Cr6   O26   S    
C9    H105  S    
Cr4   O48   S    
C112  C116  S    
C69   C85   S    
C85   H75   S    
C72   H70   S    
C56   H48   S    
C45   C117  S    
C21   C25   S    
C73   C77   S    
Cr12  O40   S    
C55   H47   S    
C62   C78   S    
C76   C80   S    
C42   H30   S    
C15   C31   S    
C16   C32   S    
C97   O45   A    
C105  O13   A    
C106  O42   A    
C72   C80   S    
C115  H3    S    
C4    O24   A    
C20   H18   S    
C82   C106  S    
C90   O2    A    
Cr6   O50   S    
Cr8   O32   S    
C94   H90   S    
Cr6   O6    S    
C46   O34   A    
Cr7   O19   S    
Cr8   O20   S    
C81   C85   S    
C13   H113  S    
C21   C121  S    
C41   H29   S    
C41   C42   S    
C74   C94   S    
Cr9   O13   S    
C18   C26   S    
C30   C90   S    
Cr11  O39   S    
C1    O25   A    
C9    C25   S    
C2    O22   A    
C3    O27   A    
C75   H79   S    
C86   H102  S    
C37   H9    S    
C12   C28   S    
C13   C29   S    
C24   C124  S    
C67   H67   S    
C98   O46   A    
C92   O40   A    
C46   C118  S    
C66   H62   S    
Cr6   O30   S    
C51   H35   S    
C106  O14   A    
C50   H34   S    
C1    C28   S    
C2    C27   S    
Cr10  O14   S    
C72   H100  S    
Cr11  O19   S    
C52   C55   S    
C122  N2    T    
C64   C80   S    
C73   H81   S    
C42   H26   S    
C17   C33   S    
C110  C117  S    
C65   H61   S    
C34   H22   S    
C40   H16   S    
C68   C84   S    
C24   C28   S    
C51   H52   S    
C86   H76   S    
C53   C57   S    
C82   C86   S    
C56   C60   S    
C50   C58   S    
C104  O12   A    
C49   H33   S    
C48   O32   A    
Cr7   O27   S    
C76   H84   S    
C65   C81   S    
C91   O39   A    
Cr8   O8    S    
C68   H64   S    
C20   H122  S    
Cr2   O22   S    
C41   H25   S    
C15   H115  S    
C44   H28   S    
C31   C35   S    
C32   C36   S    
C36   H24   S    
C101  O5    A    
C102  O10   A    
C108  O16   A    
C112  C119  S    
C14   H118  S    
C22   H6    S    
C41   C57   S    
C109  C110  S    
C121  N1    T    
Cr5   O17   S    
C44   C60   S    
C63   H59   S    
C84   C108  S    
C94   H94   S    
C124  N4    T    
C20   C36   S    
C54   H46   S    
C21   C37   S    
C74   C78   S    
C29   C37   S    
C44   H32   S    
C43   H31   S    
C97   O49   A    
C5    C114  S    
C70   C78   S    
C79   C98   S    
C99   O51   A    
C10   H110  S    
C52   H51   S    
C63   C79   S    
C4    O28   A    
C74   H78   S    
C111  H43   S    
C23   H7    S    
C46   O30   A    
C11   H107  S    
C49   C54   S    
Cr3   O47   S    
C51   C56   S    
C84   C96   S    
C8    C115  S    
Cr1   O1    S    
Cr3   O3    S    
C96   H92   S    
Cr9   O17   S    
C23   C27   S    
C19   C27   S    
C109  C113  S    
C2    O26   A    
C7    H87   S    
C10   C26   S    
C47   C119  S    
C38   H10   S    
C14   C30   S    
C67   H63   S    
C72   C88   S    
C88   H104  S    
C63   C67   S    
Cr7   O31   S    
Cr1   O41   S    
C49   H50   S    
C5    C117  S    
C111  C120  S    
Cr10  O18   S    
Cr3   O43   S    
C70   H98   S    
C6    C113  S    
Cr11  O15   S    
C8    H88   S    
C81   C93   S    
C83   C95   S    
Cr11  O35   S    
C18   C34   S    
C114  C118  S    
C65   H65   S    
C39   H11   S    
C69   H71   S    
C40   H12   S    
C71   C87   S    
C50   H49   S    
C51   C59   S    
C70   C86   S    
C8    C120  S    
Cr2   O46   S    
C54   C58   S    
C71   H69   S    
C17   H123  S    
C45   O33   A    
C104  O8    A    
C88   H74   S    
C111  C115  S    
C22   C122  S    
Cr7   O51   S    
Cr8   O52   S    
C68   H68   S    
C71   H99   S    
Cr3   O23   S    
C52   H36   S    
C90   O38   A    
C15   H119  S    
C23   C39   S    
C3    O23   A    
C24   C40   S    
C31   C39   S    
C32   C40   S    
C123  N3    T    
Cr9   O9    S    
C103  O7    A    
C100  O48   A    
C102  O6    A    
C39   H15   S    
C93   H89   S    
C37   H13   S    
C6    C118  S    
C14   H114  S    
