data_mof_unit_11926.cif
_audit_creation_date              2012-12-10T16:54:58-0500
_audit_creation_method            fapswitch 2.2
_symmetry_space_group_name_H-M    P1
_symmetry_Int_Tables_number       1
_space_group_crystal_system       triclinic
_cell_length_a                    7.787944
_cell_length_b                    8.562854
_cell_length_c                    15.722745
_cell_angle_alpha                 90.880774
_cell_angle_beta                  85.911949
_cell_angle_gamma                 93.512277
_cell_volume                      1043.80722346

loop_
_atom_site_label
_atom_site_type_symbol
_atom_type_description
_atom_site_fract_x
_atom_site_fract_y
_atom_site_fract_z
_atom_type_partial_charge
C1    C     C_R   0.545444 0.794313 0.503208 0.987103
C2    C     C_3   0.331712 0.570307 0.053442 -0.121728
C3    C     C_3   0.502159 0.506578 0.082360 0.327206
C4    C     C_3   0.527303 0.338648 0.047245 -0.405815
C5    C     C_3   0.526274 0.336540 0.949211 -0.406518
C6    C     C_1   0.501082 0.506977 0.174099 -0.101686
C7    C     C_1   0.507981 0.501846 0.825453 -0.104126
C8    C     C_1   0.506797 0.500710 0.750176 -0.154146
C9    C     C_2   0.567777 0.958312 0.505586 -0.393285
C10   C     C_2   0.434812 0.045942 0.530251 -0.196295
C11   C     C_R   0.502110 0.500068 0.661511 0.925489
C12   C     C_R   0.454852 0.205664 0.507482 0.857764
C13   C     C_R   0.498505 0.501074 0.338426 0.897897
C14   C     C_3   0.331380 0.561521 0.954860 -0.433119
C15   C     C_3   0.655515 0.614318 0.946498 -0.396355
C16   C     C_3   0.655580 0.613894 0.044764 -0.440924
C17   C     C_1   0.497407 0.504939 0.249568 -0.195819
C18   C     C_3   0.505616 0.503660 0.916904 0.341092
H1    H     H_    0.335993 0.697427 0.070360 0.116074
H2    H     H_    0.223018 0.483638 0.933396 0.167430
H3    H     H_    0.652638 0.298815 0.065294 0.180574
H4    H     H_    0.687435 0.006705 0.473680 0.157300
H5    H     H_    0.013218 0.382186 0.436249 0.190035
H6    H     H_    0.986810 0.618070 0.563601 0.206964
H7    H     H_    0.312361 0.679877 0.929968 0.165387
H8    H     H_    0.781310 0.575920 0.918104 0.177436
H9    H     H_    0.641508 0.735537 0.924502 0.172982
H10   H     H_    0.646438 0.735447 0.070102 0.160446
H11   H     H_    0.779749 0.571846 0.063481 0.204375
H12   H     H_    0.419062 0.255437 0.929187 0.165986
H13   H     H_    0.648944 0.291317 0.920917 0.174882
H14   H     H_    0.427230 0.253376 0.075644 0.167032
N1    N     N_2   0.950340 0.457950 0.477370 -0.185493
N2    N     N_2   0.049660 0.542050 0.522630 -0.169547
O1    O     O_R   0.389240 0.738570 0.505550 -0.579295
O2    O     O_R   0.678400 0.711630 0.491050 -0.640482
O3    O     O_R   0.355360 0.513470 0.630110 -0.588228
O4    O     O_R   0.644510 0.486530 0.615610 -0.625037
O5    O     O_R   0.321600 0.288370 0.508950 -0.645423
O6    O     O_R   0.610760 0.261430 0.494450 -0.607934
O7    O     O_R   0.355490 0.513470 0.384390 -0.615425
O8    O     O_R   0.644640 0.486530 0.369890 -0.637864
Zn1   Zn    Zn3+2 0.306930 0.517990 0.509680 0.970169
Zn2   Zn    Zn3+2 0.693070 0.482010 0.490320 0.932582
C19   C     C_R   0.169666 0.494831 0.099948 0.147105
C20   C     C_R   0.103724 0.342692 0.079997 -0.150730
C21   C     C_R   0.969041 0.270197 0.131341 -0.192358
C22   C     C_R   0.897557 0.348674 0.202508 -0.109695
C23   C     C_R   0.959056 0.500812 0.221686 -0.115139
C24   C     C_R   0.093157 0.573778 0.170626 -0.191907
H15   H     H_    0.157604 0.278221 0.025913 0.123081
H16   H     H_    0.920699 0.152584 0.116198 0.126645
H17   H     H_    0.794351 0.291581 0.242547 0.141109
H18   H     H_    0.905338 0.562510 0.276728 0.166262
H19   H     H_    0.141535 0.690178 0.188296 0.120167
C25   C     C_2   0.280612 0.994628 0.587281 0.437086
H20   H     H_    0.159614 0.049500 0.582794 0.063991
O9    O     O_2   0.290370 0.898126 0.642892 -0.567279

loop_
_geom_bond_atom_site_label_1
_geom_bond_atom_site_label_2
_ccdc_geom_bond_type
O3    Zn1   S    
C15   C18   S    
C16   H10   S    
C21   H16   S    
C11   O4    A    
O1    Zn1   S    
C9    C10   D    
C14   C18   S    
C15   H9    S    
C24   H19   S    
C13   C17   S    
C7    C18   S    
C3    C6    S    
C12   O5    A    
C13   O7    A    
C2    C3    S    
C3    C4    S    
C7    C8    T    
C14   H7    S    
C19   C20   A    
O4    Zn2   S    
C4    H3    S    
O7    Zn1   S    
C4    H14   S    
O8    Zn2   S    
C19   C24   A    
C8    C11   S    
C10   C12   S    
C22   C23   A    
N1    N2    D    
C25   O9    D    
C5    H12   S    
C2    C19   S    
C22   H17   S    
C2    C14   S    
C9    H4    S    
O2    Zn2   S    
C15   C16   S    
N2    Zn1   S    
C23   H18   S    
C14   H2    S    
O6    Zn2   S    
C1    C9    S    
C25   H20   S    
C1    O1    A    
C11   O3    A    
C10   C25   S    
C23   C24   A    
C6    C17   T    
C20   C21   A    
C13   O8    A    
C15   H8    S    
O5    Zn1   S    
C5    C18   S    
C5    H13   S    
C16   H11   S    
C2    H1    S    
N1    Zn2   S    
C20   H15   S    
H6    N2    S    
C3    C16   S    
C21   C22   A    
C1    O2    A    
C4    C5    S    
H5    N1    S    
C12   O6    A    
