data_mof_unit_5960.cif
_audit_creation_date              2013-03-05T15:43:18-0500
_audit_creation_method            fapswitch 2.2
_symmetry_space_group_name_H-M    P1
_symmetry_Int_Tables_number       1
_space_group_crystal_system       triclinic
_cell_length_a                    10.632023
_cell_length_b                    10.644196
_cell_length_c                    10.050079
_cell_angle_alpha                 88.667867
_cell_angle_beta                  87.622874
_cell_angle_gamma                 91.901687
_cell_volume                      1135.41079918

loop_
_atom_site_label
_atom_site_type_symbol
_atom_site_description
_atom_site_fract_x
_atom_site_fract_y
_atom_site_fract_z
_atom_type_partial_charge
O1    O     O_R   0.499980 0.319060 0.613040 -0.567173
O2    O     O_R   0.500020 0.319100 0.386900 -0.621841
C1    C     C_R   0.494476 0.262231 0.502159 0.908515
O3    O     O_R   0.316750 0.499980 0.613090 -0.545913
O4    O     O_R   0.316790 0.500020 0.386950 -0.644207
C2    C     C_R   0.260892 0.476286 0.502379 0.871867
Zn1   Zn    Zn3+2 0.499970 0.499970 0.650990 1.022658
Zn2   Zn    Zn3+2 0.500030 0.500030 0.349010 1.026643
O5    O     O_R   0.499980 0.680900 0.613100 -0.631211
O6    O     O_R   0.500020 0.680940 0.386960 -0.558040
O7    O     O_R   0.683210 0.499980 0.613050 -0.646081
O8    O     O_R   0.683250 0.500020 0.386910 -0.524273
C3    C     C_R   0.497573 0.737207 0.498356 0.910517
C4    C     C_R   0.740273 0.491263 0.496920 0.880285
C5    C     C_R   0.092430 0.318326 0.723954 0.300601
C6    C     C_R   0.010278 0.237196 0.800686 -0.271379
H1    H     H_    0.046004 0.185199 0.883661 0.196136
C7    C     C_R   0.883169 0.224398 0.774405 0.286944
C8    C     C_R   0.837187 0.298262 0.672481 -0.240469
H2    H     H_    0.739146 0.285777 0.650554 0.202199
C9    C     C_R   0.917739 0.380063 0.592735 -0.014179
C10   C     C_R   0.049316 0.383159 0.609286 -0.046996
C11   C     C_R   0.126613 0.437162 0.500154 -0.202867
C12   C     C_R   0.070558 0.445576 0.373836 -0.000928
C13   C     C_R   0.945419 0.476702 0.372843 0.270719
C14   C     C_R   0.870018 0.453597 0.489191 -0.231194
C15   C     C_2   0.411281 0.931621 0.422242 0.165528
C16   C     C_2   0.496606 0.869727 0.491398 -0.276574
H3    H     H_    0.575879 0.917569 0.535715 0.134924
C17   C     C_2   0.430991 0.066616 0.407743 -0.194960
C18   C     C_2   0.470223 0.130272 0.511335 -0.327807
H4    H     H_    0.413749 0.112563 0.313192 0.194623
H5    H     H_    0.476833 0.085152 0.608959 0.205386
C19   C     C_2   0.568302 0.578861 0.921730 0.017311
N1    N     N_2   0.501340 0.501330 0.852150 -0.174311
H6    H     H_    0.434348 0.446709 0.904393 0.220223
C20   C     C_2   0.545868 0.592506 0.070525 0.329083
N2    N     N_2   0.501380 0.501360 0.147810 -0.239861
H7    H     H_    0.489322 0.415204 0.105245 0.141570
C21   C     C_3   0.131836 0.398168 0.244253 -0.267790
C22   C     C_3   0.175489 0.263223 0.263950 -0.440914
C23   C     C_3   0.234535 0.213133 0.135887 -0.725748
H8    H     H_    0.169168 0.222529 0.053918 0.282043
H9    H     H_    0.323786 0.265751 0.108155 0.262119
H10   H     H_    0.254338 0.112105 0.149788 0.241310
H11   H     H_    0.245113 0.259045 0.342901 0.226645
H12   H     H_    0.092867 0.201334 0.295802 0.239078
H13   H     H_    0.063485 0.394588 0.163862 0.243221
H14   H     H_    0.208383 0.462114 0.202116 0.236145
C24   C     C_3   0.674203 0.660575 0.855814 -0.330497
C25   C     C_3   0.802429 0.604483 0.879525 -0.304664
C26   C     C_3   0.908517 0.675196 0.799093 -0.797478
H15   H     H_    0.893035 0.669739 0.690726 0.243124
H16   H     H_    0.913565 0.775431 0.827459 0.285410
H17   H     H_    0.999744 0.632215 0.819451 0.282030
H18   H     H_    0.821825 0.609957 0.986433 0.309653
H19   H     H_    0.801264 0.504044 0.851810 0.249275
H20   H     H_    0.664328 0.672978 0.748794 0.253274
H21   H     H_    0.672724 0.757390 0.894368 0.242442
N3    N     N_R   0.581149 0.709512 0.128070 0.226956
O9    O     O_R   0.521370 0.810276 0.097997 -0.395523
O10   O     O_R   0.685055 0.719668 0.191372 -0.317619
N4    N     N_R   0.211296 0.344175 0.777847 0.202502
O11   O     O_R   0.217781 0.436118 0.860554 -0.440599
O12   O     O_R   0.290507 0.254125 0.786671 -0.417951
N5    N     N_R   0.800547 0.138964 0.852934 0.221760
O13   O     O_R   0.844457 0.068181 0.946384 -0.365913
O14   O     O_R   0.680721 0.130524 0.831291 -0.383096
N6    N     N_R   0.895965 0.524548 0.251887 0.214732
O15   O     O_R   0.829080 0.449577 0.180054 -0.401992
O16   O     O_R   0.946710 0.626869 0.196825 -0.408661
C27   C     C_3   0.294817 0.871293 0.364060 -0.350137
C28   C     C_3   0.175374 0.915029 0.437843 -0.442923
C29   C     C_3   0.057300 0.849814 0.387384 -0.728048
H22   H     H_    0.050445 0.868347 0.278667 0.296186
H23   H     H_    0.059598 0.746788 0.407362 0.261262
H24   H     H_    0.972541 0.886213 0.439950 0.247580
H25   H     H_    0.180537 0.893444 0.546294 0.246121
H26   H     H_    0.167721 0.018296 0.423963 0.233332
H27   H     H_    0.293001 0.898157 0.256645 0.225982
H28   H     H_    0.293901 0.767253 0.371002 0.221902

loop_
_geom_bond_atom_site_label_1
_geom_bond_atom_site_label_2
_geom_bond_distance
_ccdc_geom_bond_type
N5    O14   1.301812 A    
C9    C14   1.408986 A    
N4    O12   1.300645 A    
C19   C20   1.515593 S    
C22   C23   1.523799 S    
N1    H6    1.023871 S    
Zn1   O7    1.969590 S    
C29   H23   1.111506 S    
C24   H21   1.109722 S    
C16   H3    1.086861 S    
C8    C9    1.412464 A    
C7    C8    1.391415 A    
Zn2   N2    2.021247 S    
N2    H7    1.027332 S    
O7    C4    1.299571 A    
C21   H14   1.107346 S    
N3    O10   1.300159 A    
C19   N1    1.306156 D    
C28   C29   1.525223 S    
N6    O16   1.300660 A    
C21   H13   1.109332 S    
O5    C3    1.288810 A    
C5    C10   1.429077 A    
C8    H2    1.078881 S    
C6    H1    1.079245 S    
C29   H24   1.111074 S    
C22   H11   1.108509 S    
C18   H5    1.088234 S    
C3    C16   1.411074 S    
C25   H19   1.110836 S    
C27   H28   1.107691 S    
C26   H17   1.110631 S    
N5    O13   1.301732 A    
C9    C10   1.415007 A    
C15   C17   1.448319 S    
C23   H9    1.107853 S    
O3    Zn1   2.000336 S    
C26   H16   1.110885 S    
C28   H26   1.110884 S    
C19   C24   1.519691 S    
C29   H22   1.111556 S    
C25   C26   1.527056 S    
C24   H20   1.090399 S    
C12   C13   1.382116 A    
O3    C2    1.308517 A    
C13   C14   1.402212 A    
C28   H25   1.112625 S    
N3    O9    1.300684 A    
O1    C1    1.282783 A    
C23   H10   1.109380 S    
C20   N2    1.293172 D    
C17   C18   1.329298 D    
Zn2   O8    2.000337 S    
C24   C25   1.531735 S    
C22   H12   1.111999 S    
C4    C14   1.448770 S    
C1    C18   1.419809 S    
Zn2   O6    1.971731 S    
C21   C22   1.535062 S    
O8    C4    1.285760 A    
C13   N6    1.433723 S    
C23   H8    1.104499 S    
C26   H15   1.110757 S    
Zn1   O5    1.954433 S    
O1    Zn1   1.971731 S    
Zn1   N1    2.022714 S    
O2    Zn2   1.954432 S    
C25   H18   1.104906 S    
C27   C28   1.535077 S    
O6    C3    1.281621 A    
O4    Zn2   1.969589 S    
C7    N5    1.441387 S    
O2    C1    1.292700 A    
C27   H27   1.111427 S    
C17   H4    1.083768 S    
O4    C2    1.296927 A    
C2    C11   1.475039 S    
C12   C21   1.535300 S    
N6    O15   1.302073 A    
C20   N3    1.430655 S    
C11   C12   1.426836 A    
N4    O11   1.300594 A    
C6    C7    1.390587 A    
C15   C16   1.345637 D    
C5    N4    1.416632 S    
C10   C11   1.439909 A    
C15   C27   1.520616 S    
C5    C6    1.402299 A    
