data_mof_unit_63580.cif
_audit_creation_date              2012-12-10T19:53:41-0500
_audit_creation_method            fapswitch 2.2
_symmetry_space_group_name_H-M    P1
_symmetry_Int_Tables_number       1
_space_group_crystal_system       triclinic
_cell_length_a                    18.2563
_cell_length_b                    18.256005
_cell_length_c                    47.168644
_cell_angle_alpha                 89.999836
_cell_angle_beta                  89.999587
_cell_angle_gamma                 90.000633
_cell_volume                      15720.7007608

loop_
_atom_site_label
_atom_site_type_symbol
_atom_type_description
_atom_site_fract_x
_atom_site_fract_y
_atom_site_fract_z
_atom_type_partial_charge
C1    C     C_R   0.000000 0.859009 0.000000 0.912929
C2    C     C_R   0.140990 1.000000 1.000000 0.912942
C3    C     C_R   1.000000 0.140990 0.000000 0.912928
C4    C     C_R   0.859010 0.000000 0.000000 0.912941
C5    C     C_R   0.500000 0.359009 0.500000 0.912885
C6    C     C_R   0.640990 0.500000 0.500000 0.912887
C7    C     C_R   0.500000 0.640990 0.500000 0.912885
C8    C     C_R   0.359009 0.500000 0.500000 0.912887
C9    C     C_R   0.447266 0.040895 0.868941 0.046862
C10   C     C_R   0.959019 0.447309 0.868943 0.046829
C11   C     C_R   0.552799 0.959111 0.868948 0.046853
C12   C     C_R   0.040993 0.552697 0.868944 0.046832
C13   C     C_R   0.447231 0.959090 0.131052 0.046882
C14   C     C_R   0.959788 0.553257 0.131039 0.047055
C15   C     C_R   0.552751 0.040891 0.131055 0.046897
C16   C     C_R   0.040216 0.446709 0.131035 0.047045
C17   C     C_R   0.947396 0.541086 0.368936 0.046804
C18   C     C_R   0.459049 0.947256 0.368947 0.046814
C19   C     C_R   0.052617 0.458901 0.368938 0.046798
C20   C     C_R   0.540949 0.052704 0.368943 0.046832
C21   C     C_R   0.947208 0.459146 0.631054 0.046912
C22   C     C_R   0.459259 0.052862 0.631054 0.046938
C23   C     C_R   0.052816 0.540853 0.631051 0.046923
C24   C     C_R   0.540763 0.947103 0.631047 0.046938
C25   C     C_R   0.446980 0.040922 0.898687 0.282906
C26   C     C_R   0.958990 0.447031 0.898688 0.282949
C27   C     C_R   0.553059 0.959080 0.898694 0.282907
C28   C     C_R   0.041015 0.552974 0.898690 0.282947
C29   C     C_R   0.446960 0.959066 0.101307 0.282952
C30   C     C_R   0.959742 0.553514 0.101293 0.282600
C31   C     C_R   0.553026 0.040927 0.101310 0.282946
C32   C     C_R   0.040258 0.446463 0.101289 0.282605
C33   C     C_R   0.947111 0.541108 0.398682 0.282953
C34   C     C_R   0.459027 0.946987 0.398693 0.282903
C35   C     C_R   0.052898 0.458887 0.398684 0.282961
C36   C     C_R   0.540974 0.052988 0.398688 0.282896
C37   C     C_R   0.946931 0.459116 0.601308 0.282896
C38   C     C_R   0.459221 0.053135 0.601308 0.282835
C39   C     C_R   0.053082 0.540883 0.601306 0.282890
C40   C     C_R   0.540786 0.946838 0.601302 0.282832
C41   C     C_R   0.500012 1.000000 0.913576 -0.243995
C42   C     C_R   0.000001 0.500002 0.913575 -0.244051
C43   C     C_R   0.499995 0.999998 0.086423 -0.244007
C44   C     C_R   1.000000 0.499992 0.086412 -0.243329
C45   C     C_R   0.000004 0.499999 0.413571 -0.244170
C46   C     C_R   0.500001 0.999991 0.413576 -0.244042
C47   C     C_R   0.000005 0.500000 0.586422 -0.244007
C48   C     C_R   0.500001 0.999990 0.586421 -0.243893
C49   C     C_R   0.500039 0.000003 0.854288 0.211547
C50   C     C_R   0.000009 0.500002 0.854287 0.211540
C51   C     C_R   0.499990 0.999987 0.145709 0.211622
C52   C     C_R   0.000004 0.499980 0.145695 0.211619
C53   C     C_R   0.000007 0.499991 0.354279 0.211414
C54   C     C_R   0.499999 0.999976 0.354288 0.211429
C55   C     C_R   0.000015 0.499998 0.645708 0.211510
C56   C     C_R   0.500017 0.999982 0.645707 0.211497
C57   C     C_1   0.782518 0.000001 0.000000 -0.126519
C58   C     C_1   0.000001 0.782518 0.000000 -0.126404
C59   C     C_1   0.217482 0.999999 1.000000 -0.126519
C60   C     C_1   0.999999 0.217482 0.000000 -0.126403
C61   C     C_1   0.282518 0.500001 0.500000 -0.126495
C62   C     C_1   0.500000 0.282518 0.500000 -0.126455
C63   C     C_1   0.717482 0.499999 0.500000 -0.126497
C64   C     C_1   0.499999 0.717482 0.500000 -0.126450
C65   C     C_1   0.717715 0.000001 0.000000 -0.101552
C66   C     C_1   0.000001 0.717715 0.000000 -0.101235
C67   C     C_1   0.282285 0.999999 1.000000 -0.101556
C68   C     C_1   0.999999 0.282285 0.000000 -0.101230
C69   C     C_1   0.217715 0.500001 0.500000 -0.101608
C70   C     C_1   0.500001 0.217715 0.500000 -0.101488
C71   C     C_1   0.782285 0.499999 0.500000 -0.101615
C72   C     C_1   0.499999 0.782285 0.500000 -0.101469
C73   C     C_R   0.500001 0.000000 0.944580 1.000182
C74   C     C_R   0.000000 0.500000 0.944580 1.000012
C75   C     C_R   0.499999 1.000000 0.055419 1.000149
C76   C     C_R   1.000000 0.499999 0.055415 1.001098
C77   C     C_R   0.000000 0.500000 0.444578 0.999952
C78   C     C_R   0.500000 0.999999 0.444580 1.000130
C79   C     C_R   0.000001 0.500000 0.555419 1.000257
C80   C     C_R   0.500000 0.999999 0.555419 1.000382
C81   C     C_R   0.641235 0.000000 0.000000 0.952232
C82   C     C_R   0.000000 0.641235 0.000000 0.952633
C83   C     C_R   0.358765 1.000000 1.000000 0.952226
C84   C     C_R   1.000000 0.358765 0.000000 0.952636
C85   C     C_R   0.141235 0.500000 0.500000 0.952165
C86   C     C_R   0.500000 0.141235 0.500000 0.952315
C87   C     C_R   0.858765 0.500000 0.500000 0.952159
C88   C     C_R   0.500000 0.858765 0.500000 0.952331
C89   C     C_R   0.952207 0.455538 0.189948 0.627819
C90   C     C_R   0.544781 0.952508 0.189957 0.627796
C91   C     C_R   0.047817 0.544413 0.189947 0.627816
C92   C     C_R   0.455188 0.047447 0.189959 0.627792
C93   C     C_R   0.952971 0.545241 0.810035 0.627830
C94   C     C_R   0.545195 0.047115 0.810034 0.627850
C95   C     C_R   0.047056 0.454767 0.810036 0.627835
C96   C     C_R   0.454902 0.952854 0.810038 0.627818
C97   C     C_R   0.452809 0.954926 0.689961 0.627830
C98   C     C_R   0.045017 0.452730 0.689959 0.627828
C99   C     C_R   0.547261 0.045021 0.689958 0.627832
C100  C     C_R   0.955020 0.547276 0.689959 0.627815
C101  C     C_R   0.453136 0.045410 0.310035 0.627827
C102  C     C_R   0.045686 0.546606 0.310023 0.627838
C103  C     C_R   0.546840 0.954530 0.310033 0.627841
C104  C     C_R   0.954337 0.453362 0.310024 0.627842
C105  C     C_R   0.048819 0.546703 0.219893 -0.164384
C106  C     C_R   0.452995 0.048528 0.219906 -0.164397
C107  C     C_R   0.951220 0.453241 0.219894 -0.164391
C108  C     C_R   0.546958 0.951406 0.219904 -0.164398
C109  C     C_R   0.047949 0.452394 0.780091 -0.164364
C110  C     C_R   0.452544 0.951939 0.780092 -0.164356
C111  C     C_R   0.952087 0.547620 0.780090 -0.164364
C112  C     C_R   0.547568 0.048002 0.780089 -0.164365
C113  C     C_R   0.548172 0.047384 0.719903 -0.164364
C114  C     C_R   0.952689 0.548217 0.719904 -0.164371
C115  C     C_R   0.451926 0.952546 0.719907 -0.164361
C116  C     C_R   0.047352 0.451796 0.719905 -0.164375
C117  C     C_R   0.547562 0.952002 0.280090 -0.164371
C118  C     C_R   0.951849 0.452602 0.280080 -0.164356
C119  C     C_R   0.452395 0.047925 0.280091 -0.164364
C120  C     C_R   0.048188 0.547351 0.280079 -0.164350
C121  C     C_R   0.000019 0.499973 0.234950 -0.095544
C122  C     C_R   0.499977 0.999966 0.234961 -0.095518
C123  C     C_R   0.000019 0.500007 0.765034 -0.095574
C124  C     C_R   0.500055 0.999968 0.765034 -0.095582
C125  C     C_R   0.500051 0.999966 0.734961 -0.095579
C126  C     C_R   0.000020 0.500007 0.734961 -0.095562
C127  C     C_R   0.499977 0.999964 0.265033 -0.095564
C128  C     C_R   0.000019 0.499975 0.265022 -0.095573
C129  C     C_R   0.096790 0.593622 0.235120 0.365897
C130  C     C_R   0.405929 0.096350 0.235136 0.365874
C131  C     C_R   0.903264 0.406310 0.235122 0.365906
C132  C     C_R   0.594005 0.903563 0.235133 0.365879
C133  C     C_R   0.094962 0.404522 0.764865 0.365900
C134  C     C_R   0.404790 0.904804 0.764868 0.365907
C135  C     C_R   0.905082 0.595498 0.764864 0.365897
C136  C     C_R   0.595340 0.095111 0.764862 0.365908
C137  C     C_R   0.595390 0.095055 0.735127 0.365915
C138  C     C_R   0.905133 0.595549 0.735130 0.365905
C139  C     C_R   0.404733 0.904855 0.735134 0.365910
C140  C     C_R   0.094912 0.404470 0.735131 0.365905
C141  C     C_R   0.594055 0.903621 0.264867 0.365891
C142  C     C_R   0.903327 0.406253 0.264857 0.365895
C143  C     C_R   0.405882 0.096290 0.264870 0.365887
C144  C     C_R   0.096726 0.593683 0.264854 0.365884
N1    N     N_R   0.000009 0.499978 0.176076 -0.335608
N2    N     N_R   0.499987 0.999981 0.176089 -0.335588
N3    N     N_R   0.000012 0.500003 0.823907 -0.335578
N4    N     N_R   0.500045 0.999991 0.823908 -0.335580
N5    N     N_R   0.500028 0.999977 0.676088 -0.335591
N6    N     N_R   0.000017 0.500001 0.676089 -0.335591
N7    N     N_R   0.499992 0.999973 0.323907 -0.335582
N8    N     N_R   0.000009 0.499987 0.323897 -0.335569
O1    O     O_R   0.999960 0.892740 0.023680 -0.604711
O2    O     O_R   0.107260 0.999960 0.023680 -0.604842
O3    O     O_R   0.000040 0.107260 0.023680 -0.604709
O4    O     O_R   0.892740 0.000040 0.023680 -0.604844
O5    O     O_R   0.999960 0.107260 0.976320 -0.604836
O6    O     O_R   0.107260 0.000040 0.976320 -0.604770
O7    O     O_R   0.000040 0.892740 0.976320 -0.604835
O8    O     O_R   0.892740 0.999960 0.976320 -0.604767
O9    O     O_R   0.499960 0.392740 0.523680 -0.604782
O10   O     O_R   0.607260 0.499960 0.523680 -0.604791
O11   O     O_R   0.500040 0.607260 0.523680 -0.604779
O12   O     O_R   0.392740 0.500040 0.523680 -0.604791
O13   O     O_R   0.499960 0.607260 0.476320 -0.604747
O14   O     O_R   0.607260 0.500040 0.476320 -0.604762
O15   O     O_R   0.500040 0.392740 0.476320 -0.604746
O16   O     O_R   0.392740 0.499960 0.476320 -0.604761
O17   O     O_R   0.500020 0.060670 0.958090 -0.585402
O18   O     O_R   0.939330 0.500020 0.958090 -0.585372
O19   O     O_R   0.499980 0.939330 0.958090 -0.585395
O20   O     O_R   0.060670 0.499980 0.958090 -0.585377
O21   O     O_R   0.500020 0.939330 0.041910 -0.585372
O22   O     O_R   0.939330 0.499980 0.041910 -0.585735
O23   O     O_R   0.499980 0.060670 0.041910 -0.585368
O24   O     O_R   0.060670 0.500020 0.041910 -0.585737
O25   O     O_R   0.000020 0.560670 0.458090 -0.585316
O26   O     O_R   0.439330 0.000020 0.458090 -0.585395
O27   O     O_R   0.999980 0.439330 0.458090 -0.585318
O28   O     O_R   0.560670 0.999980 0.458090 -0.585400
O29   O     O_R   0.000020 0.439330 0.541910 -0.585415
O30   O     O_R   0.439330 0.999980 0.541910 -0.585470
O31   O     O_R   0.999980 0.560670 0.541910 -0.585411
O32   O     O_R   0.560670 0.000020 0.541910 -0.585475
O33   O     O_R   0.607320 0.060650 0.000010 -0.604147
O34   O     O_R   0.939350 0.607320 0.000010 -0.604239
O35   O     O_R   0.392680 0.939350 0.000010 -0.604139
O36   O     O_R   0.060650 0.392680 0.000010 -0.604233
O37   O     O_R   0.607320 0.939350 0.999990 -0.604157
O38   O     O_R   0.939350 0.392680 0.999990 -0.604144
O39   O     O_R   0.392680 0.060650 0.999990 -0.604169
O40   O     O_R   0.060650 0.607320 0.999990 -0.604139
O41   O     O_R   0.107320 0.560650 0.500010 -0.604158
O42   O     O_R   0.439350 0.107320 0.500010 -0.604176
O43   O     O_R   0.892680 0.439350 0.500010 -0.604162
O44   O     O_R   0.560650 0.892680 0.500010 -0.604169
O45   O     O_R   0.107320 0.439350 0.499990 -0.604142
O46   O     O_R   0.439350 0.892680 0.499990 -0.604154
O47   O     O_R   0.892680 0.560650 0.499990 -0.604143
O48   O     O_R   0.560650 0.107320 0.499990 -0.604159
O49   O     O_2   0.906057 0.414349 0.174370 -0.456937
O50   O     O_2   0.586467 0.906817 0.174373 -0.456978
O51   O     O_2   0.093955 0.585611 0.174367 -0.456948
O52   O     O_2   0.413517 0.093154 0.174376 -0.456982
O53   O     O_2   0.907450 0.587123 0.825613 -0.457062
O54   O     O_2   0.586995 0.092714 0.825611 -0.457043
O55   O     O_2   0.092571 0.412880 0.825615 -0.457054
O56   O     O_2   0.413089 0.907275 0.825618 -0.457059
O57   O     O_2   0.407109 0.913231 0.674386 -0.457028
O58   O     O_2   0.086716 0.407041 0.674381 -0.457012
O59   O     O_2   0.592940 0.086730 0.674379 -0.457020
O60   O     O_2   0.913319 0.592962 0.674380 -0.457024
O61   O     O_2   0.407631 0.087330 0.325608 -0.457084
O62   O     O_2   0.087858 0.591876 0.325595 -0.457130
O63   O     O_2   0.592360 0.912621 0.325605 -0.457074
O64   O     O_2   0.912154 0.408104 0.325598 -0.457118
Zn1   Zn    Zn3+2 0.000000 0.000000 0.031620 1.077296
Zn2   Zn    Zn3+2 0.000000 1.000000 0.968380 1.077504
Zn3   Zn    Zn3+2 0.500000 0.500000 0.531620 1.077492
Zn4   Zn    Zn3+2 0.500000 0.500000 0.468380 1.077833
Zn5   Zn    Zn3+2 0.500000 0.080980 0.000000 1.114546
Zn6   Zn    Zn3+2 0.919020 0.500000 0.000000 1.114353
Zn7   Zn    Zn3+2 0.500000 0.919020 0.000000 1.114556
Zn8   Zn    Zn3+2 0.080980 0.500000 0.000000 1.114355
Zn9   Zn    Zn3+2 1.000000 0.580980 0.500000 1.114503
Zn10  Zn    Zn3+2 0.419020 0.000000 0.500000 1.114423
Zn11  Zn    Zn3+2 1.000000 0.419020 0.500000 1.114500
Zn12  Zn    Zn3+2 0.580980 0.000000 0.500000 1.114420
Cl1   Cl    Cl    0.158259 0.654932 0.217970 -0.369321
Cl2   Cl    Cl    0.344525 0.157738 0.217994 -0.369275
Cl3   Cl    Cl    0.841826 0.344972 0.217974 -0.369334
Cl4   Cl    Cl    0.655371 0.842143 0.217990 -0.369271
Cl5   Cl    Cl    0.155076 0.341896 0.782018 -0.369473
Cl6   Cl    Cl    0.342339 0.844513 0.782022 -0.369468
Cl7   Cl    Cl    0.844979 0.658136 0.782016 -0.369482
Cl8   Cl    Cl    0.657836 0.155362 0.782011 -0.369477
Cl9   Cl    Cl    0.655778 0.157409 0.717973 -0.369473
Cl10  Cl    Cl    0.842954 0.656122 0.717978 -0.369439
Cl11  Cl    Cl    0.344380 0.842460 0.717983 -0.369479
Cl12  Cl    Cl    0.157102 0.343905 0.717980 -0.369434
Cl13  Cl    Cl    0.653313 0.840193 0.282028 -0.369545
Cl14  Cl    Cl    0.839775 0.347123 0.282015 -0.369541
Cl15  Cl    Cl    0.346591 0.159687 0.282032 -0.369542
Cl16  Cl    Cl    0.160305 0.652791 0.282011 -0.369540
N9    N     N_3   0.394203 0.081964 0.853155 -0.395913
H1    H     H_    0.341986 0.063252 0.858648 0.256796
H2    H     H_    0.398500 0.137051 0.858965 0.254381
N10   N     N_3   0.917839 0.394327 0.853159 -0.395910
H3    H     H_    0.936423 0.342068 0.858657 0.256825
H4    H     H_    0.862760 0.398758 0.858964 0.254358
N11   N     N_3   0.605873 0.918041 0.853169 -0.395905
H5    H     H_    0.658091 0.936737 0.858673 0.256805
H6    H     H_    0.601557 0.862950 0.858975 0.254368
N12   N     N_3   0.082169 0.605686 0.853162 -0.395905
H7    H     H_    0.063572 0.657943 0.858660 0.256820
H8    H     H_    0.137249 0.601267 0.858969 0.254362
N13   N     N_3   0.394164 0.918013 0.146835 -0.396027
H9    H     H_    0.341942 0.936699 0.141332 0.256409
H10   H     H_    0.398489 0.862922 0.141031 0.254670
N14   N     N_3   0.919427 0.606853 0.146821 -0.396039
H11   H     H_    0.938799 0.658813 0.141313 0.256459
H12   H     H_    0.864291 0.603259 0.141019 0.254613
N15   N     N_3   0.605814 0.081963 0.146841 -0.396021
H13   H     H_    0.658038 0.063284 0.141338 0.256409
H14   H     H_    0.601484 0.137057 0.141041 0.254666
N16   N     N_3   0.080575 0.393103 0.146813 -0.396039
H15   H     H_    0.061197 0.341148 0.141303 0.256461
H16   H     H_    0.135709 0.396694 0.141010 0.254613
N17   N     N_3   0.894507 0.582389 0.353153 -0.395788
H17   H     H_    0.842204 0.563910 0.358647 0.257189
H18   H     H_    0.899051 0.637459 0.358963 0.254077
N18   N     N_3   0.417896 0.894245 0.353167 -0.395837
H19   H     H_    0.436516 0.841999 0.358667 0.257100
H20   H     H_    0.362816 0.898642 0.358975 0.254148
N19   N     N_3   0.105512 0.417598 0.353157 -0.395793
H21   H     H_    0.157812 0.436085 0.358650 0.257188
H22   H     H_    0.100973 0.362528 0.358970 0.254082
N20   N     N_3   0.582093 0.105715 0.353159 -0.395826
H23   H     H_    0.563461 0.157962 0.358654 0.257093
H24   H     H_    0.637176 0.101334 0.358967 0.254152
N21   N     N_3   0.894100 0.418120 0.646838 -0.395925
H25   H     H_    0.841893 0.436865 0.641339 0.256681
H26   H     H_    0.898363 0.363020 0.641032 0.254462
N22   N     N_3   0.418329 0.106037 0.646839 -0.395913
H27   H     H_    0.437155 0.158210 0.641337 0.256754
H28   H     H_    0.363225 0.101861 0.641036 0.254400
N23   N     N_3   0.105921 0.581890 0.646833 -0.395920
H29   H     H_    0.158133 0.563161 0.641329 0.256686
H30   H     H_    0.101638 0.636991 0.641029 0.254452
N24   N     N_3   0.581693 0.893915 0.646826 -0.395906
H31   H     H_    0.562847 0.841744 0.641325 0.256750
H32   H     H_    0.636797 0.898075 0.641017 0.254405
Cl17  Cl    Cl    0.378029 0.090014 0.916971 -0.567037
Cl18  Cl    Cl    0.909781 0.378163 0.916973 -0.566967
Cl19  Cl    Cl    0.621996 0.909991 0.916986 -0.567061
Cl20  Cl    Cl    0.090216 0.621846 0.916976 -0.566973
Cl21  Cl    Cl    0.378025 0.909966 0.083018 -0.567047
Cl22  Cl    Cl    0.911462 0.622979 0.082989 -0.567841
Cl23  Cl    Cl    0.621962 0.090035 0.083025 -0.567039
Cl24  Cl    Cl    0.088531 0.377002 0.082980 -0.567854
Cl25  Cl    Cl    0.878323 0.590433 0.416963 -0.566819
Cl26  Cl    Cl    0.409870 0.878090 0.416982 -0.566990
Cl27  Cl    Cl    0.121687 0.409570 0.416968 -0.566827
Cl28  Cl    Cl    0.590130 0.121896 0.416972 -0.566977
Cl29  Cl    Cl    0.877946 0.410074 0.583020 -0.567080
Cl30  Cl    Cl    0.410293 0.122195 0.583019 -0.567200
Cl31  Cl    Cl    0.122060 0.589931 0.583014 -0.567087
Cl32  Cl    Cl    0.589700 0.877777 0.583006 -0.567219

loop_
_geom_bond_atom_site_label_1
_geom_bond_atom_site_label_2
_ccdc_geom_bond_type
C50   N3    S    
O44   Zn12  S    
C17   C53   A    
C33   C45   A    
C88   O44   A    
O22   Zn6   S    
C64   C72   T    
C99   N5    A    
N22   H27   S    
C112  C124  A    
C96   O56   S    
C22   C38   A    
C140  Cl12  S    
C119  C143  A    
C62   C70   T    
C106  C130  A    
C21   N21   S    
N12   H8    S    
C8    O16   A    
O13   Zn4   S    
C29   Cl21  S    
C13   C51   A    
C14   C52   A    
C101  O61   S    
N18   H19   S    
C120  C144  A    
C53   N8    S    
N23   H30   S    
C15   C51   A    
C97   C115  A    
O33   Zn5   S    
N9    H1    S    
C103  C117  A    
N10   H4    S    
C43   C75   S    
C109  C133  A    
C1    O7    A    
C104  O64   S    
C121  C128  A    
C20   C54   A    
C95   C109  A    
C25   C41   A    
C21   C55   A    
C2    C59   S    
C123  C126  A    
C22   C56   A    
C100  N6    A    
C7    O11   A    
C101  N7    A    
C5    O9    A    
C6    C63   S    
C11   C49   A    
C66   C82   S    
C11   C27   A    
O6    Zn2   S    
C100  C114  A    
O16   Zn4   S    
C81   O37   A    
C92   C106  A    
C63   C71   T    
N17   H18   S    
C113  C137  A    
O32   Zn12  S    
C35   C45   A    
C39   C47   A    
C98   N6    A    
C83   O39   A    
N15   H14   S    
C111  C123  A    
C25   Cl17  S    
C109  C123  A    
C27   Cl19  S    
O19   Zn7   S    
C23   C55   A    
C24   C56   A    
O43   Zn11  S    
C104  N8    A    
C87   O43   A    
C22   N22   S    
C144  Cl16  S    
O5    Zn2   S    
C137  Cl9   S    
C15   N15   S    
O41   Zn9   S    
C19   C35   A    
C115  C139  A    
O46   Zn10  S    
C82   O34   A    
C90   O50   S    
O11   Zn3   S    
C67   C83   S    
C37   Cl29  S    
C91   C105  A    
C94   O54   S    
O31   Zn9   S    
C18   N18   S    
C129  C144  A    
C99   O59   S    
O29   Zn11  S    
C89   N1    A    
C97   O57   S    
O23   Zn5   S    
C20   N20   S    
O38   Zn6   S    
C95   N3    A    
C114  C126  A    
N13   H9    S    
C122  C127  A    
C44   C76   S    
C13   N13   S    
C59   C67   T    
O18   Zn6   S    
O8    Zn2   S    
C36   C46   A    
C34   C46   A    
C80   O30   A    
C37   C47   A    
O39   Zn5   S    
O1    Zn1   S    
C2    O2    A    
C112  C136  A    
O47   Zn9   S    
C94   N4    A    
C92   N2    A    
C9    C49   A    
C8    O12   A    
C134  C139  A    
C30   Cl22  S    
C142  Cl14  S    
C77   O25   A    
C49   N4    S    
C74   O18   A    
C33   Cl25  S    
O7    Zn2   S    
C35   Cl27  S    
C106  C122  A    
C134  Cl6   S    
O2    Zn1   S    
N16   H16   S    
O12   Zn3   S    
C143  Cl15  S    
C110  C134  A    
C28   Cl20  S    
O45   Zn11  S    
C91   N1    A    
C69   C85   S    
C26   C42   A    
C131  Cl3   S    
C132  C141  A    
O24   Zn8   S    
N14   H11   S    
C12   C50   A    
C15   C31   A    
C16   C32   A    
N22   H28   S    
C90   C108  A    
C14   N14   S    
C86   O42   A    
O35   Zn7   S    
C136  Cl8   S    
C94   C112  A    
C79   O31   A    
C80   O32   A    
O27   Zn11  S    
C91   O51   S    
C108  C132  A    
C41   C73   S    
N18   H20   S    
C3    O5    A    
C97   N5    A    
N20   H23   S    
C26   Cl18  S    
C45   C77   S    
C40   Cl32  S    
C24   N24   S    
C102  N8    A    
C119  C127  A    
C6    O14   A    
N19   H21   S    
C87   O47   A    
C32   Cl24  S    
C9    C25   A    
N11   H5    S    
C77   O27   A    
C12   C28   A    
C78   O28   A    
C13   C29   A    
C130  Cl2   S    
N24   H31   S    
O48   Zn12  S    
C93   N3    A    
C88   O46   A    
C110  C124  A    
C102  O62   S    
O4    Zn1   S    
C38   Cl30  S    
C9    N9    S    
C92   O52   S    
C103  N7    A    
C3    C60   S    
C7    O13   A    
N17   H17   S    
C29   C43   A    
C30   C44   A    
C17   C33   A    
C104  C118  A    
C95   O55   S    
C96   N4    A    
C42   C74   S    
C75   O23   A    
C68   C84   S    
C76   O24   A    
O40   Zn8   S    
C46   C78   S    
O30   Zn10  S    
C51   N2    S    
C96   C110  A    
O28   Zn12  S    
C141  Cl13  S    
C79   O29   A    
C117  C141  A    
N12   H7    S    
O20   Zn8   S    
C65   C81   S    
N23   H29   S    
C2    O6    A    
C89   C107  A    
C3    O3    A    
C133  Cl5   S    
C1    O1    A    
C117  C127  A    
C31   C43   A    
C93   C111  A    
C71   C87   S    
C17   N17   S    
C4    O4    A    
N9    H2    S    
C135  Cl7   S    
C84   O36   A    
N21   H26   S    
C107  C121  A    
C73   O17   A    
O21   Zn7   S    
C103  O63   S    
C102  C120  A    
N10   H3    S    
C82   O40   A    
C78   O26   A    
C16   C52   A    
C57   C65   T    
C99   C113  A    
C120  C128  A    
C54   N7    S    
C34   Cl26  S    
C85   O45   A    
O42   Zn10  S    
C111  C135  A    
C76   O22   A    
O3    Zn1   S    
C20   C36   A    
C21   C37   A    
C60   C68   T    
C133  C140  A    
O14   Zn4   S    
O9    Zn3   S    
C136  C137  A    
C16   N16   S    
C23   N23   S    
C135  C138  A    
C89   O49   S    
C52   N1    S    
C75   O21   A    
C47   C79   S    
C93   O53   S    
C98   O58   S    
N19   H22   S    
N11   H6    S    
C113  C125  A    
C129  Cl1   S    
C40   C48   A    
C58   C66   T    
C19   N19   S    
C6    O10   A    
C4    C57   S    
C84   O38   A    
C73   O19   A    
C74   O20   A    
C8    C61   S    
C10   C26   A    
C114  C138  A    
C116  C126  A    
C83   O35   A    
C118  C128  A    
C14   C30   A    
C132  Cl4   S    
C81   O33   A    
C72   C88   S    
C36   Cl28  S    
O17   Zn5   S    
C12   N12   S    
C139  Cl11  S    
C101  C119  A    
C5    O15   A    
N14   H12   S    
C105  C129  A    
N21   H25   S    
O25   Zn9   S    
C100  O60   S    
C11   N11   S    
N13   H10   S    
C39   Cl31  S    
C27   C41   A    
C98   C116  A    
C32   C44   A    
C105  C121  A    
C130  C143  A    
C18   C34   A    
C131  C142  A    
C31   Cl23  S    
O36   Zn8   S    
O34   Zn6   S    
N20   H24   S    
C10   N10   S    
C70   C86   S    
O15   Zn4   S    
C55   N6    S    
C61   C69   T    
O10   Zn3   S    
C38   C48   A    
C108  C122  A    
C118  C142  A    
O37   Zn7   S    
C115  C125  A    
C48   C80   S    
C107  C131  A    
N15   H13   S    
C90   N2    A    
C1    C58   S    
C19   C53   A    
C4    O8    A    
C23   C39   A    
C28   C42   A    
C24   C40   A    
C5    C62   S    
C138  Cl10  S    
N24   H32   S    
C85   O41   A    
C7    C64   S    
O26   Zn10  S    
N16   H15   S    
C18   C54   A    
C56   N5    S    
C86   O48   A    
C124  C125  A    
C116  C140  A    
C10   C50   A    
