data_mof_unit_14862.cif
_audit_creation_date              2013-03-05T15:58:34-0500
_audit_creation_method            fapswitch 2.2
_symmetry_space_group_name_H-M    P1
_symmetry_Int_Tables_number       1
_space_group_crystal_system       triclinic
_cell_length_a                    15.164252
_cell_length_b                    13.739951
_cell_length_c                    10.70944
_cell_angle_alpha                 88.750204
_cell_angle_beta                  89.052922
_cell_angle_gamma                 91.466514
_cell_volume                      2229.78943662

loop_
_atom_site_label
_atom_site_type_symbol
_atom_site_description
_atom_site_fract_x
_atom_site_fract_y
_atom_site_fract_z
_atom_type_partial_charge
O1    O     O_R   0.370260 0.582280 0.500030 -0.548029
O2    O     O_R   0.629740 0.417720 0.499970 -0.546414
O3    O     O_R   0.629740 0.582280 0.499970 -0.587314
O4    O     O_R   0.370260 0.417720 0.500030 -0.584481
C1    C     C_R   0.328721 0.498897 0.498964 0.914083
C2    C     C_R   0.671139 0.501088 0.499248 0.905870
O5    O     O_R   0.499980 0.582260 0.316850 -0.562113
O6    O     O_R   0.500020 0.417740 0.683150 -0.542103
O7    O     O_R   0.500020 0.582260 0.683150 -0.595230
O8    O     O_R   0.499980 0.417740 0.316850 -0.566214
C3    C     C_R   0.500145 0.501215 0.259489 0.919964
C4    C     C_R   0.501076 0.498959 0.740260 0.938921
Cu1   Cu    Cu3+1 0.500000 0.597420 0.500000 1.049182
Cu2   Cu    Cu3+1 0.500000 0.402580 0.500000 1.072749
C5    C     C_3   0.501180 0.594136 0.034329 -0.125898
C6    C     C_3   0.502004 0.407386 0.964919 -0.113442
C7    C     C_3   0.574279 0.548076 0.954112 -0.141025
C8    C     C_3   0.428915 0.453376 0.044569 -0.113096
C9    C     C_3   0.429875 0.543353 0.955540 -0.099604
C10   C     C_3   0.573321 0.458161 0.043512 -0.116100
C11   C     C_3   0.502763 0.497294 0.876110 -0.170593
C12   C     C_3   0.500220 0.503782 0.123196 -0.170477
C13   C     C_R   0.815994 0.564873 0.413442 -0.113249
C14   C     C_R   0.181741 0.431760 0.572126 -0.096811
C15   C     C_R   0.767972 0.503611 0.498816 -0.241816
C16   C     C_R   0.231814 0.496864 0.494585 -0.251775
C17   C     C_R   0.811926 0.444051 0.584333 0.305393
C18   C     C_R   0.188974 0.561289 0.413105 0.302697
C19   C     C_R   0.904586 0.451711 0.592519 -0.077044
C20   C     C_R   0.096040 0.554984 0.402946 -0.071791
C21   C     C_R   0.953363 0.504220 0.497610 0.018781
C22   C     C_R   0.046440 0.501753 0.495968 0.017658
C23   C     C_R   0.909188 0.558791 0.404527 -0.036931
C24   C     C_R   0.090043 0.443565 0.585409 -0.042600
C25   C     C_R   0.949668 0.408720 0.693753 -0.119086
C26   C     C_R   0.051758 0.598353 0.301351 -0.124845
C27   C     C_R   0.041491 0.400772 0.687516 0.258649
C28   C     C_R   0.959184 0.601930 0.303083 0.255862
C29   C     C_R   0.444579 0.789835 0.578790 0.117323
C30   C     C_R   0.557440 0.209883 0.424691 0.130301
C31   C     C_R   0.556352 0.796009 0.422377 0.080687
C32   C     C_R   0.444958 0.204081 0.579746 0.059575
N1    N     N_R   0.500000 0.743810 0.500000 -0.201261
N2    N     N_R   0.500000 0.256190 0.500000 -0.204398
C33   C     C_R   0.558607 0.899494 0.419951 -0.074707
C34   C     C_R   0.444632 0.100514 0.585755 -0.080438
C35   C     C_R   0.442693 0.892980 0.581766 -0.067947
C36   C     C_R   0.560655 0.106849 0.424073 -0.066375
C37   C     C_R   0.500850 0.948218 0.501479 0.090609
C38   C     C_R   0.501978 0.051695 0.503751 0.095506
C39   C     C_R   0.618600 0.955043 0.341634 -0.101242
C40   C     C_R   0.387841 0.044869 0.669131 -0.105488
C41   C     C_R   0.386359 0.941380 0.665644 -0.076553
C42   C     C_R   0.619936 0.058372 0.344518 -0.083061
H1    H     H_    0.402806 0.744822 0.640274 0.150159
H2    H     H_    0.600389 0.254551 0.365091 0.188853
H3    H     H_    0.599950 0.755771 0.363612 0.149260
H4    H     H_    0.401362 0.244530 0.637972 0.177867
C43   C     C_2   0.349390 0.589492 0.902706 0.853055
O9    O     O_2   0.330278 0.671902 0.931767 -0.542968
O10   O     O_R   0.296946 0.537805 0.819734 -0.716267
H5    H     H_    0.245417 0.576740 0.788910 0.340297
C44   C     C_2   0.651717 0.406963 0.094448 0.913980
O11   O     O_2   0.640362 0.332688 0.157748 -0.614529
O12   O     O_R   0.736932 0.443081 0.068529 -0.638815
H6    H     H_    0.783624 0.401962 0.108975 0.348608
C45   C     C_2   0.498481 0.699683 0.067838 0.948590
O13   O     O_2   0.546625 0.759317 0.012344 -0.529526
O14   O     O_R   0.438130 0.730019 0.157880 -0.645351
H7    H     H_    0.442198 0.802796 0.171333 0.359028
C46   C     C_2   0.506860 0.301387 0.934953 0.979397
O15   O     O_2   0.465819 0.241048 0.999891 -0.511886
O16   O     O_R   0.562643 0.271562 0.838887 -0.677024
H8    H     H_    0.561173 0.198294 0.829316 0.357283
C47   C     C_2   0.656309 0.600446 0.903816 1.030916
O17   O     O_2   0.707351 0.639056 0.975784 -0.467566
O18   O     O_R   0.674005 0.605275 0.775481 -0.740798
H9    H     H_    0.731386 0.641705 0.753743 0.350397
C48   C     C_2   0.345466 0.401809 0.090105 0.978711
O19   O     O_2   0.295835 0.365043 0.014647 -0.448755
O20   O     O_R   0.324625 0.396132 0.217565 -0.738547
H10   H     H_    0.266347 0.360472 0.235955 0.355639
C49   C     C_2   0.767527 0.636133 0.337172 0.955651
O21   O     O_2   0.781955 0.723155 0.350068 -0.549010
O22   O     O_R   0.704014 0.603558 0.253708 -0.747952
H11   H     H_    0.673269 0.658962 0.210219 0.360084
C50   C     C_2   0.222087 0.342922 0.622516 0.949725
O23   O     O_2   0.273883 0.347282 0.708592 -0.510588
O24   O     O_R   0.199891 0.254031 0.569081 -0.711905
H12   H     H_    0.234716 0.198399 0.603894 0.341072
N3    N     N_R   0.762545 0.372363 0.658330 0.126737
O25   O     O_R   0.776896 0.280232 0.644519 -0.277951
O26   O     O_R   0.703604 0.398811 0.739534 -0.309123
N4    N     N_R   0.239781 0.633713 0.342498 0.129301
O27   O     O_R   0.299447 0.607984 0.261927 -0.301953
O28   O     O_R   0.225992 0.725705 0.358574 -0.277037
C51   C     C_2   0.904284 0.387116 0.815431 0.998180
O29   O     O_2   0.865962 0.452009 0.868531 -0.506950
O30   O     O_R   0.905507 0.293544 0.869077 -0.644062
H13   H     H_    0.871972 0.288461 0.951742 0.349611
C52   C     C_2   0.099548 0.623726 0.182382 1.006907
O31   O     O_2   0.098756 0.706748 0.139036 -0.461415
O32   O     O_R   0.145360 0.551675 0.120272 -0.702025
H14   H     H_    0.175001 0.577108 0.040144 0.371594
N5    N     N_R   0.085965 0.362133 0.794248 0.130629
O33   O     O_R   0.124893 0.420865 0.870730 -0.281002
O34   O     O_R   0.083416 0.268928 0.818712 -0.253839
N6    N     N_R   0.916722 0.637073 0.192719 0.124892
O35   O     O_R   0.919445 0.729577 0.163775 -0.251360
O36   O     O_R   0.885976 0.575383 0.112965 -0.261470
C53   C     C_2   0.682884 0.906786 0.258887 0.923303
O37   O     O_2   0.656982 0.850539 0.179958 -0.545033
O38   O     O_R   0.772971 0.929215 0.268158 -0.672520
H15   H     H_    0.809968 0.894409 0.204226 0.399128
C54   C     C_2   0.329011 0.093061 0.760463 0.854191
O39   O     O_2   0.358555 0.156273 0.827559 -0.514865
O40   O     O_R   0.240077 0.064058 0.771946 -0.698557
H16   H     H_    0.207214 0.101622 0.837695 0.395217
C55   C     C_2   0.327292 0.883620 0.752924 0.923674
O41   O     O_2   0.335795 0.890659 0.865750 -0.494614
O42   O     O_R   0.261475 0.822333 0.705522 -0.715449
H17   H     H_    0.225062 0.787444 0.773827 0.368546
C56   C     C_2   0.683219 0.115533 0.262540 0.925423
O43   O     O_2   0.681581 0.106387 0.149256 -0.519012
O44   O     O_R   0.745247 0.178612 0.315547 -0.704608
H18   H     H_    0.784754 0.213245 0.250486 0.354169

loop_
_geom_bond_atom_site_label_1
_geom_bond_atom_site_label_2
_geom_bond_distance
_ccdc_geom_bond_type
C14   C50   1.475093 S    
C42   C56   1.487293 S    
C44   O12   1.393725 S    
C6    C11   1.542210 S    
C17   C19   1.410682 A    
C24   C27   1.416586 A    
C54   O40   1.399132 S    
O16   H8    1.013842 S    
C53   O37   1.220645 D    
C50   O23   1.222381 D    
O3    C2    1.294116 A    
C32   H4    1.074741 S    
C51   O29   1.222215 D    
C56   O43   1.223007 D    
C35   C37   1.416089 A    
O22   H11   1.011757 S    
C5    C9    1.544413 S    
N5    O34   1.301016 A    
C52   O31   1.222562 D    
C13   C49   1.479132 S    
O1    C1    1.293580 A    
Cu2   N2    2.011391 S    
C9    C11   1.540773 S    
C14   C16   1.406526 A    
C56   O44   1.398415 S    
C2    C15   1.467853 S    
C33   C39   1.423012 A    
C54   O39   1.220377 D    
C34   C40   1.426386 A    
C7    C10   1.546019 S    
N6    O35   1.301128 A    
C18   N4    1.436751 S    
C8    C9    1.544307 S    
C32   C34   1.422943 A    
O7    Cu1   1.967945 S    
C5    C12   1.547340 S    
C29   H1    1.079694 S    
C49   O21   1.221227 D    
C8    C48   1.503273 S    
C30   H2    1.075615 S    
O6    Cu2   1.976979 S    
C21   C23   1.421215 A    
C17   N3    1.437890 S    
C30   N2    1.357024 A    
O10   H5    1.013889 S    
O3    Cu1   1.983660 S    
C6    C10   1.543312 S    
C35   C41   1.417287 A    
C36   C38   1.416453 A    
C43   O9    1.221544 D    
C52   O32   1.397773 S    
Cu1   Cu2   2.677091 S    
C28   N6    1.435594 S    
C31   N1    1.361917 A    
O2    C2    1.291877 A    
C6    C46   1.501557 S    
C32   N2    1.363024 A    
C51   O30   1.397399 S    
O20   H10   1.013772 S    
C55   O42   1.398326 S    
C43   O10   1.395838 S    
C45   O13   1.221210 D    
C48   O19   1.221929 D    
O8    Cu2   1.967946 S    
N3    O25   1.301110 A    
C48   O20   1.396100 S    
C29   N1    1.358396 A    
C13   C23   1.419582 A    
O18   H9    1.013812 S    
C4    C11   1.455224 S    
C14   C24   1.409304 A    
C44   O11   1.219697 D    
C26   C52   1.485659 S    
C45   O14   1.396084 S    
C22   C24   1.417210 A    
C36   C42   1.416942 A    
C47   O17   1.221109 D    
C27   N5    1.435472 S    
N3    O26   1.300738 A    
O5    C3    1.283477 A    
C21   C22   1.412544 A    
C33   C37   1.416992 A    
O6    C4    1.284067 A    
C5    C45   1.502947 S    
N4    O27   1.300775 A    
C53   O38   1.398348 S    
N4    O28   1.301076 A    
C47   O18   1.395814 S    
O42   H17   1.013712 S    
C49   O22   1.396690 S    
C10   C12   1.541944 S    
O12   H6    1.013945 S    
C50   O24   1.395815 S    
O44   H18   1.013887 S    
O1    Cu1   1.973070 S    
Cu1   N1    2.011391 S    
C40   C41   1.422852 A    
C29   C35   1.419261 A    
O38   H15   1.013686 S    
C40   C54   1.490196 S    
C30   C36   1.417921 A    
C34   C38   1.416945 A    
C39   C53   1.485046 S    
C25   C27   1.400096 A    
C8    C12   1.541128 S    
O4    C1    1.294836 A    
C55   O41   1.222944 D    
C41   C55   1.486400 S    
C5    C7    1.547709 S    
C15   C17   1.402894 A    
N5    O33   1.300385 A    
C19   C25   1.417366 A    
C3    C12   1.459259 S    
C16   C18   1.407669 A    
C23   C28   1.424111 A    
O30   H13   1.013822 S    
C20   C26   1.416393 A    
C39   C42   1.420377 A    
C9    C43   1.502811 S    
C10   C44   1.501075 S    
C18   C20   1.415848 A    
C31   H3    1.076556 S    
C46   O15   1.221643 D    
C19   C21   1.420068 A    
O40   H16   1.013881 S    
C20   C22   1.417172 A    
C26   C28   1.405756 A    
N6    O36   1.299940 A    
C13   C15   1.409896 A    
O4    Cu2   1.983660 S    
O14   H7    1.013854 S    
O2    Cu2   1.973069 S    
O7    C4    1.286492 A    
C7    C11   1.541891 S    
O8    C3    1.289155 A    
C1    C16   1.470620 S    
O5    Cu1   1.976980 S    
C6    C8    1.543835 S    
C37   C38   1.422173 A    
C46   O16   1.396175 S    
O32   H14   1.013240 S    
C7    C47   1.506776 S    
C31   C33   1.421071 A    
O24   H12   1.008420 S    
C25   C51   1.484205 S    
