data_mof_unit_30218.cif
_audit_creation_date              2012-12-10T18:07:31-0500
_audit_creation_method            fapswitch 2.2
_symmetry_space_group_name_H-M    P1
_symmetry_Int_Tables_number       1
_space_group_crystal_system       triclinic
_cell_length_a                    11.519282
_cell_length_b                    12.705355
_cell_length_c                    13.170511
_cell_angle_alpha                 82.107618
_cell_angle_beta                  91.71242
_cell_angle_gamma                 102.257211
_cell_volume                      1865.80720209

loop_
_atom_site_label
_atom_site_type_symbol
_atom_type_description
_atom_site_fract_x
_atom_site_fract_y
_atom_site_fract_z
_atom_type_partial_charge
C1    C     C_R   0.475781 0.439278 0.690392 0.871066
C2    C     C_R   0.515515 0.598035 0.199414 -0.068900
C3    C     C_R   0.451739 0.294909 0.842996 0.164448
C4    C     C_R   0.501449 0.276793 0.940920 0.186066
C5    C     C_R   0.540641 0.365923 0.995737 0.103880
C6    C     C_R   0.499265 0.464231 0.964893 0.000900
C7    C     C_R   0.452818 0.481154 0.865797 -0.035406
C8    C     C_R   0.500859 0.545284 0.029117 0.074572
C9    C     C_R   0.474506 0.647890 0.990143 0.077382
C10   C     C_R   0.426528 0.661954 0.890834 0.151829
C11   C     C_R   0.409536 0.576213 0.833074 -0.169941
C12   C     C_R   0.717549 0.500880 0.500432 0.909883
C13   C     C_R   0.511896 0.520618 0.134236 -0.197638
C14   C     C_R   0.510156 0.704620 0.159297 -0.210626
C15   C     C_R   0.451365 0.402597 0.800156 -0.253792
C16   C     C_R   0.323382 0.087419 0.354092 -0.372277
C17   C     C_R   0.640078 0.798700 0.631088 0.331166
C18   C     C_R   0.657826 0.898540 0.668450 0.123093
C19   C     C_R   0.596541 0.975538 0.622776 -0.279298
C20   C     C_R   0.523938 0.958031 0.535622 0.007256
C21   C     C_R   0.501611 0.853199 0.506256 0.108906
C22   C     C_R   0.470660 0.039141 0.478711 -0.040208
C23   C     C_R   0.512891 0.560915 0.308976 0.855340
C24   C     C_R   0.380265 0.008309 0.405918 0.025346
C25   C     C_R   0.351155 0.900301 0.383378 0.190102
C26   C     C_R   0.418636 0.826848 0.429221 -0.215675
C27   C     C_R   0.506081 0.150971 0.488800 0.240194
C28   C     C_R   0.350704 0.193142 0.378063 0.324559
C29   C     C_R   0.282423 0.499031 0.499729 0.878595
C30   C     C_1   0.838668 0.502298 0.500880 -0.204516
C31   C     C_1   0.940776 0.500970 0.500729 -0.013794
C32   C     C_1   0.059083 0.498320 0.500214 -0.014016
C33   C     C_1   0.161243 0.497234 0.499825 -0.203812
C34   C     C_R   0.486066 0.728880 0.055413 -0.202121
H1    H     H_    0.471002 0.809191 0.028835 0.145338
H2    H     H_    0.362177 0.585011 0.761130 0.181967
N1    N     N_R   0.440320 0.222190 0.444690 -0.138547
N2    N     N_R   0.559060 0.776980 0.554780 -0.154355
O1    O     O_R   0.471500 0.366730 0.627160 -0.623715
O2    O     O_R   0.509620 0.544830 0.662520 -0.598963
O3    O     O_R   0.646490 0.410960 0.482310 -0.616814
O4    O     O_R   0.684610 0.589050 0.517670 -0.580554
O5    O     O_R   0.490380 0.455170 0.337480 -0.605069
O6    O     O_R   0.528500 0.633270 0.372840 -0.638788
O7    O     O_R   0.315390 0.410950 0.482330 -0.583777
O8    O     O_R   0.353510 0.589040 0.517690 -0.635660
Zn1   Zn    Zn3+2 0.474550 0.381080 0.476390 0.938817
Zn2   Zn    Zn3+2 0.525450 0.618920 0.523610 0.937342
H3    H     H_    0.514998 0.766595 0.209023 0.159304
N3    N     N_2   0.253963 0.867771 0.315536 -0.304341
H4    H     H_    0.177920 0.893630 0.330358 0.227514
C35   C     C_3   0.228631 0.759533 0.286055 -0.810685
H5    H     H_    0.154686 0.752433 0.229672 0.242205
H6    H     H_    0.201273 0.697973 0.353998 0.247370
H7    H     H_    0.307074 0.743903 0.248815 0.245077
H8    H     H_    0.258054 0.068895 0.294911 0.165840
N4    N     N_2   0.615339 0.191561 0.536159 -0.319459
H9    H     H_    0.614990 0.247050 0.585930 0.266513
C36   C     C_3   0.720453 0.204720 0.474144 -0.746447
H10   H     H_    0.800609 0.236123 0.518771 0.230402
H11   H     H_    0.716185 0.262527 0.403444 0.256502
H12   H     H_    0.728629 0.125330 0.452068 0.235220
N5    N     N_2   0.703236 0.718449 0.673753 -0.243457
H13   H     H_    0.690215 0.695913 0.751456 0.224098
C37   C     C_3   0.827632 0.741135 0.645844 -0.736617
H14   H     H_    0.864435 0.667546 0.669767 0.232528
H15   H     H_    0.879072 0.808407 0.684759 0.233662
H16   H     H_    0.838598 0.763154 0.561530 0.244118
H17   H     H_    0.606692 0.046952 0.659572 0.184590
N6    N     N_2   0.742730 0.924726 0.746759 -0.310723
H18   H     H_    0.792397 0.003024 0.732960 0.231827
C38   C     C_3   0.695897 0.899873 0.849794 -0.824600
H19   H     H_    0.769616 0.917378 0.905304 0.247089
H20   H     H_    0.653262 0.812576 0.866459 0.247550
H21   H     H_    0.630910 0.950870 0.860115 0.233392
H22   H     H_    0.403813 0.747967 0.406408 0.222534
N7    N     N_2   0.387264 0.758010 0.849237 -0.305802
H23   H     H_    0.440774 0.830148 0.863692 0.222181
C39   C     C_3   0.262441 0.753554 0.864245 -0.782513
H24   H     H_    0.242801 0.746661 0.947298 0.239944
H25   H     H_    0.207426 0.683142 0.831647 0.246785
H26   H     H_    0.238623 0.828990 0.824491 0.240657
H27   H     H_    0.506001 0.437428 0.167389 0.183990
N8    N     N_2   0.391371 0.206075 0.792932 -0.282886
H28   H     H_    0.329150 0.222715 0.738496 0.232055
C40   C     C_3   0.457463 0.127164 0.770801 -0.731675
H29   H     H_    0.433738 0.105234 0.693127 0.219701
H30   H     H_    0.432691 0.052158 0.826418 0.253122
H31   H     H_    0.554868 0.159503 0.774413 0.226325
N9    N     N_2   0.625072 0.358867 0.076594 -0.323726
H32   H     H_    0.619861 0.283635 0.119009 0.228896
C41   C     C_3   0.745204 0.414510 0.049236 -0.790374
H33   H     H_    0.803105 0.410536 0.117988 0.238671
H34   H     H_    0.748330 0.501445 0.020286 0.256566
H35   H     H_    0.779616 0.375269 0.989489 0.232521
N10   N     N_2   0.515433 0.170431 0.981389 -0.303237
H36   H     H_    0.599920 0.165491 0.006572 0.219149
C42   C     C_3   0.423123 0.110958 0.051996 -0.792808
H37   H     H_    0.437165 0.027134 0.074899 0.241277
H38   H     H_    0.334598 0.105578 0.014758 0.259744
H39   H     H_    0.424986 0.151452 0.121837 0.228252
N11   N     N_2   0.291231 0.272624 0.327588 -0.250135
H40   H     H_    0.307554 0.288010 0.249803 0.202959
C43   C     C_3   0.165743 0.253548 0.350399 -0.761443
H41   H     H_    0.116136 0.181882 0.316234 0.210822
H42   H     H_    0.130536 0.325830 0.317652 0.237090
H43   H     H_    0.151002 0.239937 0.434625 0.253103

loop_
_geom_bond_atom_site_label_1
_geom_bond_atom_site_label_2
_ccdc_geom_bond_type
C16   C28   A    
C21   C26   A    
N5    C37   S    
C18   N6    S    
C8    C13   A    
C19   C20   A    
C43   H42   S    
N9    H32   S    
N7    H23   S    
C7    C11   A    
C11   H2    S    
N8    C40   S    
C18   C19   A    
C30   C31   T    
C40   H30   S    
N4    C36   S    
C14   H3    S    
C29   C33   S    
C23   O5    A    
C34   H1    S    
C2    C13   A    
C25   N3    S    
C12   O4    A    
C1    O2    A    
C4    N10   S    
N9    C41   S    
C21   N2    A    
C8    C9    A    
C37   H15   S    
N10   C42   S    
N3    C35   S    
N6    H18   S    
C1    C15   S    
N1    Zn1   S    
C9    C10   A    
N2    Zn2   S    
C5    N9    S    
C35   H7    S    
O7    Zn1   S    
C36   H10   S    
C16   C24   A    
C38   H21   S    
C43   H41   S    
C10   N7    S    
C35   H6    S    
N3    H4    S    
N7    C39   S    
O8    Zn2   S    
C36   H11   S    
C24   C25   A    
C38   H20   S    
C27   N4    S    
C39   H25   S    
C40   H29   S    
C4    C5    A    
C6    C8    A    
C25   C26   A    
C41   H35   S    
C23   O6    A    
C39   H24   S    
C29   O7    A    
C16   H8    S    
C12   O3    A    
C26   H22   S    
C31   C32   S    
C37   H16   S    
N10   H36   S    
C41   H34   S    
C17   C18   A    
O3    Zn1   S    
O4    Zn2   S    
N8    H28   S    
N11   C43   S    
C20   C22   A    
C37   H14   S    
C42   H38   S    
C22   C27   A    
C9    C34   A    
C22   C24   A    
C19   H17   S    
C3    C4    A    
C2    C23   S    
C3    C15   A    
C35   H5    S    
O1    Zn1   S    
O2    Zn2   S    
C36   H12   S    
C12   C30   S    
C38   H19   S    
C40   H31   S    
C14   C34   A    
C39   H26   S    
C6    C7    A    
C42   H39   S    
C13   H27   S    
C29   O8    A    
C32   C33   T    
C17   N5    S    
N4    H9    S    
C5    C6    A    
C28   N1    A    
C27   N1    A    
C7    C15   A    
C41   H33   S    
C17   N2    A    
N11   H40   S    
C2    C14   A    
C10   C11   A    
C1    O1    A    
N5    H13   S    
C28   N11   S    
C20   C21   A    
C42   H37   S    
C3    N8    S    
N6    C38   S    
O5    Zn1   S    
C43   H43   S    
O6    Zn2   S    
