data_mof_unit_5556.cif
_audit_creation_date              2012-12-11T14:50:44-0500
_audit_creation_method            fapswitch 2.2
_symmetry_space_group_name_H-M    P1
_symmetry_Int_Tables_number       1
_space_group_crystal_system       triclinic
_cell_length_a                    20.719917
_cell_length_b                    7.074821
_cell_length_c                    20.374989
_cell_angle_alpha                 89.999691
_cell_angle_beta                  101.329233
_cell_angle_gamma                 89.998721
_cell_volume                      2928.5651913

loop_
_atom_site_label
_atom_site_type_symbol
_atom_type_description
_atom_site_fract_x
_atom_site_fract_y
_atom_site_fract_z
_atom_type_partial_charge
O1    O     O_R   0.423690 0.494470 0.435930 -0.537608
O2    O     O_R   0.576310 0.994470 0.564070 -0.537607
O3    O     O_R   0.556070 0.822310 0.435760 -0.536120
O4    O     O_R   0.443930 0.322310 0.564240 -0.536120
C1    C     C_R   0.576044 0.655478 0.421003 0.724176
C2    C     C_R   0.423955 0.155481 0.578996 0.724175
O5    O     O_R   0.422940 0.824080 0.428040 -0.542375
O6    O     O_R   0.577060 0.324080 0.571960 -0.542369
O7    O     O_R   0.442240 0.995960 0.556300 -0.533547
O8    O     O_R   0.557760 0.495960 0.443700 -0.533545
C3    C     C_R   0.398654 0.657097 0.410387 0.692535
C4    C     C_R   0.601346 0.157093 0.589612 0.692540
O9    O     O_3   0.506490 0.661310 0.542090 -0.371505
O10   O     O_3   0.493510 0.161310 0.457910 -0.371508
V1    V     V_3+5 0.498800 0.935560 0.492190 1.409589
V2    V     V_3+5 0.501200 0.435560 0.507810 1.409593
C5    C     C_R   0.839894 0.074331 0.854081 -0.148885
C6    C     C_R   0.160095 0.574321 0.145930 -0.148912
C7    C     C_R   0.661324 0.162645 0.643840 -0.059639
C8    C     C_R   0.338678 0.662664 0.356157 -0.059640
C9    C     C_R   0.749976 0.353920 0.708301 -0.195505
C10   C     C_R   0.250040 0.853968 0.291677 -0.195578
C11   C     C_R   0.697515 0.332514 0.654482 -0.165379
C12   C     C_R   0.302501 0.832562 0.345497 -0.165364
C13   C     C_R   0.679660 0.012677 0.688836 -0.217734
C14   C     C_R   0.320328 0.512673 0.311177 -0.217738
C15   C     C_R   0.732874 0.033746 0.743714 0.107343
C16   C     C_R   0.267112 0.533740 0.256300 0.107365
C17   C     C_R   0.769493 0.204567 0.753071 0.053884
C18   C     C_R   0.230505 0.704585 0.246928 0.053915
C19   C     C_R   0.824970 0.222166 0.806773 0.350378
C20   C     C_R   0.175024 0.722182 0.193227 0.350443
C21   C     C_R   0.801179 0.908592 0.844644 -0.216448
C22   C     C_R   0.198800 0.408559 0.155383 -0.216491
C23   C     C_R   0.749249 0.887632 0.790065 -0.200957
C24   C     C_R   0.250728 0.387603 0.209964 -0.200999
H1    H     H_    0.721500 0.756777 0.784438 0.137071
H2    H     H_    0.278471 0.256737 0.215600 0.137079
H3    H     H_    0.684747 0.452238 0.621327 0.132558
H4    H     H_    0.315279 0.952306 0.378638 0.132564
H5    H     H_    0.651477 0.882573 0.682453 0.118139
H6    H     H_    0.348502 0.382550 0.317571 0.118142
C25   C     C_3   0.226835 0.313431 0.780979 -0.355360
C26   C     C_3   0.773188 0.813417 0.219046 -0.355375
C27   C     C_3   0.271853 0.992186 0.819246 -0.382688
C28   C     C_3   0.728133 0.492248 0.180736 -0.382643
C29   C     C_3   0.323214 0.012047 0.772492 0.264408
C30   C     C_3   0.676776 0.512091 0.227496 0.264378
H7    H     H_    0.248505 0.378616 0.830085 0.154925
H8    H     H_    0.751528 0.878668 0.169948 0.154941
H9    H     H_    0.259407 0.840606 0.824604 0.166027
H10   H     H_    0.740561 0.340664 0.175352 0.166023
C31   C     C_1   0.377895 0.146852 0.624051 -0.193519
C32   C     C_1   0.622104 0.646844 0.375948 -0.193504
C33   C     C_3   0.207678 0.105035 0.791496 0.191896
C34   C     C_3   0.792321 0.605012 0.208503 0.191909
C35   C     C_3   0.277201 0.325801 0.733807 -0.429007
C36   C     C_3   0.722818 0.825790 0.266214 -0.429015
C37   C     C_3   0.292092 0.125975 0.708145 0.127445
C38   C     C_3   0.707907 0.625956 0.291854 0.127470
C39   C     C_3   0.226667 0.020953 0.675025 0.316704
C40   C     C_3   0.773322 0.520862 0.324965 0.316742
C41   C     C_3   0.175767 0.021380 0.722284 -0.402581
C42   C     C_3   0.824220 0.521254 0.277703 -0.402622
C43   C     C_1   0.339157 0.138472 0.661626 -0.008866
C44   C     C_1   0.660842 0.638457 0.338374 -0.008850
C45   C     C_1   0.160815 0.095019 0.838313 -0.050903
C46   C     C_1   0.839183 0.595002 0.161685 -0.051001
C47   C     C_1   0.122238 0.088011 0.876152 -0.188188
C48   C     C_1   0.877763 0.588007 0.123848 -0.188199
H11   H     H_    0.130448 0.100923 0.700502 0.157342
H12   H     H_    0.869555 0.600705 0.299495 0.157307
H13   H     H_    0.159464 0.873755 0.728878 0.126714
H14   H     H_    0.840495 0.373610 0.271089 0.126720
H15   H     H_    0.182332 0.397124 0.759357 0.147822
H16   H     H_    0.817700 0.897049 0.240680 0.147858
H17   H     H_    0.260265 0.427387 0.692786 0.161689
H18   H     H_    0.739761 0.927327 0.307249 0.161672
H19   H     H_    0.240715 0.869881 0.672035 0.139410
H20   H     H_    0.759260 0.369802 0.327949 0.139415
O11   O     O_R   0.942280 0.741210 0.056360 -0.540215
O12   O     O_R   0.057720 0.241210 0.943640 -0.540157
O13   O     O_R   0.077070 0.409690 0.071960 -0.544423
O14   O     O_R   0.922930 0.909690 0.928040 -0.544424
C49   C     C_R   0.101070 0.577309 0.090101 0.720548
C50   C     C_R   0.898928 0.077312 0.909901 0.720561
O15   O     O_R   0.943940 0.411580 0.064250 -0.537779
O16   O     O_R   0.056060 0.911580 0.935750 -0.537796
O17   O     O_R   0.923670 0.239840 0.935920 -0.512792
O18   O     O_R   0.076330 0.739840 0.064080 -0.512793
C51   C     C_R   0.923672 0.579869 0.078518 0.709884
C52   C     C_R   0.076333 0.079867 0.921487 0.709833
O19   O     O_3   0.993540 0.572620 0.957940 -0.372005
O20   O     O_3   0.006460 0.072620 0.042060 -0.372000
V3    V     V_3+5 0.001200 0.298330 0.007800 1.430206
V4    V     V_3+5 0.998800 0.798330 0.992200 1.430126
O21   O     O_3   0.863913 0.383406 0.814234 -0.568693
C53   C     C_3   0.900924 0.395324 0.762632 0.043656
H21   H     H_    0.896605 0.542374 0.743068 0.139949
H22   H     H_    0.883594 0.299941 0.719043 0.107453
C54   C     C_3   0.973361 0.353695 0.790689 -0.248469
H23   H     H_    0.991688 0.450465 0.833146 0.222076
H24   H     H_    0.978380 0.205598 0.809032 0.165204
C55   C     C_3   0.015023 0.380072 0.737357 -0.884010
H25   H     H_    0.999247 0.279831 0.695299 0.233709
H26   H     H_    0.067356 0.352514 0.759621 0.233738
H27   H     H_    0.010612 0.527183 0.717928 0.231643
O22   O     O_3   0.136114 0.883496 0.185725 -0.568710
C56   C     C_3   0.099093 0.895624 0.237313 0.043814
H28   H     H_    0.103238 0.042911 0.256658 0.140084
H29   H     H_    0.116557 0.800856 0.281046 0.107441
C57   C     C_3   0.026702 0.853122 0.209336 -0.248988
H30   H     H_    0.008260 0.949187 0.166699 0.222287
H31   H     H_    0.021840 0.704735 0.191271 0.164996
C58   C     C_3   0.985025 0.880006 0.262630 -0.883857
H32   H     H_    0.000963 0.780605 0.304914 0.233746
H33   H     H_    0.932731 0.851622 0.240446 0.233766
H34   H     H_    0.989223 0.027486 0.281715 0.231620
H35   H     H_    0.294227 0.044460 0.870144 0.117126
H36   H     H_    0.705763 0.544603 0.129847 0.117116
H37   H     H_    0.365676 0.097045 0.799739 0.057177
H38   H     H_    0.634316 0.597122 0.200261 0.057173
O23   O     O_3   0.343057 0.829741 0.754482 -0.580652
C59   C     C_3   0.405266 0.777340 0.792449 0.070801
H39   H     H_    0.407002 0.620692 0.794933 0.131987
H40   H     H_    0.413022 0.827863 0.845276 0.098713
C60   C     C_3   0.460529 0.845626 0.758002 -0.301743
H41   H     H_    0.451137 0.793937 0.705452 0.210637
H42   H     H_    0.461537 0.002566 0.757155 0.175971
C61   C     C_3   0.527616 0.773966 0.794079 -0.844668
H43   H     H_    0.538417 0.825596 0.846582 0.228550
H44   H     H_    0.566420 0.826918 0.768122 0.231464
H45   H     H_    0.528687 0.616979 0.793917 0.228995
O24   O     O_3   0.656929 0.329775 0.245491 -0.580657
C62   C     C_3   0.594723 0.277400 0.207513 0.070792
H46   H     H_    0.592989 0.120753 0.205016 0.131988
H47   H     H_    0.586972 0.327964 0.154690 0.098721
C63   C     C_3   0.539456 0.345660 0.241959 -0.301748
H48   H     H_    0.548842 0.293922 0.294504 0.210627
H49   H     H_    0.538451 0.502599 0.242824 0.175980
C64   C     C_3   0.472371 0.274040 0.205868 -0.844665
H50   H     H_    0.461577 0.325718 0.153370 0.228552
H51   H     H_    0.433563 0.326974 0.231825 0.231477
H52   H     H_    0.471296 0.117053 0.206013 0.228996
O25   O     O_3   0.199291 0.066136 0.607077 -0.574299
C65   C     C_3   0.179895 0.256636 0.595580 0.100170
H53   H     H_    0.222436 0.339489 0.585437 0.130724
H54   H     H_    0.161034 0.321184 0.637714 0.117835
C66   C     C_3   0.124887 0.266399 0.533552 -0.298018
H55   H     H_    0.142761 0.207016 0.489847 0.200367
H56   H     H_    0.082410 0.180151 0.542026 0.197973
C67   C     C_3   0.102030 0.469545 0.517965 -0.842410
H57   H     H_    0.082563 0.530387 0.560452 0.234190
H58   H     H_    0.062251 0.471675 0.472643 0.229890
H59   H     H_    0.143516 0.558017 0.508416 0.239901
O26   O     O_3   0.800701 0.566004 0.392915 -0.574304
C68   C     C_3   0.820148 0.756461 0.404420 0.100178
H60   H     H_    0.777640 0.839393 0.414601 0.130722
H61   H     H_    0.838991 0.821004 0.362273 0.117832
C69   C     C_3   0.875196 0.766081 0.466416 -0.298002
H62   H     H_    0.857341 0.706727 0.510136 0.200358
H63   H     H_    0.917636 0.679735 0.457901 0.197969
C70   C     C_3   0.898117 0.969168 0.482004 -0.842473
H64   H     H_    0.917565 0.029979 0.439500 0.234190
H65   H     H_    0.937925 0.971191 0.527301 0.229898
H66   H     H_    0.856669 0.057735 0.491597 0.239895
H67   H     H_    0.811623 0.791800 0.879498 0.167509
H68   H     H_    0.188352 0.291750 0.120539 0.167569
H69   H     H_    0.774724 0.489258 0.714718 0.141151
H70   H     H_    0.225301 0.989322 0.285248 0.141144
H71   H     H_    0.323524 0.388788 0.762102 0.157830
H72   H     H_    0.676501 0.888835 0.237924 0.157860

loop_
_geom_bond_atom_site_label_1
_geom_bond_atom_site_label_2
_ccdc_geom_bond_type
C62   C63   S    
O16   V4    S    
O4    V2    S    
C54   H23   S    
O15   C51   A    
C15   C17   A    
C7    C11   A    
C48   C51   S    
O1    C3    A    
C42   H12   S    
O2    C4    A    
C2    O7    A    
C55   H26   S    
O21   C53   S    
O23   C59   S    
O5    C3    A    
C68   H60   S    
C30   O24   S    
O26   C68   S    
C23   H1    S    
O14   C50   A    
C66   H56   S    
C30   H38   S    
C9    H69   S    
C29   H37   S    
C27   H9    S    
C36   C38   S    
C58   H32   S    
C28   H10   S    
O12   C52   A    
O22   C56   S    
C38   C40   S    
O14   V4    S    
C26   H16   S    
C39   O25   S    
C55   H25   S    
C40   C42   S    
C56   H29   S    
C21   C23   A    
C8    C12   A    
C26   C36   S    
C58   H33   S    
O15   V3    S    
C34   C42   S    
C47   C52   S    
C31   C43   T    
C27   H35   S    
O5    V1    S    
C38   C44   S    
O6    V2    S    
C21   H67   S    
C5    C21   A    
C22   H68   S    
C57   H31   S    
C57   H30   S    
C30   C38   S    
C65   H54   S    
C27   C29   S    
C25   H15   S    
C28   C30   S    
C3    C8    S    
C37   C39   S    
C6    C49   S    
C5    C50   S    
C69   C70   S    
C35   H17   S    
C1    C32   S    
C62   H46   S    
C70   H66   S    
O4    C2    A    
C56   H28   S    
C64   H52   S    
C13   H5    S    
O11   V4    S    
C36   H18   S    
C25   H7    S    
C41   H13   S    
C15   C23   A    
C34   C46   S    
C9    C17   A    
C63   C64   S    
C33   C41   S    
C45   C47   T    
C69   H63   S    
O17   V3    S    
C61   H44   S    
C60   H42   S    
C65   C66   S    
C26   C34   S    
C29   O23   S    
C67   H59   S    
O6    C4    A    
C58   H34   S    
O13   V3    S    
C39   C41   S    
C28   H36   S    
O1    V2    S    
O16   C52   A    
C55   H27   S    
O20   V4    S    
O2    V1    S    
C6    C22   A    
C27   C33   S    
C10   H70   S    
C63   H49   S    
C59   C60   S    
C66   C67   S    
C25   C33   S    
O13   C49   A    
C41   H11   S    
O19   V4    S    
C53   H22   S    
C9    C11   A    
C13   C15   A    
C5    C19   A    
C10   C12   A    
C56   C57   S    
C61   H45   S    
C6    C20   A    
C2    C31   S    
C60   H41   S    
O25   C65   S    
O3    V1    S    
C14   H6    S    
C59   H40   S    
C65   H53   S    
C54   H24   S    
C40   H20   S    
C62   H47   S    
O12   V3    S    
C10   C18   A    
C70   H65   S    
C67   H58   S    
O3    C1    A    
C50   O17   A    
C33   C45   S    
C49   O18   A    
O18   V4    S    
C36   H72   S    
C32   C44   T    
C68   C69   S    
C53   C54   S    
O24   C62   S    
C14   C16   A    
C69   H62   S    
C64   H51   S    
C61   H43   S    
O7    V1    S    
C60   C61   S    
C1    O8    A    
C17   C19   A    
O8    V2    S    
C64   H50   S    
C37   C43   S    
C24   H2    S    
C18   C20   A    
O19   V3    S    
C8    C14   A    
C39   H19   S    
C11   H3    S    
C4    C7    S    
C16   C18   A    
C12   H4    S    
C40   O26   S    
C22   C24   A    
C19   O21   S    
O20   V3    S    
C7    C13   A    
C70   H64   S    
C35   C37   S    
C63   H48   S    
C25   C35   S    
C29   C37   S    
O11   C51   A    
C67   H57   S    
C16   C24   A    
C26   H8    S    
C68   H61   S    
C53   H21   S    
C20   O22   S    
O9    V2    S    
C28   C34   S    
C46   C48   T    
C42   H14   S    
O10   V1    S    
C54   C55   S    
C66   H55   S    
C57   C58   S    
C59   H39   S    
C35   H71   S    
