data_mof_unit_45781.cif
_audit_creation_date              2013-03-05T16:19:39-0500
_audit_creation_method            fapswitch 2.2
_symmetry_space_group_name_H-M    P1
_symmetry_Int_Tables_number       1
_space_group_crystal_system       triclinic
_cell_length_a                    10.703397
_cell_length_b                    9.762476
_cell_length_c                    27.653517
_cell_angle_alpha                 90.165411
_cell_angle_beta                  89.402447
_cell_angle_gamma                 90.52155
_cell_volume                      2889.27367639

loop_
_atom_site_label
_atom_site_type_symbol
_atom_site_description
_atom_site_fract_x
_atom_site_fract_y
_atom_site_fract_z
_atom_type_partial_charge
O1    O     O_R   0.314910 0.616040 0.499990 -0.638370
O2    O     O_R   0.314910 0.383960 0.499990 -0.644485
C1    C     C_R   0.258208 0.499461 0.501763 0.819587
O3    O     O_R   0.500140 0.616020 0.428740 -0.652021
O4    O     O_R   0.500140 0.383980 0.428740 -0.624008
C2    C     C_R   0.498046 0.500273 0.405584 0.870536
Zn1   Zn    Zn3+2 0.500150 0.654960 0.499980 0.925173
Zn2   Zn    Zn3+2 0.500150 0.345040 0.499980 0.934089
O5    O     O_R   0.685320 0.616040 0.499970 -0.607429
O6    O     O_R   0.685320 0.383960 0.499970 -0.618386
O7    O     O_R   0.500090 0.616050 0.571230 -0.627762
O8    O     O_R   0.500090 0.383950 0.571230 -0.632036
C3    C     C_R   0.742642 0.500848 0.498973 0.822532
C4    C     C_R   0.501997 0.500389 0.593955 0.880681
C5    C     C_R   0.437922 0.585440 0.177257 0.520629
O9    O     O_2   0.330595 0.603402 0.202490 -0.508931
N1    N     N_R   0.545266 0.553986 0.200884 -0.358646
C6    C     C_R   0.656116 0.536957 0.176869 0.531518
C7    C     C_R   0.533942 0.652647 0.281527 -0.065557
C8    C     C_R   0.515424 0.637535 0.330837 -0.169333
C9    C     C_R   0.502351 0.389954 0.321098 -0.002467
C10   C     C_R   0.525142 0.406844 0.271593 -0.146558
C11   C     C_R   0.539970 0.537489 0.252004 0.305331
C12   C     C_R   0.550901 0.575825 0.101086 -0.047567
C13   C     C_R   0.438706 0.597464 0.126935 -0.038702
C14   C     C_R   0.329569 0.628109 0.102137 -0.094829
C15   C     C_R   0.661170 0.548047 0.126365 -0.084580
C16   C     C_R   0.502971 0.506647 0.351980 -0.049250
H1    H     H_    0.523527 0.319014 0.247495 0.136482
H2    H     H_    0.242128 0.644637 0.121281 0.212722
C17   C     C_R   0.512632 0.502955 0.646570 -0.029720
C18   C     C_R   0.442529 0.614314 0.973932 0.046719
C19   C     C_R   0.655722 0.521288 0.974071 0.034585
C20   C     C_R   0.547307 0.560726 0.948810 0.095505
C21   C     C_R   0.341202 0.664040 0.946947 -0.205949
C22   C     C_R   0.339576 0.652176 0.896945 -0.126487
C23   C     C_R   0.438437 0.589761 0.872272 -0.017765
C24   C     C_R   0.542508 0.543453 0.898079 -0.049177
C25   C     C_R   0.641142 0.478509 0.873201 -0.016519
C26   C     C_R   0.635693 0.465369 0.822846 0.562588
N2    N     N_R   0.535614 0.515405 0.798514 -0.339800
C27   C     C_R   0.436742 0.574163 0.822037 0.562160
C28   C     C_R   0.499820 0.389365 0.723907 -0.134278
C29   C     C_R   0.489109 0.384812 0.673886 -0.221677
C30   C     C_R   0.550140 0.624561 0.669609 -0.318192
C31   C     C_R   0.563433 0.629972 0.719675 0.036270
C32   C     C_R   0.535645 0.511152 0.746963 0.311997
O10   O     O_2   0.337960 0.618520 0.796676 -0.558990
C33   C     C_R   0.440956 0.611812 0.025048 0.040274
C34   C     C_R   0.552192 0.579553 0.050026 0.082190
C35   C     C_R   0.664085 0.548805 0.024357 -0.059612
C36   C     C_R   0.330557 0.635802 0.052100 -0.186388
H3    H     H_    0.460641 0.289849 0.656704 0.151568
H4    H     H_    0.262686 0.715202 0.963453 0.150342
O11   O     O_2   0.760524 0.509042 0.201811 -0.507241
C37   C     C_R   0.774266 0.536873 0.101048 -0.094775
H5    H     H_    0.509598 0.730041 0.352188 0.136149
H6    H     H_    0.860640 0.527942 0.120861 0.231122
C38   C     C_R   0.747660 0.445837 0.948857 -0.236325
C39   C     C_R   0.741639 0.426927 0.899125 -0.123310
O12   O     O_2   0.730101 0.405317 0.798255 -0.551978
C40   C     C_R   0.778294 0.544284 0.050495 -0.026298
H7    H     H_    0.823029 0.396076 0.967372 0.163884
H8    H     H_    0.815765 0.370928 0.881147 0.194564
C41   C     C_3   0.071816 0.637341 0.518909 -0.428892
C42   C     C_3   0.068200 0.385041 0.532571 -0.389943
H9    H     H_    0.098018 0.723617 0.494638 0.170594
H10   H     H_    0.110931 0.283161 0.526099 0.197541
C43   C     C_3   0.930026 0.629260 0.524882 -0.420528
C44   C     C_3   0.927108 0.374756 0.524998 -0.349243
H11   H     H_    0.905308 0.619782 0.563982 0.186082
H12   H     H_    0.880163 0.367580 0.561074 0.161311
H13   H     H_    0.888949 0.727139 0.512982 0.225882
H14   H     H_    0.904076 0.278741 0.505553 0.263286
C45   C     C_3   0.079757 0.472413 0.444499 -0.139016
C46   C     C_3   0.122323 0.498640 0.498772 0.017118
C47   C     C_3   0.879815 0.502024 0.496577 -0.004719
C48   C     C_3   0.932847 0.503223 0.441949 -0.152215
C49   C     C_3   0.372564 0.080077 0.508475 -0.276415
C50   C     C_3   0.372208 0.917701 0.507715 -0.269854
H15   H     H_    0.336700 0.117153 0.544046 0.155089
H16   H     H_    0.333792 0.878149 0.542573 0.160654
H17   H     H_    0.469196 0.108610 0.424569 0.126882
H18   H     H_    0.473794 0.883759 0.423765 0.069115
C51   C     C_3   0.540752 0.080368 0.451268 -0.094898
C52   C     C_3   0.542337 0.917970 0.451472 -0.091124
C53   C     C_3   0.580290 0.081728 0.537552 -0.201873
C54   C     C_3   0.578422 0.920473 0.538142 -0.207042
N3    N     N_3   0.499750 0.138610 0.498940 -0.067325
N4    N     N_3   0.499750 0.861390 0.498940 -0.063092
H19   H     H_    0.677497 0.120353 0.534062 0.202226
H20   H     H_    0.674688 0.880205 0.536417 0.196613
C55   C     C_2   0.465625 0.251537 0.336765 0.383540
H21   H     H_    0.518093 0.163474 0.324195 0.045345
O13   O     O_2   0.369786 0.233527 0.360078 -0.574286
H22   H     H_    0.541481 0.754205 0.266038 0.138741
H23   H     H_    0.571047 0.715387 0.648447 0.142014
C56   C     C_2   0.606478 0.761106 0.741569 0.427546
H24   H     H_    0.614479 0.852153 0.719252 0.050338
O14   O     O_2   0.635813 0.769514 0.784009 -0.558743
C57   C     C_2   0.902238 0.567382 0.026942 0.368380
H25   H     H_    0.908536 0.614564 0.991516 0.084502
O15   O     O_2   0.998831 0.536122 0.047115 -0.578657
H26   H     H_    0.113424 0.661025 0.554776 0.189204
H27   H     H_    0.087518 0.411320 0.571021 0.173546
C58   C     C_2   0.153318 0.564163 0.409047 0.303764
H28   H     H_    0.200679 0.656186 0.421429 0.083159
O16   O     O_2   0.153824 0.539759 0.365663 -0.459582
C59   C     C_2   0.116403 0.325011 0.430801 0.552912
H29   H     H_    0.208929 0.306410 0.416356 0.140697
O17   O     O_2   0.048650 0.225930 0.438509 -0.555813
C60   C     C_2   0.910923 0.644850 0.419292 0.437230
H30   H     H_    0.954282 0.735404 0.434556 0.119889
O18   O     O_2   0.852177 0.659084 0.381952 -0.545754
C61   C     C_2   0.862645 0.403183 0.409114 0.656184
H31   H     H_    0.764473 0.384848 0.415079 0.010452
O19   O     O_2   0.908888 0.361215 0.371350 -0.470992
H32   H     H_    0.305981 0.118046 0.481072 0.179994
H33   H     H_    0.307277 0.880451 0.479296 0.163042
H34   H     H_    0.547708 0.119871 0.573424 0.132424
H35   H     H_    0.541757 0.885437 0.573855 0.127607
C62   C     C_2   0.659356 0.144935 0.431490 0.502364
H36   H     H_    0.660104 0.186681 0.395264 0.015732
O20   O     O_2   0.756943 0.142738 0.453759 -0.542473
C63   C     C_2   0.664086 0.856906 0.434340 0.501870
H37   H     H_    0.667878 0.804306 0.399961 0.087496
O21   O     O_2   0.760037 0.871831 0.457118 -0.575343
H38   H     H_    0.478362 0.298724 0.745013 0.147473
H39   H     H_    0.259795 0.691317 0.877738 0.193573
H40   H     H_    0.241763 0.654856 0.035518 0.182612

loop_
_geom_bond_atom_site_label_1
_geom_bond_atom_site_label_2
_geom_bond_distance
_ccdc_geom_bond_type
C42   H10   1.111747 S    
C53   C54   1.574326 S    
C55   H21   1.085501 S    
C10   H1    1.084545 S    
C53   H19   1.106798 S    
N2    C27   1.366258 A    
C43   C47   1.560580 S    
C21   C22   1.387517 A    
C12   C15   1.406888 A    
C4    C17   1.460727 S    
C28   C29   1.389741 A    
C60   O18   1.223450 D    
C42   C44   1.529127 S    
C30   C31   1.394082 A    
Zn1   O7    2.007667 S    
C57   H25   1.084932 S    
C41   C46   1.561584 S    
C58   O16   1.222429 D    
C44   C47   1.563016 S    
C22   C23   1.396711 A    
H18   C52   1.114726 S    
C59   O17   1.221537 D    
O4    C2    1.305542 A    
O7    C4    1.294250 A    
C5    C13   1.396789 A    
C41   H9    1.110672 S    
C58   H28   1.083901 S    
C61   H31   1.075403 S    
C56   H24   1.085786 S    
C49   H32   1.112306 S    
Zn1   O5    2.021430 S    
C23   C27   1.397323 A    
C43   H11   1.114370 S    
O5    C3    1.286024 A    
C29   H3    1.083242 S    
C2    C16   1.484186 S    
C54   H20   1.106667 S    
C61   O19   1.222232 D    
C44   H14   1.106441 S    
C43   H13   1.107759 S    
C47   C48   1.608246 S    
C40   C57   1.487406 S    
C31   C56   1.486036 S    
C50   H33   1.112661 S    
C38   C39   1.389171 A    
C55   O13   1.217533 D    
C20   C24   1.413932 A    
C9    C10   1.397998 A    
C52   C63   1.509173 S    
C35   C40   1.427705 A    
O3    Zn1   2.005303 S    
C60   H30   1.081445 S    
C19   C20   1.417518 A    
C12   C34   1.412488 A    
C3    C47   1.468965 S    
C45   C59   1.540166 S    
C17   C29   1.400019 A    
C18   C21   1.413262 A    
C12   C13   1.408372 A    
C48   C61   1.529282 S    
C50   H16   1.112805 S    
C52   N4    1.490991 S    
C25   C26   1.399795 A    
C49   H15   1.112889 S    
C51   N3    1.497324 S    
C15   C37   1.397022 A    
C27   O10   1.350121 S    
C8    C16   1.411369 A    
C34   C35   1.419816 A    
C13   C14   1.395905 A    
C51   C52   1.585674 S    
Zn1   N4    2.015601 S    
C26   O12   1.349578 S    
O1    C1    1.285740 A    
C18   C20   1.416467 A    
C7    C11   1.389054 A    
C45   C46   1.592332 S    
C23   C24   1.407866 A    
C14   C36   1.385880 A    
Zn2   O8    2.005516 S    
C33   C36   1.412921 A    
C42   C46   1.556308 S    
N1    C6    1.364870 A    
N2    C32   1.426042 S    
C51   C62   1.510273 S    
N1    C11   1.423748 S    
C1    C46   1.457592 S    
C6    O11   1.349647 S    
O3    C2    1.297328 A    
C26   N2    1.365750 A    
H17   C51   1.106589 S    
C9    C16   1.421806 A    
C54   N4    1.491153 S    
C14   H2    1.083594 S    
C56   O14   1.220408 D    
C53   N3    1.490958 S    
C63   H37   1.079778 S    
C37   C40   1.400240 A    
C42   H27   1.114073 S    
C62   O20   1.218440 D    
C57   O15   1.221472 D    
C5    N1    1.365461 A    
C31   C32   1.413338 A    
O1    Zn1   2.015373 S    
Zn2   O6    2.014637 S    
O2    Zn2   2.022166 S    
C6    C15   1.401561 A    
O8    C4    1.297395 A    
C54   H35   1.112553 S    
O6    C3    1.290898 A    
C28   H38   1.083005 S    
O4    Zn2   2.007458 S    
C48   C60   1.540549 S    
C19   C35   1.419121 A    
C38   H7    1.079859 S    
C39   H8    1.083333 S    
C36   H40   1.077469 S    
C7    C8    1.383994 A    
O2    C1    1.285955 A    
C62   H36   1.082525 S    
C53   H34   1.112340 S    
C30   H23   1.084159 S    
C59   H29   1.080700 S    
C24   C25   1.408659 A    
C9    C55   1.469143 S    
C41   C43   1.526224 S    
C25   C39   1.397343 A    
C37   H6    1.083877 S    
C50   N4    1.493545 S    
C45   C48   1.605943 S    
C18   C33   1.413735 A    
C49   N3    1.492811 S    
C49   C50   1.585238 S    
C45   C58   1.536071 S    
C19   C38   1.411733 A    
C33   C34   1.420933 A    
C17   C30   1.403122 A    
C63   O21   1.217768 D    
C10   C11   1.394223 A    
C44   H12   1.114430 S    
Zn2   N3    2.015357 S    
C41   H26   1.114263 S    
C8    H5    1.079468 S    
C22   H39   1.083465 S    
C28   C32   1.399831 A    
C7    H22   1.083161 S    
C5    O9    1.350390 S    
C21   H4    1.078146 S    
