data_mof_unit_63552.cif
_audit_creation_date              2012-12-10T19:45:07-0500
_audit_creation_method            fapswitch 2.2
_symmetry_space_group_name_H-M    P1
_symmetry_Int_Tables_number       1
_space_group_crystal_system       triclinic
_cell_length_a                    18.740243
_cell_length_b                    18.745397
_cell_length_c                    18.826054
_cell_angle_alpha                 109.745675
_cell_angle_beta                  109.633749
_cell_angle_gamma                 109.417923
_cell_volume                      5066.76641843

loop_
_atom_site_label
_atom_site_type_symbol
_atom_type_description
_atom_site_fract_x
_atom_site_fract_y
_atom_site_fract_z
_atom_type_partial_charge
C1    C     C_R   0.119559 0.999835 0.619964 0.942593
C2    C     C_R   0.938302 0.982054 0.170979 0.264058
C3    C     C_R   0.238778 0.246404 0.420956 0.645840
C4    C     C_R   0.312891 0.315458 0.501249 -0.298332
C5    C     C_R   0.322310 0.321316 0.580800 0.022028
C6    C     C_R   0.257618 0.255949 0.578638 0.693132
C7    C     C_R   0.184072 0.186613 0.498380 -0.338234
C8    C     C_R   0.173402 0.181793 0.418912 -0.179353
C9    C     C_R   0.469790 0.390553 0.711873 0.278098
C10   C     C_R   0.541819 0.464429 0.793343 0.167369
C11   C     C_R   0.536023 0.539185 0.831133 0.659067
C12   C     C_R   0.118929 0.120225 0.498987 0.958216
C13   C     C_R   0.462155 0.543905 0.788265 0.198540
C14   C     C_R   0.393296 0.472992 0.704841 0.373422
C15   C     C_R   0.397113 0.396737 0.666930 -0.063188
C16   C     C_R   0.269894 0.047140 0.712035 -0.089719
C17   C     C_R   0.182583 0.998895 0.686822 -0.258237
C18   C     C_R   0.160289 0.964400 0.737483 0.354871
C19   C     C_R   0.226271 0.968499 0.804382 0.726324
C20   C     C_R   0.312709 0.005729 0.819909 -0.309128
C21   C     C_R   0.334219 0.050347 0.777565 -0.160889
C22   C     C_3   0.386109 0.047624 0.732214 1.058434
C23   C     C_R   0.882740 0.002767 0.380152 0.872129
C24   C     C_3   0.314512 0.043899 0.659466 0.815519
C25   C     C_R   0.774337 0.726090 0.441317 -0.165448
C26   C     C_R   0.815363 0.814306 0.502092 -0.142389
C27   C     C_R   0.790761 0.838211 0.565839 -0.204282
C28   C     C_R   0.726008 0.773642 0.565809 0.636222
C29   C     C_R   0.685524 0.685401 0.501676 -0.154374
C30   C     C_R   0.711507 0.664239 0.440908 -0.151120
C31   C     C_3   0.695723 0.589926 0.363496 0.794733
C32   C     C_3   0.768037 0.660482 0.363443 0.932570
C33   C     C_R   0.755687 0.932588 0.237485 -0.225951
C34   C     C_R   0.880147 0.879695 0.500302 0.911861
C35   C     C_R   0.822043 0.008382 0.315227 -0.266043
C36   C     C_R   0.823354 0.088690 0.329912 0.472617
C37   C     C_R   0.754387 0.087593 0.268114 0.448466
C38   C     C_R   0.686766 0.006719 0.190237 -0.200956
C39   C     C_R   0.690448 0.931661 0.178342 -0.199624
C40   C     C_3   0.643974 0.835209 0.118104 1.090135
C41   C     C_3   0.717820 0.835858 0.186937 1.093271
C42   C     C_R   0.500782 0.620899 0.620363 0.944845
C43   C     C_R   0.379632 0.380694 0.500708 0.969060
C44   C     C_R   0.498580 0.378262 0.379940 0.994278
C45   C     C_R   0.006565 0.965995 0.205433 0.502098
C46   C     C_R   0.619867 0.619082 0.499677 0.972523
C47   C     C_R   0.501069 0.120308 0.120662 0.908363
C48   C     C_R   0.379407 0.000888 0.880796 0.999487
C49   C     C_R   0.499732 0.879717 0.880131 0.972660
C50   C     C_R   0.620073 0.001771 0.121278 0.889228
C51   C     C_R   0.422076 0.680985 0.677939 0.041127
C52   C     C_R   0.500733 0.685558 0.687657 -0.227882
C53   C     C_R   0.578984 0.748102 0.767661 -0.190445
C54   C     C_R   0.579358 0.812709 0.832158 0.744155
C55   C     C_R   0.500790 0.812535 0.817063 -0.227020
C56   C     C_R   0.083619 0.030556 0.284969 0.373937
C57   C     C_R   0.421978 0.742999 0.743055 -0.190818
C58   C     C_3   0.348382 0.744038 0.679711 0.144514
C59   C     C_3   0.349171 0.675760 0.607037 0.759693
C60   C     C_R   0.491634 0.314475 0.239785 -0.228577
C61   C     C_R   0.500495 0.312511 0.315349 -0.264748
C62   C     C_R   0.522429 0.253131 0.333137 0.681356
C63   C     C_R   0.526077 0.190142 0.271100 0.361231
C64   C     C_R   0.507027 0.187476 0.190551 -0.202490
C65   C     C_R   0.496157 0.253188 0.178577 -0.260150
C66   C     C_3   0.425380 0.245626 0.103663 0.864894
C67   C     C_R   0.092237 0.112802 0.333395 -0.182551
C68   C     C_3   0.419703 0.312662 0.171527 1.121553
C69   C     C_R   0.023556 0.129653 0.298438 0.227334
C70   C     C_R   0.947181 0.063806 0.216486 0.375016
H1    H     H_    0.821128 0.906121 0.615320 0.211733
H2    H     H_    0.640105 0.749536 0.778397 0.220812
H3    H     H_    0.367862 0.808369 0.682837 0.186348
O1    O     O_R   0.091630 0.948280 0.539910 -0.555946
O2    O     O_R   0.551690 0.591610 0.643360 -0.651325
O3    O     O_R   0.356650 0.408410 0.448330 -0.550050
O4    O     O_R   0.460080 0.408380 0.551740 -0.630748
O5    O     O_R   0.448280 0.408420 0.356720 -0.558019
O6    O     O_R   0.551710 0.408390 0.460130 -0.574286
O7    O     O_R   0.539890 0.591650 0.448340 -0.590743
O8    O     O_R   0.643320 0.591620 0.551750 -0.599808
O9    O     O_R   0.551740 0.143400 0.091610 -0.616440
O10   O     O_R   0.448290 0.040010 0.091660 -0.588741
O11   O     O_R   0.460120 0.051750 0.908410 -0.578071
O12   O     O_R   0.091590 0.051710 0.643320 -0.599122
O13   O     O_R   0.356670 0.948360 0.908460 -0.557870
O14   O     O_R   0.551710 0.960090 0.908440 -0.581533
O15   O     O_R   0.448260 0.856700 0.908490 -0.584837
O16   O     O_R   0.643330 0.051740 0.091640 -0.593891
O17   O     O_R   0.539880 0.948350 0.091690 -0.588772
O18   O     O_R   0.091640 0.039900 0.448300 -0.613679
O19   O     O_R   0.091600 0.143340 0.551710 -0.576107
O20   O     O_R   0.908410 0.948290 0.356680 -0.586015
O21   O     O_R   0.908370 0.051720 0.460090 -0.611622
O22   O     O_R   0.908400 0.856660 0.448290 -0.555040
O23   O     O_R   0.908360 0.960100 0.551700 -0.638432
O24   O     O_R   0.448260 0.591640 0.539950 -0.568580
Zn1   Zn    Zn3+2 0.000030 0.930940 0.430950 1.213125
Zn2   Zn    Zn3+2 0.999970 0.069060 0.569050 1.120229
Zn3   Zn    Zn3+2 0.430920 0.500040 0.430990 1.226532
Zn4   Zn    Zn3+2 0.569050 0.499990 0.569090 1.113065
Zn5   Zn    Zn3+2 0.569070 0.069080 0.000020 1.166859
Zn6   Zn    Zn3+2 0.430930 0.931020 0.000080 1.193228
O25   O     O_3   0.861878 0.919453 0.092086 -0.559538
H4    H     H_    0.864094 0.864958 0.067548 0.421596
F1    F     F_    0.603745 0.608764 0.910113 -0.479341
O26   O     O_3   0.459759 0.618717 0.829778 -0.627556
H5    H     H_    0.401976 0.610745 0.794231 0.393381
F2    F     F_    0.322006 0.477256 0.660981 -0.615745
O27   O     O_3   0.075774 0.922961 0.721895 -0.649944
H6    H     H_    0.033979 0.917227 0.668503 0.322706
F3    F     F_    0.204518 0.932559 0.850969 -0.542086
F4    F     F_    0.466416 0.123943 0.778159 -0.603138
F5    F     F_    0.391947 0.972256 0.706854 -0.653972
O28   O     O_3   0.341674 0.118841 0.651848 -0.695786
H7    H     H_    0.373606 0.112503 0.619597 0.377981
F6    F     F_    0.267297 0.966111 0.580058 -0.599208
F7    F     F_    0.998974 0.887224 0.161069 -0.543253
F8    F     F_    0.702568 0.797029 0.627114 -0.642961
O29   O     O_3   0.719068 0.533243 0.384832 -0.714566
H8    H     H_    0.710068 0.488934 0.330409 0.371647
F9    F     F_    0.612137 0.547326 0.292371 -0.605946
F10   F     F_    0.843809 0.655595 0.383428 -0.572872
O30   O     O_3   0.738999 0.669870 0.289606 -0.632022
H9    H     H_    0.689019 0.680045 0.283098 0.376956
O31   O     O_3   0.890064 0.168992 0.402563 -0.638120
H10   H     H_    0.944147 0.165880 0.425356 0.339906
O32   O     O_3   0.756377 0.166399 0.286526 -0.656479
H11   H     H_    0.698535 0.155478 0.247092 0.315812
F11   F     F_    0.562431 0.791594 0.108299 -0.585657
F12   F     F_    0.643126 0.813585 0.039754 -0.544211
F13   F     F_    0.690850 0.794207 0.228938 -0.621709
O33   O     O_3   0.148128 0.009678 0.312590 -0.610924
H12   H     H_    0.200828 0.060594 0.367557 0.364702
F14   F     F_    0.770388 0.812857 0.158828 -0.566061
F15   F     F_    0.655923 0.876107 0.907563 -0.560438
O34   O     O_3   0.271526 0.712235 0.684347 -0.662889
H13   H     H_    0.264550 0.662425 0.694763 0.395619
O35   O     O_3   0.273835 0.592460 0.557144 -0.653956
H14   H     H_    0.227145 0.597495 0.518103 0.389040
O36   O     O_3   0.373599 0.704898 0.554533 -0.707030
H15   H     H_    0.428636 0.762655 0.593561 0.327416
F16   F     F_    0.536052 0.253222 0.408795 -0.571708
O37   O     O_3   0.545995 0.132239 0.291145 -0.651883
H16   H     H_    0.558234 0.099150 0.247986 0.317404
O38   O     O_3   0.454216 0.274499 0.053257 -0.674493
H17   H     H_    0.513033 0.328161 0.093241 0.356660
O39   O     O_3   0.028603 0.209070 0.341197 -0.696477
H18   H     H_    0.080774 0.247027 0.400476 0.373532
F17   F     F_    0.350652 0.163398 0.052422 -0.578524
F18   F     F_    0.444711 0.392096 0.173905 -0.570489
F19   F     F_    0.341124 0.279103 0.170419 -0.571862
O40   O     O_3   0.878944 0.076589 0.178227 -0.638435
H19   H     H_    0.893108 0.136905 0.215269 0.398904
F20   F     F_    0.230469 0.241372 0.344519 -0.585157
F21   F     F_    0.266593 0.259526 0.654768 -0.588939
O41   O     O_3   0.467801 0.312011 0.674831 -0.674589
H20   H     H_    0.504213 0.305970 0.722030 0.385006
O42   O     O_3   0.618923 0.466802 0.837303 -0.619503
H21   H     H_    0.626229 0.426001 0.794527 0.362026

loop_
_geom_bond_atom_site_label_1
_geom_bond_atom_site_label_2
_ccdc_geom_bond_type
C45   F7    S    
C14   F2    S    
C66   C68   S    
C16   C21   A    
O16   Zn5   S    
C70   O40   S    
O11   Zn5   S    
C32   O30   S    
C12   O18   A    
O4    Zn4   S    
C35   C36   A    
C32   F10   S    
C62   F16   S    
C13   O26   S    
O32   H11   S    
O15   Zn6   S    
C56   O33   S    
O22   Zn1   S    
C7    C8    A    
O1    Zn1   S    
O8    Zn4   S    
C19   F3    S    
C52   C53   A    
C42   O2    A    
O41   H20   S    
O10   Zn6   S    
C68   F19   S    
C1    O1    A    
C36   C37   A    
C34   O23   A    
C66   F17   S    
C24   F6    S    
C5    C6    A    
O28   H7    S    
C46   O8    A    
O23   Zn2   S    
C25   C30   A    
C18   C19   A    
C47   O9    A    
C49   O14   A    
O27   H6    S    
C26   C34   S    
C22   F4    S    
O42   H21   S    
C45   C56   A    
C16   C17   A    
C63   O37   S    
C51   C57   A    
C47   O10   A    
C29   C30   A    
C9    C10   A    
C37   O32   S    
C25   C32   S    
C16   C24   S    
C21   C22   S    
O7    Zn3   S    
C49   O15   A    
C61   C62   A    
C11   F1    S    
O13   Zn6   S    
O25   H4    S    
C50   O17   A    
C17   C18   A    
C2    C45   A    
C1    O12   A    
C7    C12   S    
O17   Zn6   S    
C66   O38   S    
C51   C52   A    
O3    Zn3   S    
C38   C39   A    
O39   H18   S    
C3    C8    A    
C42   O24   A    
C47   C64   S    
O37   H16   S    
C58   C59   S    
C49   C55   S    
C23   O20   A    
C60   C61   A    
C67   C69   A    
C37   C38   A    
O12   Zn2   S    
O14   Zn5   S    
C58   H3    S    
C50   O16   A    
C31   C32   S    
C59   O35   S    
O26   H5    S    
C54   F15   S    
C62   C63   A    
C3    F20   S    
C9    O41   S    
O9    Zn5   S    
C33   C39   A    
C34   O22   A    
C59   O36   S    
C20   C48   S    
C8    C67   S    
C58   O34   S    
C40   C41   S    
C40   F12   S    
C2    O25   S    
C23   C35   S    
C55   C57   A    
C26   C27   A    
O33   H12   S    
C48   O13   A    
C51   C59   S    
C3    C4    A    
C41   F14   S    
O24   Zn3   S    
C27   H1    S    
O29   H8    S    
O38   H17   S    
C43   O3    A    
C40   F11   S    
C54   C55   A    
C28   C29   A    
C12   O19   A    
C44   O6    A    
C36   O31   S    
C18   O27   S    
C31   F9    S    
C4    C5    A    
C28   F8    S    
C60   C65   A    
C41   F13   S    
O35   H14   S    
C53   C54   A    
C6    C7    A    
C38   C50   S    
C4    C43   S    
C44   C61   S    
C43   O4    A    
C56   C67   A    
O34   H13   S    
C1    C17   S    
C23   O21   A    
C29   C46   S    
C33   C41   S    
C64   C65   A    
C19   C20   A    
C44   O5    A    
C25   C26   A    
C68   F18   S    
C2    C70   A    
O36   H15   S    
O5    Zn3   S    
C11   C13   A    
C57   C58   S    
C30   C31   S    
O21   Zn2   S    
O31   H10   S    
O20   Zn1   S    
C33   C35   A    
C22   C24   S    
O18   Zn1   S    
C9    C15   A    
C69   C70   A    
C31   O29   S    
C5    C15   S    
C10   C11   A    
C63   C64   A    
C39   C40   S    
C48   O11   A    
C22   F5    S    
C20   C21   A    
C60   C68   S    
C24   O28   S    
C65   C66   S    
C27   C28   A    
O2    Zn4   S    
C69   O39   S    
C14   C15   A    
O6    Zn4   S    
C46   O7    A    
O40   H19   S    
C13   C14   A    
C53   H2    S    
C10   O42   S    
C6    F21   S    
O19   Zn2   S    
C42   C52   S    
O30   H9    S    
