data_mof_unit_62712.cif
_audit_creation_date              2012-10-26T19:44:44-0400
_audit_creation_method            fapswitch 2.2
_symmetry_space_group_name_H-M    P1
_symmetry_Int_Tables_number       1
_space_group_crystal_system       triclinic
_cell_length_a                    19.513493
_cell_length_b                    11.732588
_cell_length_c                    10.42706
_cell_angle_alpha                 89.990077
_cell_angle_beta                  90.000243
_cell_angle_gamma                 90.00007
_cell_volume                      2387.21043032

loop_
_atom_site_label
_atom_site_type_symbol
_atom_type_description
_atom_site_fract_x
_atom_site_fract_y
_atom_site_fract_z
_atom_type_partial_charge
C1    C     C_R   0.500000 0.283218 0.500007 0.558435
C2    C     C_1   0.500000 0.940290 0.499992 0.008672
C3    C     C_1   0.500000 0.499999 0.071943 0.139734
C4    C     C_1   0.500000 0.500001 0.928057 0.139735
C5    C     C_R   0.252240 0.511929 0.617199 0.041199
C6    C     C_R   0.747760 0.488073 0.382801 0.041200
C7    C     C_R   0.747760 0.511937 0.617199 0.041196
C8    C     C_R   0.252240 0.488064 0.382802 0.041196
C9    C     C_R   0.179821 0.511738 0.617018 -0.014237
C10   C     C_R   0.820179 0.488265 0.382982 -0.014236
C11   C     C_R   0.820180 0.511743 0.617018 -0.014236
C12   C     C_R   0.500000 0.716782 0.499993 0.558437
C13   C     C_R   0.179820 0.488258 0.382983 -0.014235
C14   C     C_R   0.144319 0.499999 0.500000 -0.055974
C15   C     C_R   0.855681 0.500003 0.500000 -0.055974
C16   C     C_R   0.289445 0.499997 0.500000 -0.079630
C17   C     C_R   0.710555 0.500004 0.500000 -0.079631
C18   C     C_2   0.288054 0.520198 0.742088 0.663428
C19   C     C_2   0.711946 0.479806 0.257912 0.663430
C20   C     C_2   0.711947 0.520212 0.742088 0.663423
C21   C     C_2   0.288052 0.479789 0.257913 0.663424
C22   C     C_2   0.139848 0.520213 0.739243 0.314830
C23   C     C_R   0.930906 0.500002 0.500000 0.276754
C24   C     C_2   0.860153 0.479792 0.260757 0.314830
C25   C     C_2   0.860154 0.520219 0.739242 0.314839
C26   C     C_2   0.139846 0.479783 0.260759 0.314838
C27   C     C_R   0.069094 0.500000 0.500000 0.276757
C28   C     C_R   0.366484 0.499999 0.500000 0.542884
C29   C     C_R   0.633516 0.500001 0.500000 0.542884
C30   C     C_1   0.500000 0.161892 0.500016 0.027666
C31   C     C_1   0.500000 0.838108 0.499984 0.027667
C32   C     C_1   0.500000 0.059710 0.500008 0.008672
Cu1   Cu    Cu3+1 0.500000 0.500000 0.625300 1.104942
Cu2   Cu    Cu3+1 0.500000 0.500000 0.374700 1.104941
H1    H     H_    0.319080 0.439399 0.902522 0.347573
H2    H     H_    0.680920 0.560606 0.097480 0.347573
H3    H     H_    0.680932 0.439425 0.902537 0.347581
H4    H     H_    0.319071 0.560577 0.097468 0.347579
H5    H     H_    0.090700 0.477635 0.747988 0.133316
H6    H     H_    0.909301 0.522369 0.252013 0.133315
H7    H     H_    0.909301 0.477640 0.747989 0.133316
H8    H     H_    0.090701 0.522370 0.252009 0.133314
N1    N     N_1   0.500000 0.500000 0.186410 -0.166111
N2    N     N_1   0.500000 0.500000 0.813590 -0.166111
N3    N     N_R   0.034059 0.593533 0.539114 -0.194610
N4    N     N_R   0.965941 0.406469 0.460887 -0.194609
N5    N     N_R   0.965942 0.593534 0.539114 -0.194611
N6    N     N_R   0.034058 0.406468 0.460887 -0.194606
O1    O     O_R   0.500000 0.337200 0.605810 -0.491276
O2    O     O_R   0.292863 0.423917 0.820459 -0.640709
O3    O     O_2   0.687377 0.388874 0.223667 -0.459604
O4    O     O_R   0.707137 0.576088 0.179543 -0.640710
O5    O     O_2   0.687369 0.611142 0.776315 -0.459611
O6    O     O_R   0.707150 0.423939 0.820476 -0.640697
O7    O     O_2   0.312627 0.388859 0.223681 -0.459608
O8    O     O_R   0.292854 0.576063 0.179529 -0.640703
O9    O     O_2   0.159993 0.577277 0.829603 -0.410810
O10   O     O_2   0.840008 0.422729 0.170396 -0.410807
O11   O     O_2   0.840010 0.577287 0.829600 -0.410810
O12   O     O_R   0.500000 0.662800 0.394190 -0.491276
O13   O     O_2   0.159987 0.422708 0.170405 -0.410810
O14   O     O_R   0.500000 0.662800 0.605810 -0.474380
O15   O     O_R   0.500000 0.337200 0.394190 -0.474382
O16   O     O_R   0.400140 0.500000 0.605850 -0.476245
O17   O     O_R   0.599860 0.500000 0.394150 -0.476244
O18   O     O_R   0.599860 0.500000 0.605850 -0.476243
O19   O     O_R   0.400140 0.500000 0.394150 -0.476243
O20   O     O_2   0.312624 0.611129 0.776331 -0.459603

loop_
_geom_bond_atom_site_label_1
_geom_bond_atom_site_label_2
_ccdc_geom_bond_type
Cu2   O19   S    
C6    C10   A    
C21   O8    S    
C30   C32   T    
C9    C14   A    
C16   C28   S    
C8    C13   A    
C19   O3    D    
C14   C27   S    
C17   C29   S    
C2    C31   T    
C20   O5    D    
H2    O4    S    
C27   N3    A    
C22   O9    D    
C15   C23   S    
C8    C21   S    
H4    O8    S    
C8    C16   A    
C23   N4    A    
C13   C14   A    
Cu2   O12   S    
C6    C19   S    
C20   O6    S    
C3    N1    T    
C5    C9    A    
C4    N2    T    
H1    O2    S    
Cu1   O16   S    
C29   O17   A    
C22   H5    S    
C28   O16   A    
Cu2   O17   S    
C24   O10   D    
C1    C30   S    
C24   H6    S    
C26   O13   D    
Cu1   Cu2   S    
Cu1   O18   S    
C7    C11   A    
C10   C15   A    
N3    N5    A    
C12   C31   S    
C9    C22   S    
N4    N6    A    
C13   C26   S    
C23   N5    A    
H3    O6    S    
C18   O20   D    
Cu1   O1    S    
C29   O18   A    
C12   O12   A    
C1    O15   A    
C28   O19   A    
C12   O14   A    
C18   O2    S    
C2    C32   S    
C7    C20   S    
C1    O1    A    
C25   H7    S    
C26   H8    S    
C6    C17   A    
C11   C25   S    
Cu2   O15   S    
C21   O7    D    
C25   O11   D    
C5    C18   S    
C27   N6    A    
C10   C24   S    
Cu1   N2    S    
C11   C15   A    
C19   O4    S    
Cu2   N1    S    
C3    C4    S    
Cu1   O14   S    
C5    C16   A    
C7    C17   A    
