data_mof_unit_36271.cif
_audit_creation_date              2012-12-11T14:33:08-0500
_audit_creation_method            fapswitch 2.2
_symmetry_space_group_name_H-M    P1
_symmetry_Int_Tables_number       1
_space_group_crystal_system       triclinic
_cell_length_a                    6.968003
_cell_length_b                    13.924908
_cell_length_c                    17.864964
_cell_angle_alpha                 113.001973
_cell_angle_beta                  95.931601
_cell_angle_gamma                 89.844256
_cell_volume                      1585.70826442

loop_
_atom_site_label
_atom_site_type_symbol
_atom_type_description
_atom_site_fract_x
_atom_site_fract_y
_atom_site_fract_z
_atom_type_partial_charge
O1    O     O_R   0.484560 0.544530 0.414330 -0.536609
O2    O     O_R   0.197040 0.638810 0.585080 -0.535694
O3    O     O_R   0.026800 0.455470 0.585670 -0.543278
C1    C     C_R   0.373649 0.681756 0.608700 0.688634
O4    O     O_R   0.155000 0.556150 0.414940 -0.543241
O5    O     O_R   0.984450 0.372220 0.414320 -0.537499
C2    C     C_R   0.317323 0.564945 0.386471 0.754190
O6    O     O_R   0.526900 0.627780 0.585680 -0.536522
O7    O     O_3   0.339170 0.439750 0.499990 -0.378646
V1    V     V_3+5 0.064350 0.511180 0.500000 1.364340
O8    O     O_R   0.654880 0.361190 0.414920 -0.543868
C3    C     C_R   0.817050 0.324649 0.386450 0.754143
O9    O     O_R   0.696930 0.443850 0.585060 -0.537642
C4    C     C_R   0.873167 0.421321 0.604874 0.699020
V2    V     V_3+5 0.564340 0.488820 0.500000 1.368188
O10   O     O_3   0.839390 0.560250 0.500010 -0.378409
C5    C     C_R   0.036105 0.847276 0.814892 -0.053999
C6    C     C_R   0.906940 0.376424 0.668497 -0.075697
C7    C     C_R   0.919722 0.801438 0.671721 -0.121753
C8    C     C_R   0.970323 0.772036 0.737518 -0.159786
C9    C     C_R   0.039326 0.952331 0.826127 -0.223331
C10   C     C_R   0.988161 0.984307 0.760215 0.095103
C11   C     C_R   0.932275 0.906520 0.681917 0.110130
C12   C     C_R   0.985292 0.091103 0.770405 0.081199
C13   C     C_R   0.940625 0.119959 0.701630 0.082962
C14   C     C_R   0.893337 0.038828 0.624191 -0.182480
C15   C     C_R   0.886410 0.934374 0.614958 -0.218545
C16   C     C_R   0.007985 0.170003 0.848884 -0.202849
C17   C     C_R   0.987485 0.271981 0.860246 -0.208640
C18   C     C_R   0.983545 0.304263 0.795609 0.109199
C19   C     C_R   0.942546 0.229152 0.714134 0.052276
C20   C     C_R   0.011536 0.411006 0.811614 0.274553
C21   C     C_R   0.968667 0.445231 0.747842 -0.199894
C22   C     C_R   0.900269 0.267616 0.650651 -0.228756
H1    H     H_    0.844759 0.874597 0.554622 0.119274
H2    H     H_    0.862809 0.215372 0.587705 0.102606
H3    H     H_    0.982943 0.527753 0.760353 0.082364
H4    H     H_    0.967786 0.324845 0.921325 0.143247
H5    H     H_    0.869909 0.741993 0.612538 0.152813
H6    H     H_    0.957668 0.690497 0.728003 0.098949
H7    H     H_    0.077878 0.006625 0.887763 0.083705
H8    H     H_    0.857238 0.054221 0.569883 0.123411
H9    H     H_    0.020557 0.155905 0.904156 0.114026
H10   H     H_    0.113150 0.224142 0.308406 0.156010
H11   H     H_    0.834770 0.034991 0.193134 0.154747
C23   C     C_2   0.135142 0.037664 0.183701 -0.355339
C24   C     C_2   0.972582 0.078136 0.216585 -0.130511
H12   H     H_    0.675623 0.177700 0.294439 0.124702
C25   C     C_2   0.813040 0.221134 0.318256 -0.352006
C26   C     C_2   0.975410 0.180905 0.285068 -0.133013
H13   H     H_    0.272608 0.081031 0.207576 0.123938
C27   C     C_R   0.407236 0.794196 0.673301 -0.108850
C28   C     C_R   0.536443 0.478446 0.816525 -0.054786
C29   C     C_R   0.513456 0.909704 0.816428 0.276334
C30   C     C_R   0.465684 0.809427 0.755194 -0.154759
C31   C     C_R   0.394794 0.885991 0.654550 -0.211717
C32   C     C_R   0.446875 0.989866 0.716076 0.056206
C33   C     C_R   0.517601 0.996909 0.795296 0.070312
C34   C     C_R   0.437667 0.087890 0.703920 0.079147
C35   C     C_R   0.494016 0.186430 0.771572 0.074132
C36   C     C_R   0.564499 0.184282 0.846366 -0.186593
C37   C     C_R   0.594235 0.092085 0.854386 -0.202077
C38   C     C_R   0.374568 0.092412 0.628087 -0.181261
C39   C     C_R   0.365146 0.188239 0.619231 -0.210236
C40   C     C_R   0.419696 0.283524 0.685276 0.107143
C41   C     C_R   0.487992 0.284444 0.762482 0.085312
C42   C     C_R   0.406324 0.378311 0.674765 -0.116202
C43   C     C_R   0.460741 0.474306 0.739537 -0.152327
C44   C     C_R   0.549893 0.383600 0.827281 -0.200691
H14   H     H_    0.682268 0.097768 0.909190 0.135514
H15   H     H_    0.606168 0.391438 0.887800 0.091549
H16   H     H_    0.442986 0.545712 0.729403 0.094253
H17   H     H_    0.313361 0.187853 0.559794 0.117683
H18   H     H_    0.474750 0.742501 0.771826 0.105119
H19   H     H_    0.347752 0.874883 0.592124 0.106096
H20   H     H_    0.612635 0.252465 0.899800 0.116977
H21   H     H_    0.329917 0.022533 0.574868 0.124279
H22   H     H_    0.351284 0.377968 0.615973 0.153828
H23   H     H_    0.334535 0.666220 0.193517 0.155432
H24   H     H_    0.614070 0.590476 0.308223 0.154751
C45   C     C_2   0.313786 0.601951 0.318523 -0.352088
C46   C     C_2   0.475916 0.610477 0.285116 -0.128826
H25   H     H_    0.773033 0.636062 0.207310 0.126584
C47   C     C_2   0.635084 0.655613 0.183683 -0.351728
C48   C     C_2   0.472788 0.646502 0.216776 -0.133232
H26   H     H_    0.175930 0.621742 0.295006 0.126004
O11   O     O_R   0.421600 0.630430 0.917010 -0.551208
O12   O     O_R   0.793840 0.702190 0.087630 -0.536846
O13   O     O_R   0.964010 0.886170 0.088190 -0.532875
C49   C     C_R   0.631542 0.693064 0.115993 0.750770
O14   O     O_R   0.751460 0.619510 0.917500 -0.527831
O15   O     O_R   0.921330 0.802900 0.916840 -0.545597
C50   C     C_R   0.573933 0.582372 0.887671 0.691825
O16   O     O_R   0.464290 0.713700 0.088350 -0.541871
O17   O     O_3   0.609200 0.818520 0.002630 -0.353326
V3    V     V_3+5 0.884140 0.747190 0.002530 1.392041
O18   O     O_R   0.251150 0.814630 0.917340 -0.523669
C51   C     C_R   0.073384 0.817741 0.886294 0.675340
O19   O     O_R   0.293530 0.897310 0.087470 -0.555179
C52   C     C_R   0.131290 0.933927 0.115809 0.751537
V4    V     V_3+5 0.384070 0.769710 0.002370 1.368974
O20   O     O_3   0.109180 0.698190 0.002460 -0.376697
N1    N     N_2   0.073474 0.488255 0.891227 -0.493203
H27   H     H_    0.102515 0.558153 0.887869 0.295174
C53   C     C_3   0.204825 0.467418 0.951838 -0.499907
H28   H     H_    0.316872 0.529928 0.982256 0.205195
H29   H     H_    0.280398 0.393794 0.924936 0.179281
H30   H     H_    0.124367 0.467323 0.002244 0.173598
N2    N     N_2   0.570857 0.921192 0.898930 -0.463606
H31   H     H_    0.718195 0.928860 0.910657 0.255712
C54   C     C_3   0.484617 0.002045 0.965762 -0.480568
H32   H     H_    0.597454 0.058748 0.008833 0.132238
H33   H     H_    0.374378 0.045170 0.944021 0.163357
H34   H     H_    0.417086 0.969259 0.003344 0.240335

loop_
_geom_bond_atom_site_label_1
_geom_bond_atom_site_label_2
_ccdc_geom_bond_type
C33   C37   A    
O12   V3    S    
C13   C19   A    
V4    O20   S    
V3    O20   S    
C4    C6    S    
O2    C1    A    
O17   V3    S    
C1    O6    A    
C28   C44   A    
C3    C25   S    
O15   C51   A    
C54   H33   S    
C53   H29   S    
C14   C15   A    
C1    C27   S    
H25   C47   S    
C16   C17   A    
N2    C54   S    
O5    C3    A    
C18   C19   A    
C8    H6    S    
C32   C34   A    
C41   C44   A    
V2    O10   S    
O18   C51   A    
O15   V3    S    
C5    C8    A    
C31   C32   A    
C37   H14   S    
C23   C24   D    
C44   H15   S    
C28   C43   A    
O14   V3    S    
O11   V4    S    
C30   H18   S    
O8    V2    S    
C7    C8    A    
O16   V4    S    
C40   C42   A    
C17   H4    S    
C39   H17   S    
O1    V2    S    
C11   C15   A    
C5    C51   S    
C45   H26   S    
C27   C30   A    
C38   H21   S    
C35   C41   A    
C34   C35   A    
C31   H19   S    
O9    C4    A    
C42   H22   S    
C47   C49   S    
C49   O16   A    
C24   C26   S    
H11   C24   S    
C36   H20   S    
C53   H30   S    
C19   C22   A    
O13   C52   A    
C28   C50   S    
C42   C43   A    
C47   C48   D    
H24   C46   S    
O4    C2    A    
C15   H1    S    
C13   C14   A    
C23   H13   S    
C45   C46   D    
C29   N2    S    
C35   C36   A    
C7    C11   A    
C17   C18   A    
O14   C50   A    
O19   C52   A    
C43   H16   S    
C29   C33   A    
C20   N1    S    
N1    C53   S    
C12   C13   A    
C6    C22   A    
O3    C4    A    
C7    H5    S    
C9    H7    S    
H12   C25   S    
O19   V4    S    
O12   C49   A    
C40   C41   A    
O6    V2    S    
O9    V2    S    
C10   C12   A    
O2    V1    S    
H23   C48   S    
C14   H8    S    
O7    V1    S    
H10   C26   S    
C23   C52   S    
C29   C30   A    
C54   H32   S    
C2    C45   S    
O1    C2    A    
C12   C16   A    
O5    V1    S    
O8    C3    A    
C46   C48   S    
C53   H28   S    
C16   H9    S    
C34   C38   A    
C20   C21   A    
O13   V3    S    
O7    V2    S    
O4    V1    S    
O3    V1    S    
V1    O10   S    
N2    H31   S    
C39   C40   A    
C18   C20   A    
C32   C33   A    
O11   C50   A    
C54   H34   S    
C22   H2    S    
C36   C37   A    
C6    C21   A    
C21   H3    S    
C38   C39   A    
C27   C31   A    
C25   C26   D    
N1    H27   S    
C10   C11   A    
C9    C10   A    
O18   V4    S    
O17   V4    S    
C5    C9    A    
