data_mof_unit_42569.cif
_audit_creation_date              2012-12-11T14:27:01-0500
_audit_creation_method            fapswitch 2.2
_symmetry_space_group_name_H-M    P1
_symmetry_Int_Tables_number       1
_space_group_crystal_system       triclinic
_cell_length_a                    14.956167
_cell_length_b                    14.957502
_cell_length_c                    14.971313
_cell_angle_alpha                 109.943046
_cell_angle_beta                  109.121151
_cell_angle_gamma                 109.462953
_cell_volume                      2574.48694248

loop_
_atom_site_label
_atom_site_type_symbol
_atom_type_description
_atom_site_fract_x
_atom_site_fract_y
_atom_site_fract_z
_atom_type_partial_charge
C1    C     C_R   0.950965 0.768574 0.045897 0.531409
C2    C     C_R   0.205328 0.803219 0.297575 -0.106089
C3    C     C_R   0.954788 0.407203 0.220930 -0.015064
C4    C     C_R   0.776612 0.237884 0.685911 0.576590
C5    C     C_R   0.313379 0.593344 0.069981 -0.132877
C6    C     C_R   0.018859 0.499015 0.324639 0.084634
C7    C     C_R   0.326455 0.503162 0.057477 0.157220
C8    C     C_R   0.296160 0.867603 0.297403 0.163870
C9    C     C_R   0.925333 0.128653 0.917827 -0.090709
C10   C     C_3   0.540986 0.497842 0.977445 0.293718
C11   C     C_3   0.433817 0.490792 0.969090 -0.627097
C12   C     C_R   0.672922 0.206120 0.674638 0.023168
C13   C     C_3   0.524414 0.388819 0.076024 0.717249
C14   C     C_3   0.638402 0.601689 0.186155 0.238865
C15   C     C_3   0.605070 0.494976 0.081811 -0.294380
C16   C     C_R   0.100376 0.591125 0.796209 0.016743
C17   C     C_3   0.431014 0.504640 0.076204 -0.017514
C18   C     C_3   0.431343 0.405632 0.090654 0.093960
C19   C     C_3   0.536548 0.614582 0.177512 0.783654
C20   C     C_2   0.373506 0.042670 0.460904 -0.158445
C21   C     C_2   0.371078 0.985085 0.368621 -0.239749
C22   C     C_2   0.477379 0.136865 0.555671 0.573609
C23   C     C_R   0.077025 0.500912 0.707219 0.047304
C24   C     C_2   0.569494 0.131702 0.573462 -0.345238
C25   C     C_2   0.080141 0.417480 0.539743 -0.063577
C26   C     C_2   0.125416 0.504877 0.637853 -0.149807
C27   C     C_2   0.078458 0.433947 0.448838 0.329525
C28   C     C_R   0.706858 0.407002 0.013763 0.507785
C29   C     C_2   0.038232 0.496601 0.424565 0.277936
C30   C     C_2   0.930425 0.958850 0.839864 0.442680
C31   C     C_2   0.875233 0.008872 0.866621 0.382239
C32   C     C_2   0.914518 0.861903 0.849677 -0.176667
C33   C     C_2   0.944850 0.877804 0.950540 -0.141304
C34   C     C_R   0.704508 0.495818 0.079344 0.138964
C35   C     C_R   0.011759 0.409697 0.705741 0.006675
C36   C     C_R   0.793223 0.587839 0.102626 -0.048710
C37   C     C_R   0.685821 0.241260 0.778476 -0.132895
C38   C     C_R   0.043610 0.769044 0.955246 0.492017
C39   C     C_R   0.977133 0.807412 0.981054 -0.207657
C40   C     C_R   0.044999 0.591745 0.314246 -0.045287
C41   C     C_R   0.223985 0.410015 0.978931 -0.121383
C42   C     C_R   0.296463 0.803693 0.206522 -0.150006
C43   C     C_R   0.902930 0.194100 0.988298 -0.138916
C44   C     C_R   0.988692 0.194858 0.892119 0.495933
Cl1   Cl    Cl    0.985413 0.151021 0.765163 -0.574071
Cl2   Cl    Cl    0.455441 0.264695 0.944381 -0.566896
Cl3   Cl    Cl    0.595109 0.358618 0.174630 -0.467686
Cl4   Cl    Cl    0.473312 0.244443 0.648324 -0.575550
Cl5   Cl    Cl    0.120875 0.360891 0.368168 -0.595566
Cl6   Cl    Cl    0.988161 0.564922 0.499523 -0.578945
Cl7   Cl    Cl    0.752719 0.935813 0.864120 -0.600567
H1    H     H_    0.202639 0.324908 0.943262 0.155567
H2    H     H_    0.352061 0.329623 0.026461 0.131559
H3    H     H_    0.694529 0.674639 0.189468 0.128715
H4    H     H_    0.305684 0.011278 0.474625 0.167065
H5    H     H_    0.164561 0.673960 0.831006 0.166131
H6    H     H_    0.437219 0.020955 0.353988 0.155328
H7    H     H_    0.568014 0.063609 0.514348 0.137489
H8    H     H_    0.025411 0.335581 0.519375 0.151278
H9    H     H_    0.180452 0.585633 0.655448 0.174785
H10   H     H_    0.908544 0.792694 0.786970 0.178768
H11   H     H_    0.955615 0.949610 0.014809 0.166374
H12   H     H_    0.346650 0.833447 0.173706 0.128604
H13   H     H_    0.995914 0.327472 0.659238 0.176789
H14   H     H_    0.825909 0.671616 0.163354 0.182762
H15   H     H_    0.622250 0.225231 0.799933 0.203908
H16   H     H_    0.089198 0.676653 0.378847 0.136355
H17   H     H_    0.870284 0.840060 0.077969 0.348710
H18   H     H_    0.606862 0.655427 0.023334 0.368818
H19   H     H_    0.734543 0.173041 0.532988 0.323632
H20   H     H_    0.649321 0.562241 0.300608 0.423670
H21   H     H_    0.605600 0.772421 0.230679 0.341123
H22   H     H_    0.477367 0.659645 0.272944 0.334224
H23   H     H_    0.841505 0.164744 0.010138 0.180638
H24   H     H_    0.406247 0.349612 0.185517 0.372329
H25   H     H_    0.054117 0.965249 0.819883 0.344522
H26   H     H_    0.702707 0.269006 0.982577 0.312308
H27   H     H_    0.102697 0.865409 0.905807 0.330801
H28   H     H_    0.171672 0.831555 0.347677 0.113781
H29   H     H_    0.914528 0.321875 0.198754 0.142158
H30   H     H_    0.373952 0.679119 0.120921 0.167314
H31   H     H_    0.519679 0.425005 0.903126 0.219310
H32   H     H_    0.421897 0.553187 0.950196 0.258912
H33   H     H_    0.364581 0.409331 0.898082 0.219214
N1    N     N_R   0.993980 0.704500 0.053430 -0.112188
N2    N     N_R   0.053690 0.556380 0.849240 -0.066858
N3    N     N_R   0.790390 0.443640 0.997160 -0.126464
N4    N     N_R   0.998260 0.443670 0.792970 -0.061006
N5    N     N_R   0.845830 0.556350 0.053430 -0.075828
N6    N     N_R   0.792820 0.295510 0.849240 -0.106804
N7    N     N_R   0.051260 0.704510 0.997160 -0.109551
N8    N     N_R   0.001740 0.556330 0.207030 -0.066124
N9    N     N_R   0.154170 0.443650 0.946570 -0.047301
N10   N     N_R   0.207180 0.704490 0.150760 -0.052800
N11   N     N_R   0.948740 0.295490 0.002840 -0.077974
N12   N     N_R   0.006020 0.295500 0.946570 -0.098241
N13   N     N_R   0.149890 0.704480 0.207030 -0.054482
N14   N     N_R   0.946310 0.443620 0.150760 -0.068559
N15   N     N_R   0.209610 0.556360 0.002840 -0.061549
N16   N     N_R   0.850110 0.295520 0.792970 -0.080541
Ni1   Ni    Ni4+2 0.997880 0.629240 0.129060 0.249660
Ni2   Ni    Ni4+2 0.002120 0.370760 0.870940 0.299901
Ni3   Ni    Ni4+2 0.129260 0.629260 0.000000 0.241248
Ni4   Ni    Ni4+2 0.870740 0.370740 0.000000 0.233139
O1    O     O_3   0.895057 0.792787 0.098489 -0.748133
O2    O     O_3   0.105185 0.801585 0.909697 -0.753596
O3    O     O_3   0.603542 0.589331 0.973282 -0.685397
O4    O     O_3   0.802575 0.212132 0.604097 -0.743656
O5    O     O_3   0.699686 0.607796 0.284597 -0.645693
O6    O     O_3   0.546655 0.703906 0.160575 -0.840848
O7    O     O_3   0.532283 0.636077 0.275106 -0.679231
O8    O     O_3   0.441540 0.422914 0.192878 -0.657509
O9    O     O_3   0.024414 0.014668 0.839052 -0.707697
O10   O     O_3   0.667554 0.308236 0.010792 -0.651951

loop_
_geom_bond_atom_site_label_1
_geom_bond_atom_site_label_2
_ccdc_geom_bond_type
C36   N5    A    
C14   O5    S    
N15   Ni3   S    
N12   Ni2   S    
C27   C29   D    
C22   Cl4   S    
N11   N12   A    
C3    C6    A    
H18   O3    S    
N8    N14   A    
N11   Ni4   S    
C4    O4    S    
H24   O8    S    
C33   C39   S    
C37   N6    A    
C8    C42   A    
C32   H10   S    
C10   C15   S    
C30   C31   D    
N2    N4    A    
C3    H29   S    
C23   C26   S    
C12   C37   A    
C2    H28   S    
C18   H2    S    
C41   N9    A    
C5    N15   A    
C2    N13   A    
C33   H11   S    
C7    C17   S    
C40   H16   S    
C43   N11   A    
H22   O7    S    
C35   H13   S    
C4    C12   A    
N9    N15   A    
C15   C34   S    
C34   C36   A    
C43   H23   S    
C28   C34   A    
C16   N2    A    
C10   O3    S    
C20   H4    S    
N2    Ni3   S    
N6    N16   A    
C17   C18   S    
C29   Cl6   S    
C1    N1    A    
C18   O8    S    
H21   O6    S    
C9    C43   A    
N7    Ni3   S    
C5    C7    A    
C9    C31   S    
C36   H14   S    
N10   N13   A    
C11   H32   S    
C25   C26   D    
C38   N7    A    
C10   H31   S    
C38   O2    S    
C16   H5    S    
C21   H6    S    
C44   N12   A    
C5    H30   S    
C35   N4    A    
C14   C15   S    
C37   H15   S    
C28   N3    A    
N16   Ni2   S    
H25   O9    S    
C40   N8    A    
N6    Ni4   S    
C28   O10   S    
N8    Ni1   S    
C13   C18   S    
C14   H3    S    
C20   C22   S    
N10   Ni3   S    
C16   C23   A    
C23   C35   A    
C4    N16   A    
C22   C24   D    
H17   O1    S    
H26   O10   S    
N1    N7    A    
N1    Ni1   S    
C44   Cl1   S    
C13   Cl3   S    
C19   O6    S    
C11   C17   S    
C9    C44   A    
C41   H1    S    
N5    Ni1   S    
C42   N10   A    
C14   C19   S    
C2    C8    A    
C31   Cl7   S    
C8    C21   S    
N9    Ni2   S    
N4    Ni2   S    
C19   O7    S    
C11   H33   S    
C25   C27   S    
C12   C24   S    
H27   O2    S    
C32   C33   D    
C13   C15   S    
H19   O4    S    
C30   C32   S    
C3    N14   A    
C38   C39   A    
N14   Ni4   S    
H20   O5    S    
C17   C19   S    
C6    C40   A    
C7    C41   A    
C10   C11   S    
C1    C39   A    
N3    Ni4   S    
C6    C29   S    
C20   C21   D    
C24   H7    S    
N3    N5    A    
C13   Cl2   S    
C25   H8    S    
C26   H9    S    
C42   H12   S    
N13   Ni1   S    
C27   Cl5   S    
C1    O1    S    
C30   O9    S    
