data_mof_unit_52942.cif
_audit_creation_date              2012-12-10T20:46:52-0500
_audit_creation_method            fapswitch 2.2
_symmetry_space_group_name_H-M    P1
_symmetry_Int_Tables_number       1
_space_group_crystal_system       triclinic
_cell_length_a                    12.803473
_cell_length_b                    8.930617
_cell_length_c                    8.116558
_cell_angle_alpha                 89.973162
_cell_angle_beta                  96.52233
_cell_angle_gamma                 90.10278
_cell_volume                      922.062584988

loop_
_atom_site_label
_atom_site_type_symbol
_atom_type_description
_atom_site_fract_x
_atom_site_fract_y
_atom_site_fract_z
_atom_type_partial_charge
C1    C     C_R   0.500206 0.218028 0.500054 0.950253
C2    C     C_R   0.881741 0.518922 0.691567 -0.048628
C3    C     C_R   0.138090 0.391848 0.582204 -0.150927
C4    C     C_R   0.862072 0.412972 0.409973 -0.189508
C5    C     C_R   0.030583 0.416110 0.572969 0.103681
C6    C     C_R   0.970652 0.409747 0.417436 0.087074
C7    C     C_1   0.500157 0.065213 0.500060 -0.118290
C8    C     C_1   0.500095 0.934804 0.499988 -0.141367
C9    C     C_2   0.799677 0.340812 0.265003 0.983532
C10   C     C_2   0.188331 0.288866 0.713490 0.983279
C11   C     C_2   0.850384 0.628631 0.815527 0.963347
C12   C     C_R   0.500018 0.781966 0.499981 0.950959
C13   C     C_2   0.171479 0.490390 0.132677 0.953330
C14   C     C_R   0.298076 0.482909 0.467743 0.903254
C15   C     C_R   0.703242 0.497442 0.530691 0.903806
C16   C     C_R   0.816625 0.477455 0.545199 -0.194701
C17   C     C_R   0.187704 0.438055 0.444129 -0.216746
C18   C     C_R   0.020812 0.413608 0.273089 -0.210564
C19   C     C_R   0.985287 0.467732 0.710784 -0.155711
C20   C     C_R   0.127755 0.444540 0.285566 -0.014039
H1    H     H_    0.975828 0.412652 0.151743 0.193835
H2    H     H_    0.034911 0.488262 0.825194 0.204464
H3    H     H_    0.771139 0.535302 0.143127 0.320929
H4    H     H_    0.168029 0.151886 0.905737 0.370652
H5    H     H_    0.885613 0.726449 0.039360 0.358076
H6    H     H_    0.181153 0.650278 0.959723 0.335917
N1    N     N_1   0.500020 0.500000 0.073640 0.021392
N2    N     N_1   0.499980 0.500000 0.926360 0.019450
O1    O     O_R   0.499990 0.285340 0.636850 -0.583371
O2    O     O_R   0.758519 0.424092 0.127024 -0.751874
O3    O     O_2   0.278852 0.246354 0.711678 -0.601221
O4    O     O_R   0.127576 0.226764 0.829280 -0.782390
O5    O     O_2   0.777479 0.715161 0.779277 -0.606133
O6    O     O_R   0.910797 0.642730 0.969412 -0.804995
O7    O     O_2   0.232202 0.407997 0.070503 -0.608707
O8    O     O_R   0.144756 0.629775 0.062072 -0.773747
O9    O     O_R   0.500010 0.714660 0.363150 -0.620255
O10   O     O_R   0.500010 0.285340 0.363150 -0.607142
O11   O     O_R   0.499990 0.714660 0.636850 -0.603862
O12   O     O_R   0.346350 0.500000 0.614250 -0.597537
O13   O     O_R   0.653650 0.500000 0.385750 -0.633578
O14   O     O_R   0.346360 0.500000 0.340500 -0.607362
O15   O     O_R   0.653640 0.500000 0.659500 -0.577731
O16   O     O_2   0.786191 0.205523 0.265335 -0.557879
Zn1   Zn    Zn3+2 0.499990 0.500000 0.682780 1.087395
Zn2   Zn    Zn3+2 0.500010 0.500000 0.317220 1.063640

loop_
_geom_bond_atom_site_label_1
_geom_bond_atom_site_label_2
_ccdc_geom_bond_type
C4    C16   A    
O13   Zn2   S    
H4    O4    S    
C3    C17   A    
O11   Zn1   S    
C5    C19   A    
C18   H1    S    
C2    C16   A    
C8    C12   S    
H5    O6    S    
C14   O14   A    
C19   H2    S    
C12   O11   A    
C1    O1    A    
O9    Zn2   S    
C15   O15   A    
C7    C8    T    
C3    C10   S    
C1    C7    S    
O15   Zn1   S    
C14   C17   S    
C5    C6    A    
C1    O10   A    
C2    C11   S    
C9    O2    S    
N1    Zn2   S    
H6    O8    S    
C13   O7    D    
C18   C20   A    
O12   Zn1   S    
C6    C18   A    
N2    Zn1   S    
O10   Zn2   S    
C14   O12   A    
C15   C16   S    
H3    O2    S    
C10   O4    S    
C11   O5    D    
C17   C20   A    
C15   O13   A    
C13   O8    S    
C4    C6    A    
O14   Zn2   S    
C12   O9    A    
C9    O16   D    
C13   C20   S    
C3    C5    A    
C4    C9    S    
C2    C19   A    
C10   O3    D    
C11   O6    S    
O1    Zn1   S    
N1    N2    T    
