data_mof_unit_10758.cif
_audit_creation_date              2012-12-10T20:34:57-0500
_audit_creation_method            fapswitch 2.2
_symmetry_space_group_name_H-M    P1
_symmetry_Int_Tables_number       1
_space_group_crystal_system       triclinic
_cell_length_a                    10.64676
_cell_length_b                    10.653808
_cell_length_c                    9.871463
_cell_angle_alpha                 89.765593
_cell_angle_beta                  90.022496
_cell_angle_gamma                 90.482088
_cell_volume                      1119.65652765

loop_
_atom_site_label
_atom_site_type_symbol
_atom_type_description
_atom_site_fract_x
_atom_site_fract_y
_atom_site_fract_z
_atom_type_partial_charge
C1    C     C_R   0.509540 0.260277 0.500101 0.948777
C2    C     C_3   0.878436 0.497032 0.501237 0.115980
C3    C     C_3   0.929461 0.623174 0.444456 -0.384072
C4    C     C_3   0.925251 0.387327 0.412695 -0.396139
C5    C     C_R   0.508808 0.062963 0.620108 0.074009
C6    C     C_R   0.537056 0.129319 0.502490 -0.201840
C7    C     C_R   0.598191 0.067241 0.394378 0.129861
C8    C     C_R   0.598844 0.934982 0.394933 0.154737
C9    C     C_R   0.536215 0.871189 0.501890 -0.244819
C10   C     C_R   0.507365 0.935782 0.619466 0.093684
C11   C     C_3   0.396169 0.927427 0.711795 0.026540
C12   C     C_R   0.257607 0.497710 0.500204 0.871476
C13   C     C_3   0.399303 0.069694 0.714321 -0.478770
C14   C     C_R   0.390619 0.484710 0.071318 0.227725
C15   C     C_R   0.607009 0.523687 0.071760 -0.053428
C16   C     C_R   0.607015 0.523764 0.928026 -0.083009
C17   C     C_R   0.390366 0.485837 0.928740 0.243484
C18   C     C_3   0.304185 0.375404 0.923045 -0.519554
C19   C     C_3   0.306303 0.372567 0.076241 -0.470510
C20   C     C_R   0.509277 0.739833 0.499698 0.915174
C21   C     C_R   0.742242 0.498915 0.500301 0.844774
C22   C     C_3   0.070623 0.471392 0.646501 -0.390321
C23   C     C_3   0.928115 0.478139 0.647782 -0.386658
C24   C     C_3   0.073525 0.624857 0.451361 -0.443203
C25   C     C_3   0.069213 0.391816 0.404354 -0.005614
C26   C     C_3   0.120982 0.495404 0.500910 0.109998
H1    H     H_    0.108410 0.542806 0.718217 0.186069
H2    H     H_    0.886031 0.393750 0.308359 0.189267
H3    H     H_    0.112240 0.647741 0.349342 0.190063
H4    H     H_    0.311304 0.887979 0.661172 0.136763
H5    H     H_    0.427720 0.108321 0.813971 0.227417
H6    H     H_    0.100153 0.377128 0.682478 0.197459
H7    H     H_    0.693816 0.541493 0.874287 0.146897
H8    H     H_    0.210652 0.400191 0.882390 0.199210
H9    H     H_    0.348200 0.292859 0.875731 0.221546
H10   H     H_    0.213536 0.394260 0.120066 0.201991
H11   H     H_    0.105586 0.699954 0.521838 0.185524
H12   H     H_    0.892373 0.296698 0.457036 0.206701
N1    N     N_R   0.499150 0.499140 0.142800 -0.104094
N2    N     N_R   0.499150 0.499180 0.857150 -0.107689
O1    O     O_R   0.500020 0.316790 0.614690 -0.616432
O2    O     O_R   0.500000 0.316760 0.385350 -0.585061
O3    O     O_R   0.314800 0.500000 0.614670 -0.623224
O4    O     O_R   0.314790 0.499960 0.385330 -0.621771
O5    O     O_R   0.500000 0.683240 0.614650 -0.597804
O6    O     O_R   0.499980 0.683210 0.385310 -0.581149
O7    O     O_R   0.685210 0.500040 0.614670 -0.641186
O8    O     O_R   0.685200 0.500000 0.385330 -0.624504
Zn1   Zn    Zn3+2 0.500010 0.500020 0.653130 0.966360
Zn2   Zn    Zn3+2 0.499990 0.499980 0.346870 0.992982
H13   H     H_    0.899331 0.635246 0.337270 0.200943
I1    I     I_    0.688720 0.168429 0.232293 -0.313603
I2    I     I_    0.696327 0.835751 0.238791 -0.305987
I3    I     I_    0.441308 0.845848 0.904398 -0.308277
H14   H     H_    0.315332 0.113453 0.667948 0.208730
H15   H     H_    0.693919 0.540956 0.125407 0.158524
H16   H     H_    0.353008 0.288318 0.119245 0.246303
H17   H     H_    0.889039 0.390035 0.692751 0.188777
H18   H     H_    0.898766 0.557639 0.713226 0.184946
H19   H     H_    0.891562 0.703240 0.503485 0.186503
H20   H     H_    0.094609 0.417629 0.299081 0.141852
I4    I     I_    0.146692 0.207583 0.437071 -0.432327

loop_
_geom_bond_atom_site_label_1
_geom_bond_atom_site_label_2
_ccdc_geom_bond_type
C8    I2    S    
C23   H17   S    
C2    C4    S    
C6    C7    A    
C16   H7    S    
C11   C13   S    
C18   H9    S    
O6    Zn2   S    
C9    C20   S    
C5    C13   S    
C20   O5    A    
O5    Zn1   S    
C19   H10   S    
C25   I4    S    
C21   O8    A    
C3    H19   S    
C2    C21   S    
O8    Zn2   S    
C24   H11   S    
C14   N1    A    
C5    C10   A    
C12   O4    A    
C25   H20   S    
C24   H3    S    
C19   H16   S    
C23   H18   S    
C18   H8    S    
C14   C17   A    
C15   N1    A    
C3    C24   S    
C11   I3    S    
C22   H6    S    
C16   N2    A    
C15   C16   A    
C9    C10   A    
O1    Zn1   S    
C4    H2    S    
O2    Zn2   S    
C7    I1    S    
C17   C18   S    
C12   O3    A    
C2    C3    S    
C22   H1    S    
C5    C6    A    
C24   C26   S    
C15   H15   S    
C10   C11   S    
N2    Zn1   S    
C4    C25   S    
C1    O2    A    
C7    C8    A    
N1    Zn2   S    
O7    Zn1   S    
C18   C19   S    
C22   C26   S    
O4    Zn2   S    
C2    C23   S    
C3    H13   S    
C22   C23   S    
O3    Zn1   S    
C1    C6    S    
C13   H14   S    
C25   C26   S    
C4    H12   S    
C14   C19   S    
C13   H5    S    
C20   O6    A    
C1    O1    A    
C11   H4    S    
C12   C26   S    
C8    C9    A    
C21   O7    A    
C17   N2    A    
