data_mof_unit_33050.cif
_audit_creation_date              2012-12-10T19:27:26-0500
_audit_creation_method            fapswitch 2.2
_symmetry_space_group_name_H-M    P1
_symmetry_Int_Tables_number       1
_space_group_crystal_system       triclinic
_cell_length_a                    23.416424
_cell_length_b                    10.487889
_cell_length_c                    9.816145
_cell_angle_alpha                 90.85532
_cell_angle_beta                  89.629945
_cell_angle_gamma                 90.070414
_cell_volume                      2410.41538513

loop_
_atom_site_label
_atom_site_type_symbol
_atom_type_description
_atom_site_fract_x
_atom_site_fract_y
_atom_site_fract_z
_atom_type_partial_charge
C1    C     C_R   0.501138 0.257968 0.498930 0.875330
C2    C     C_R   0.498714 0.742031 0.501072 0.877239
C3    C     C_R   0.238802 0.584284 0.427015 -0.135499
C4    C     C_R   0.762214 0.471832 0.377947 -0.145158
C5    C     C_R   0.297975 0.587378 0.427495 -0.218129
C6    C     C_R   0.703050 0.476075 0.377371 -0.207567
C7    C     C_R   0.328159 0.496686 0.500502 -0.048971
C8    C     C_R   0.672787 0.492692 0.499917 -0.070112
C9    C     C_R   0.299333 0.402557 0.572919 -0.275491
C10   C     C_R   0.702349 0.500553 0.623647 -0.266483
C11   C     C_R   0.239795 0.401511 0.577699 0.273079
C12   C     C_R   0.761721 0.491543 0.625566 0.269228
C13   C     C_R   0.209457 0.492277 0.502236 0.274864
C14   C     C_R   0.791755 0.480241 0.501175 0.282822
C15   C     C_3   0.536825 0.043655 0.595903 -0.203299
C16   C     C_3   0.462833 0.956365 0.404094 -0.206019
C17   C     C_3   0.552980 0.954124 0.474192 -0.253851
C18   C     C_3   0.446679 0.045941 0.525792 -0.258371
C19   C     C_3   0.498501 0.876858 0.502743 -0.081063
C20   C     C_3   0.501171 0.123163 0.497259 -0.077688
C21   C     C_3   0.482669 0.964990 0.621530 0.295767
C22   C     C_3   0.516986 0.035051 0.378464 0.297450
C23   C     C_R   0.389839 0.499420 0.500260 0.868905
C24   C     C_R   0.610504 0.498695 0.499722 0.882051
C25   C     C_3   0.496212 0.384520 0.047335 -0.199750
C26   C     C_3   0.503994 0.615447 0.952697 -0.200198
C27   C     C_3   0.542282 0.435740 0.950402 0.046584
C28   C     C_3   0.457965 0.564424 0.049466 0.049103
C29   C     C_3   0.453998 0.450516 0.952842 0.049410
C30   C     C_3   0.546156 0.549647 0.047537 0.048005
C31   C     C_R   0.880438 0.590270 0.542943 0.547922
C32   C     C_R   0.120871 0.387594 0.444422 0.546514
C33   C     C_R   0.881741 0.377852 0.450588 0.483565
C34   C     C_R   0.119369 0.593982 0.551624 0.485209
C35   C     C_R   0.941385 0.378431 0.446757 -0.013766
C36   C     C_R   0.059782 0.595759 0.549251 -0.013603
C37   C     C_R   0.970611 0.486864 0.496280 -0.021155
C38   C     C_R   0.030604 0.488548 0.496627 -0.021638
C39   C     C_R   0.940000 0.593668 0.545428 -0.024205
C40   C     C_R   0.061261 0.383059 0.444346 -0.023751
C41   C     C_R   0.972316 0.273419 0.395581 -0.156708
C42   C     C_R   0.028878 0.701496 0.598652 -0.155721
C43   C     C_R   0.031765 0.276082 0.393485 -0.159698
C44   C     C_R   0.969474 0.700832 0.595824 -0.157708
H1    H     H_    0.950740 0.189171 0.356662 0.194508
H2    H     H_    0.050440 0.785130 0.639129 0.194088
H3    H     H_    0.492725 0.287729 0.090904 0.164939
H4    H     H_    0.507424 0.712245 0.909097 0.164667
H5    H     H_    0.054470 0.193804 0.353025 0.193330
H6    H     H_    0.946784 0.783946 0.634268 0.194482
H7    H     H_    0.215552 0.653922 0.368880 0.167054
H8    H     H_    0.785308 0.462765 0.282341 0.161592
H9    H     H_    0.320150 0.661298 0.372748 0.172163
H10   H     H_    0.681160 0.466374 0.281085 0.180092
H11   H     H_    0.323119 0.329570 0.624436 0.157767
H12   H     H_    0.679481 0.512491 0.719233 0.172619
H13   H     H_    0.595685 0.912810 0.451441 0.161831
H14   H     H_    0.403982 0.087347 0.548505 0.150382
H15   H     H_    0.566253 0.082839 0.674308 0.166294
H16   H     H_    0.433392 0.917155 0.325731 0.162640
N1    N     N_R   0.852713 0.482577 0.498629 -0.349385
N2    N     N_R   0.148501 0.490922 0.499799 -0.349649
N3    N     N_3   0.499960 0.500030 0.863290 -0.109408
N4    N     N_3   0.500040 0.499970 0.136710 -0.109218
O1    O     O_R   0.500000 0.313960 0.616610 -0.615380
O2    O     O_R   0.500000 0.686040 0.383390 -0.614124
O3    O     O_R   0.500030 0.313950 0.383350 -0.622916
O4    O     O_R   0.499970 0.686050 0.616650 -0.622186
O5    O     O_R   0.416140 0.499970 0.616650 -0.612217
O6    O     O_R   0.583860 0.500030 0.383350 -0.619925
O7    O     O_R   0.416170 0.499960 0.383400 -0.608038
O8    O     O_R   0.583830 0.500040 0.616600 -0.614554
O9    O     O_2   0.850310 0.693785 0.583833 -0.549370
O10   O     O_2   0.151098 0.290082 0.389088 -0.553537
O11   O     O_2   0.852871 0.273262 0.408142 -0.556658
O12   O     O_2   0.148111 0.693694 0.606465 -0.558400
Zn1   Zn    Zn3+2 0.499980 0.500010 0.655740 0.961433
Zn2   Zn    Zn3+2 0.500020 0.499990 0.344260 0.962053
C45   C     C_1   0.589215 0.360069 0.891672 0.170752
N5    N     N_1   0.626142 0.299838 0.845629 -0.227059
C46   C     C_1   0.411445 0.642546 0.105776 0.193954
N6    N     N_1   0.374839 0.705488 0.148733 -0.236003
C47   C     C_1   0.401706 0.390521 0.902132 0.205016
N7    N     N_1   0.360139 0.342173 0.864956 -0.235039
C48   C     C_1   0.597310 0.612013 0.102355 0.176280
N8    N     N_1   0.637555 0.662497 0.144693 -0.221456
N9    N     N_2   0.210663 0.308441 0.656233 -0.287256
H17   H     H_    0.233127 0.224635 0.666886 0.238641
C49   C     C_3   0.188555 0.355863 0.785228 -0.729116
H18   H     H_    0.164829 0.278602 0.837172 0.246208
H19   H     H_    0.158676 0.436321 0.769751 0.250759
H20   H     H_    0.224201 0.387996 0.851701 0.249530
N10   N     N_2   0.791151 0.496867 0.752012 -0.291297
H21   H     H_    0.769762 0.547011 0.827785 0.235484
C50   C     C_3   0.811234 0.374752 0.798531 -0.745703
H22   H     H_    0.835395 0.388440 0.894618 0.243001
H23   H     H_    0.840198 0.329759 0.721947 0.257651
H24   H     H_    0.774462 0.310298 0.818166 0.247779
N11   N     N_2   0.463391 0.922350 0.753622 -0.305095
H25   H     H_    0.430682 0.856680 0.747302 0.233056
C51   C     C_3   0.451728 0.023686 0.851286 -0.779411
H26   H     H_    0.440392 0.981985 0.951156 0.243986
H27   H     H_    0.415361 0.082616 0.816613 0.247850
H28   H     H_    0.489957 0.085237 0.864966 0.249110
N12   N     N_2   0.536232 0.077848 0.246405 -0.305474
H29   H     H_    0.569031 0.143297 0.252744 0.231607
C52   C     C_3   0.547680 0.976690 0.148408 -0.776449
H30   H     H_    0.558943 0.018569 0.048581 0.242520
H31   H     H_    0.509380 0.915345 0.134819 0.248599
H32   H     H_    0.584032 0.917550 0.182707 0.253169

loop_
_geom_bond_atom_site_label_1
_geom_bond_atom_site_label_2
_ccdc_geom_bond_type
C38   C40   A    
N9    H17   S    
C29   N3    S    
C15   H15   S    
N10   H21   S    
C30   N4    S    
O6    Zn2   S    
C18   C21   S    
C52   H31   S    
C23   O5    A    
C36   C42   A    
C50   H22   S    
C46   N6    T    
C50   H24   S    
C24   O6    A    
C48   N8    T    
N12   C52   S    
C51   H26   S    
C4    H8    S    
C5    H9    S    
C28   C29   S    
C35   C37   A    
C29   C47   S    
C27   C45   S    
C42   H2    S    
C21   N11   S    
C31   O9    S    
C34   N2    A    
C15   C17   S    
C16   H16   S    
C31   N1    A    
O8    Zn1   S    
C8    C24   S    
O5    Zn1   S    
C33   O11   S    
C40   C43   A    
C13   N2    S    
N11   H25   S    
C11   N9    S    
C1    O1    A    
C52   H30   S    
C9    H11   S    
C49   H19   S    
C10   H12   S    
C25   H3    S    
C18   C20   S    
C3    C13   A    
C26   H4    S    
C2    C19   S    
C51   H27   S    
C27   C30   S    
C41   C43   A    
O3    Zn2   S    
C42   C44   A    
C6    H10   S    
C10   C12   A    
C26   C28   S    
C18   H14   S    
C25   C29   S    
C15   C20   S    
O2    Zn2   S    
O1    Zn1   S    
C23   O7    A    
C4    C6    A    
C5    C7    A    
C3    H7    S    
C43   H5    S    
C6    C8    A    
C3    C5    A    
C14   N1    S    
C49   H20   S    
C25   N4    S    
C26   N3    S    
C37   C38   A    
C47   N7    T    
C16   C18   S    
C30   C48   S    
C9    C11   A    
C27   N3    S    
C28   N4    S    
C33   N1    A    
N11   C51   S    
C12   C14   A    
C26   C30   S    
C51   H28   S    
N9    C49   S    
C52   H32   S    
C12   N10   S    
C17   C19   S    
C24   O8    A    
N3    Zn1   S    
C44   H6    S    
O4    Zn1   S    
C7    C9    A    
C1    C20   S    
C16   C22   S    
C19   C21   S    
C28   C46   S    
N4    Zn2   S    
C20   C22   S    
C2    O2    A    
C50   H23   S    
C39   C44   A    
C25   C27   S    
C22   N12   S    
N12   H29   S    
C2    O4    A    
C17   C22   S    
C36   C38   A    
C32   N2    A    
C37   C39   A    
C32   O10   S    
C11   C13   A    
C33   C35   A    
N10   C50   S    
C16   C19   S    
C7    C23   S    
C1    O3    A    
C31   C39   A    
C34   C36   A    
C32   C40   A    
C4    C14   A    
C35   C41   A    
C45   N5    T    
C15   C21   S    
C8    C10   A    
C34   O12   S    
C41   H1    S    
C49   H18   S    
O7    Zn2   S    
C17   H13   S    
