data_mof_unit_24878.cif
_audit_creation_date              2012-12-10T18:46:18-0500
_audit_creation_method            fapswitch 2.2
_symmetry_space_group_name_H-M    P1
_symmetry_Int_Tables_number       1
_space_group_crystal_system       triclinic
_cell_length_a                    9.879141
_cell_length_b                    10.687761
_cell_length_c                    13.201455
_cell_angle_alpha                 90.589389
_cell_angle_beta                  71.774702
_cell_angle_gamma                 90.472978
_cell_volume                      1323.87312198

loop_
_atom_site_label
_atom_site_type_symbol
_atom_type_description
_atom_site_fract_x
_atom_site_fract_y
_atom_site_fract_z
_atom_type_partial_charge
C1    C     C_R   0.501368 0.739957 0.498168 0.874048
C2    C     C_R   0.382504 0.557194 0.815156 -0.144938
C3    C     C_R   0.631531 0.937034 0.446352 0.457674
C4    C     C_R   0.423872 0.517224 0.702139 0.872113
C5    C     C_R   0.628839 0.066426 0.448111 -0.286573
C6    C     C_R   0.500472 0.127952 0.496313 -0.061106
C7    C     C_R   0.373390 0.063322 0.541919 -0.127677
C8    C     C_R   0.374985 0.935251 0.541726 -0.260550
C9    C     C_R   0.503440 0.872641 0.495164 -0.068310
C10   C     C_R   0.948333 0.408523 0.447840 -0.111268
C11   C     C_R   0.092399 0.409535 0.445911 0.456242
C12   C     C_R   0.445807 0.577496 0.979410 0.126401
C13   C     C_R   0.051715 0.592781 0.550646 -0.138169
C14   C     C_R   0.909232 0.594209 0.548475 -0.065176
C15   C     C_R   0.499850 0.260193 0.499198 0.926034
C16   C     C_R   0.577537 0.503513 0.297233 0.918644
C17   C     C_R   0.787606 0.471714 0.009413 0.376161
C18   C     C_R   0.622802 0.518398 0.183074 -0.222038
C19   C     C_R   0.238077 0.566323 0.874205 -0.134385
C20   C     C_R   0.196771 0.578715 0.984727 -0.121648
C21   C     C_R   0.298733 0.577456 0.037543 -0.101575
C22   C     C_R   0.486703 0.578707 0.867190 0.074619
C23   C     C_R   0.554473 0.562674 0.027640 -0.001397
C24   C     C_R   0.693477 0.528181 0.963243 0.007838
C25   C     C_R   0.734808 0.556080 0.855256 -0.155187
C26   C     C_R   0.632649 0.595019 0.811120 -0.186965
C27   C     C_R   0.530608 0.577967 0.136599 0.385559
C28   C     C_R   0.749464 0.463601 0.119735 -0.285812
Cl1   Cl    Cl    0.205606 0.295695 0.367556 -0.592754
Cl2   Cl    Cl    0.940001 0.391080 0.931936 -0.657240
H1    H     H_    0.817642 0.413980 0.155879 0.205300
H2    H     H_    0.259571 0.570483 0.123263 0.213217
H3    H     H_    0.084719 0.581503 0.030276 0.180763
H4    H     H_    0.668581 0.632785 0.732171 0.165540
H5    H     H_    0.454763 0.697403 0.252355 0.346419
H6    H     H_    0.834389 0.932935 0.366587 0.341190
H7    H     H_    0.725858 0.118914 0.411088 0.154461
H8    H     H_    0.274055 0.111715 0.579468 0.183895
H9    H     H_    0.276445 0.885209 0.579441 0.172462
H10   H     H_    0.910349 0.335995 0.405535 0.157211
H11   H     H_    0.089550 0.667233 0.591145 0.143546
H12   H     H_    0.841929 0.672177 0.584125 0.140042
H13   H     H_    0.845254 0.551565 0.805856 0.181583
H14   H     H_    0.157089 0.559831 0.835015 0.198250
N1    N     N_R   0.142790 0.500030 0.500030 -0.106377
N2    N     N_R   0.857180 0.499940 0.500010 -0.099638
O1    O     O_R   0.385370 0.683250 0.500010 -0.648023
O2    O     O_3   0.755597 0.872429 0.396294 -0.749906
O3    O     O_R   0.614700 0.683220 0.500010 -0.575233
O4    O     O_R   0.328400 0.499990 0.653620 -0.611347
O5    O     O_R   0.557730 0.499960 0.653620 -0.618947
O6    O     O_R   0.385300 0.316780 0.499990 -0.566594
O7    O     O_R   0.614630 0.316750 0.499990 -0.630413
O8    O     O_R   0.442270 0.500040 0.346380 -0.553089
O9    O     O_R   0.671600 0.500010 0.346380 -0.613693
O10   O     O_3   0.425365 0.659149 0.193724 -0.760677
Zn1   Zn    Zn3+2 0.346870 0.500020 0.500000 1.015918
Zn2   Zn    Zn3+2 0.653130 0.499980 0.500000 0.981575

loop_
_geom_bond_atom_site_label_1
_geom_bond_atom_site_label_2
_ccdc_geom_bond_type
C10   N2    A    
C2    C4    S    
C23   C24   A    
C24   C25   A    
C2    C22   A    
C6    C7    A    
C3    C9    A    
C8    H9    S    
C5    H7    S    
O1    Zn1   S    
C19   C20   A    
O7    Zn2   S    
C14   H12   S    
C25   H13   S    
C13   H11   S    
C2    C19   A    
C16   O9    A    
C1    C9    S    
C7    C8    A    
C14   N2    A    
O5    Zn2   S    
C15   O6    A    
N2    Zn2   S    
C13   N1    A    
C17   Cl2   S    
O4    Zn1   S    
C12   C23   A    
N1    Zn1   S    
C20   C21   A    
C20   H3    S    
C15   O7    A    
C16   C18   S    
C25   C26   A    
C7    H8    S    
H6    O2    S    
C23   C27   A    
C5    C6    A    
C21   H2    S    
C16   O8    A    
C11   N1    A    
C17   C24   A    
C10   C11   A    
O3    Zn2   S    
C4    O5    A    
O6    Zn1   S    
C12   C22   A    
C3    O2    S    
C18   C28   A    
C19   H14   S    
C11   Cl1   S    
C10   H10   S    
C22   C26   A    
O9    Zn2   S    
C27   O10   S    
C1    O1    A    
H5    O10   S    
C6    C15   S    
C13   C14   A    
C17   C28   A    
C1    O3    A    
C12   C21   A    
C26   H4    S    
C28   H1    S    
C18   C27   A    
C4    O4    A    
C8    C9    A    
C3    C5    A    
O8    Zn1   S    
