data_mof_unit_54901.cif
_audit_creation_date              2012-12-10T18:18:23-0500
_audit_creation_method            fapswitch 2.2
_symmetry_space_group_name_H-M    P1
_symmetry_Int_Tables_number       1
_space_group_crystal_system       triclinic
_cell_length_a                    14.253715
_cell_length_b                    14.960602
_cell_length_c                    15.425468
_cell_angle_alpha                 86.607962
_cell_angle_beta                  66.190707
_cell_angle_gamma                 90.078515
_cell_volume                      3003.02340797

loop_
_atom_site_label
_atom_site_type_symbol
_atom_type_description
_atom_site_fract_x
_atom_site_fract_y
_atom_site_fract_z
_atom_type_partial_charge
C1    C     C_R   0.498900 0.672409 0.502647 0.883980
C2    C     C_R   0.501099 0.327591 0.497354 0.883985
C3    C     C_R   0.381768 0.480190 0.110227 -0.264909
C4    C     C_R   0.618231 0.519810 0.889773 -0.264904
C5    C     C_R   0.308040 0.469030 0.074268 -0.140763
C6    C     C_R   0.691959 0.530970 0.925733 -0.140763
C7    C     C_R   0.420535 0.184194 0.560979 -0.311887
C8    C     C_R   0.579467 0.815806 0.439033 -0.311880
C9    C     C_R   0.502739 0.232488 0.492338 -0.064770
C10   C     C_R   0.497260 0.767511 0.507669 -0.064768
C11   C     C_R   0.584078 0.190567 0.422233 0.146845
C12   C     C_R   0.415924 0.809432 0.577778 0.146845
C13   C     C_R   0.584438 0.096360 0.427241 0.071522
C14   C     C_R   0.415569 0.903639 0.572778 0.071525
C15   C     C_R   0.500412 0.046940 0.498022 -0.021620
C16   C     C_R   0.499595 0.953060 0.501997 -0.021622
C17   C     C_R   0.417106 0.091417 0.564628 0.115771
C18   C     C_R   0.582902 0.908582 0.435393 0.115771
C19   C     C_R   0.666940 0.050649 0.363055 -0.213798
C20   C     C_R   0.333073 0.949350 0.636973 -0.213799
C21   C     C_R   0.667230 0.957606 0.366088 0.193183
C22   C     C_R   0.332785 0.042393 0.633942 0.193174
C23   C     C_R   0.434427 0.502184 0.676710 0.915569
C24   C     C_R   0.565573 0.497816 0.323290 0.915570
C25   C     C_R   0.176930 0.435707 0.554715 0.208443
C26   C     C_R   0.823070 0.564292 0.445284 0.208441
C27   C     C_R   0.224484 0.564704 0.445382 0.237367
C28   C     C_R   0.775518 0.435291 0.554612 0.237365
C29   C     C_R   0.123350 0.567331 0.447504 0.008705
C30   C     C_R   0.876653 0.432664 0.552489 0.008708
C31   C     C_R   0.050400 0.499986 0.499952 0.029408
C32   C     C_R   0.949601 0.500012 0.500045 0.029408
C33   C     C_R   0.077791 0.432679 0.552370 0.021454
C34   C     C_R   0.922210 0.567318 0.447626 0.021452
C35   C     C_R   0.093268 0.635733 0.397683 -0.193993
C36   C     C_R   0.906738 0.364258 0.602304 -0.193994
C37   C     C_R   0.995451 0.635788 0.397897 -0.187091
C38   C     C_R   0.004553 0.364206 0.602093 -0.187093
C39   C     C_R   0.390210 0.506826 0.780716 -0.241137
C40   C     C_R   0.609790 0.493174 0.219284 -0.241136
C41   C     C_R   0.261472 0.462229 0.939283 0.424159
C42   C     C_R   0.738528 0.537772 0.060718 0.424160
C43   C     C_R   0.290753 0.472310 0.840150 0.270323
C44   C     C_R   0.709246 0.527690 0.159850 0.270324
C45   C     C_R   0.453684 0.539875 0.821861 0.077105
C46   C     C_R   0.546316 0.460125 0.178139 0.077105
C47   C     C_R   0.435290 0.509821 0.915654 -0.007072
C48   C     C_R   0.564709 0.490180 0.084347 -0.007072
C49   C     C_R   0.334687 0.479180 0.976473 -0.002410
C50   C     C_R   0.665312 0.520821 0.023527 -0.002410
C51   C     C_R   0.513466 0.508824 0.950760 0.118224
C52   C     C_R   0.486533 0.491177 0.049240 0.118225
H1    H     H_    0.229647 0.453837 0.123809 0.204498
H2    H     H_    0.770352 0.546163 0.876191 0.204498
H3    H     H_    0.144379 0.690955 0.357872 0.156820
H4    H     H_    0.855631 0.309031 0.642105 0.156821
H5    H     H_    0.978423 0.691057 0.358671 0.155441
H6    H     H_    0.021583 0.308935 0.641315 0.155440
H7    H     H_    0.355256 0.479471 0.186337 0.176456
H8    H     H_    0.644744 0.520529 0.813663 0.176459
H9    H     H_    0.359995 0.220560 0.612622 0.172445
H10   H     H_    0.640005 0.779442 0.387387 0.172446
H11   H     H_    0.732732 0.086853 0.310027 0.167018
H12   H     H_    0.267285 0.913146 0.690007 0.167016
N1    N     N_R   0.249980 0.499930 0.499960 -0.106664
N2    N     N_R   0.750020 0.500070 0.500040 -0.106664
O1    O     O_R   0.419720 0.632140 0.499980 -0.616438
O2    O     O_R   0.580280 0.367860 0.500020 -0.616430
O3    O     O_R   0.580270 0.632160 0.499970 -0.622235
O4    O     O_R   0.419730 0.367840 0.500030 -0.622236
O5    O     O_R   0.373870 0.499980 0.632250 -0.623474
O6    O     O_R   0.626130 0.500020 0.367750 -0.623471
O7    O     O_R   0.534420 0.500000 0.632240 -0.611312
O8    O     O_R   0.465580 0.500000 0.367760 -0.611310
Zn1   Zn    Zn3+2 0.392800 0.499980 0.500010 0.926983
Zn2   Zn    Zn3+2 0.607200 0.500020 0.499990 0.926984
C53   C     C_3   0.199381 0.368276 0.619889 -0.805691
H13   H     H_    0.268680 0.384535 0.629867 0.305710
H14   H     H_    0.136972 0.366803 0.692225 0.237299
H15   H     H_    0.206433 0.300756 0.591986 0.210088
C54   C     C_3   0.800621 0.631721 0.380108 -0.805682
H16   H     H_    0.731317 0.615466 0.370135 0.305709
H17   H     H_    0.793578 0.699244 0.408006 0.210082
H18   H     H_    0.863026 0.633187 0.307771 0.237303
C55   C     C_3   0.301917 0.634659 0.380783 -0.819351
H19   H     H_    0.279077 0.702075 0.407356 0.217900
H20   H     H_    0.380571 0.626373 0.372377 0.288926
H21   H     H_    0.305477 0.632959 0.307619 0.201127
C56   C     C_3   0.698090 0.365328 0.619200 -0.819355
H22   H     H_    0.720920 0.297920 0.592603 0.217920
H23   H     H_    0.694541 0.367001 0.692360 0.201116
H24   H     H_    0.619432 0.373627 0.627627 0.288918
C57   C     C_3   0.478066 0.377962 0.226147 -0.837820
H25   H     H_    0.405136 0.395803 0.284045 0.257717
H26   H     H_    0.460527 0.340203 0.174403 0.241018
H27   H     H_    0.518516 0.331157 0.257068 0.231987
C58   C     C_3   0.521933 0.622038 0.773853 -0.837821
H28   H     H_    0.539472 0.659797 0.825597 0.241018
H29   H     H_    0.594863 0.604197 0.715955 0.257716
H30   H     H_    0.481484 0.668843 0.742932 0.231989
O9    O     O_3   0.778591 0.551601 0.196252 -0.786157
H31   H     H_    0.784605 0.498882 0.235505 0.356181
O10   O     O_3   0.221409 0.448400 0.803748 -0.786154
H32   H     H_    0.215395 0.501119 0.764494 0.356181
O11   O     O_3   0.163733 0.432864 0.000982 -0.771264
H33   H     H_    0.119541 0.426932 0.965859 0.385849
O12   O     O_3   0.836266 0.567138 0.999018 -0.771264
H34   H     H_    0.880457 0.573072 0.034141 0.385849
C59   C     C_3   0.667142 0.244986 0.340894 -0.912988
H35   H     H_    0.673802 0.220825 0.272003 0.232662
H36   H     H_    0.651131 0.317088 0.337294 0.245503
H37   H     H_    0.741675 0.238376 0.347330 0.249593
C60   C     C_3   0.332860 0.755011 0.659115 -0.912997
H38   H     H_    0.326211 0.779161 0.728008 0.232660
H39   H     H_    0.258323 0.761633 0.652686 0.249596
H40   H     H_    0.348863 0.682906 0.662704 0.245511
C61   C     C_3   0.758493 0.912617 0.294892 -0.913210
H41   H     H_    0.817879 0.961868 0.247034 0.242257
H42   H     H_    0.794873 0.869038 0.332654 0.240634
H43   H     H_    0.733467 0.871821 0.249826 0.249858
C62   C     C_3   0.241533 0.087382 0.705154 -0.913171
H44   H     H_    0.182161 0.038129 0.753031 0.242252
H45   H     H_    0.266580 0.128188 0.750202 0.249852
H46   H     H_    0.205129 0.130953 0.667407 0.240632

loop_
_geom_bond_atom_site_label_1
_geom_bond_atom_site_label_2
_ccdc_geom_bond_type
O5    Zn1   S    
C57   H25   S    
C11   C59   S    
C34   C37   A    
O6    Zn2   S    
C54   H18   S    
C58   H28   S    
C47   C49   A    
C53   H13   S    
C40   C46   A    
O9    H31   S    
C41   O11   S    
C25   C53   S    
C5    H1    S    
C35   C37   A    
C23   O7    A    
C12   C60   S    
C2    O2    A    
C59   H36   S    
C53   H15   S    
C27   C29   A    
C15   C16   A    
C18   C21   A    
O3    Zn2   S    
C15   C17   A    
C45   C47   A    
C27   C55   S    
C7    H9    S    
C62   H46   S    
C21   C61   S    
C58   H29   S    
C38   H6    S    
C26   C34   A    
C19   H11   S    
C7    C17   A    
O12   H34   S    
C31   C33   A    
C28   C56   S    
C56   H23   S    
C42   O12   S    
C39   C45   A    
C60   H40   S    
C48   C50   A    
C57   H26   S    
C1    O3    A    
C41   C43   A    
C5    C49   A    
C42   C44   A    
C6    H2    S    
C41   C49   A    
C54   H17   S    
C54   H16   S    
C53   H14   S    
C46   C48   A    
O8    Zn1   S    
C13   C19   A    
C4    C51   A    
C35   H3    S    
C51   C52   A    
C26   N2    A    
C14   C20   A    
C25   N1    A    
C4    C6    A    
C59   H37   S    
C39   C43   A    
C55   H19   S    
C8    C18   A    
C32   C34   A    
C20   H12   S    
C28   N2    A    
C27   N1    A    
C23   O5    A    
C31   C32   A    
C40   C44   A    
C3    C52   A    
N2    Zn2   S    
C4    H8    S    
O2    Zn2   S    
C6    C50   A    
C56   H24   S    
C9    C11   A    
C62   H44   S    
C10   C12   A    
C42   C50   A    
C16   C18   A    
C12   C14   A    
C57   H27   S    
C13   C15   A    
O7    Zn2   S    
C14   C16   A    
C61   H43   S    
O1    Zn1   S    
O4    Zn1   S    
C58   H30   S    
C24   O6    A    
C22   C62   S    
C60   H38   S    
C55   H21   S    
C7    C9    A    
C24   C40   S    
C19   C21   A    
C1    C10   S    
C33   C38   A    
C20   C22   A    
C3    C5    A    
C47   C51   A    
C44   O9    S    
C26   C54   S    
O11   H33   S    
C29   C35   A    
C17   C22   A    
N1    Zn1   S    
C30   C36   A    
C61   H42   S    
C28   C30   A    
C29   C31   A    
C45   C58   S    
C61   H41   S    
C30   C32   A    
C11   C13   A    
C24   O8    A    
C46   C57   S    
C23   C39   S    
C36   C38   A    
C36   H4    S    
C1    O1    A    
C43   O10   S    
C62   H45   S    
C25   C33   A    
C55   H20   S    
C48   C52   A    
C8    C10   A    
C59   H35   S    
O10   H32   S    
C56   H22   S    
C2    O4    A    
C2    C9    S    
C37   H5    S    
C8    H10   S    
C60   H39   S    
C3    H7    S    
