data_mof_unit_56047.cif
_audit_creation_date              2012-12-10T17:24:47-0500
_audit_creation_method            fapswitch 2.2
_symmetry_space_group_name_H-M    P1
_symmetry_Int_Tables_number       1
_space_group_crystal_system       triclinic
_cell_length_a                    23.553197
_cell_length_b                    10.806812
_cell_length_c                    9.643932
_cell_angle_alpha                 90.978033
_cell_angle_beta                  89.822439
_cell_angle_gamma                 95.043243
_cell_volume                      2444.85546715

loop_
_atom_site_label
_atom_site_type_symbol
_atom_type_description
_atom_site_fract_x
_atom_site_fract_y
_atom_site_fract_z
_atom_type_partial_charge
Br1   Br    Br    0.618341 0.182833 0.473704 -0.459600
Br2   Br    Br    0.374644 0.222363 0.365776 -0.472046
Br3   Br    Br    0.638761 0.934474 0.136720 -0.425075
Br4   Br    Br    0.411703 0.298839 0.838019 -0.398412
C1    C     C_R   0.496720 0.262109 0.498422 0.923584
C2    C     C_R   0.114241 0.393975 0.533572 0.588019
C3    C     C_R   0.237997 0.514405 0.626043 -0.139160
C4    C     C_R   0.390925 0.504000 0.500354 0.878669
C5    C     C_R   0.297174 0.521596 0.626862 0.306726
C6    C     C_R   0.327699 0.509446 0.500470 -0.271510
C7    C     C_R   0.296793 0.498546 0.373451 0.376646
C8    C     C_R   0.236551 0.494133 0.374585 0.371400
C9    C     C_R   0.207605 0.501917 0.502421 0.115196
C10   C     C_R   0.761806 0.508932 0.377831 -0.074003
C11   C     C_R   0.702557 0.508462 0.375969 -0.169399
C12   C     C_R   0.978480 0.723306 0.464792 -0.138101
C13   C     C_R   0.671506 0.503340 0.500813 -0.018594
C14   C     C_R   0.700792 0.498807 0.627244 -0.173070
C15   C     C_R   0.759898 0.498564 0.628679 -0.092424
C16   C     C_R   0.500732 0.737121 0.501579 0.885856
C17   C     C_R   0.790529 0.503597 0.504170 0.347162
C18   C     C_R   0.388466 0.094576 0.493372 0.128800
C19   C     C_R   0.339720 0.020712 0.539295 0.489833
C20   C     C_R   0.344534 0.897598 0.572886 -0.122324
C21   C     C_R   0.396492 0.847265 0.559391 -0.244685
C22   C     C_R   0.446367 0.922106 0.524249 -0.008449
C23   C     C_R   0.037615 0.723460 0.464971 -0.140672
C24   C     C_R   0.443507 0.050299 0.503826 -0.023697
C25   C     C_R   0.495593 0.127148 0.492729 -0.154313
C26   C     C_R   0.548458 0.075106 0.486827 0.142185
C27   C     C_R   0.549872 0.945331 0.490543 0.391370
C28   C     C_R   0.608924 0.501626 0.499999 0.864156
C29   C     C_R   0.498806 0.870645 0.506500 -0.126763
C30   C     C_R   0.573936 0.689442 0.136270 0.379229
C31   C     C_R   0.599408 0.787236 0.055870 0.203288
C32   C     C_R   0.599047 0.777746 0.914496 -0.272033
C33   C     C_R   0.570805 0.676048 0.850931 -0.183191
C34   C     C_R   0.063321 0.613439 0.488574 -0.012434
C35   C     C_R   0.535246 0.587849 0.924232 0.087671
C36   C     C_R   0.535667 0.590828 0.073944 0.100084
C37   C     C_R   0.465969 0.417586 0.073457 -0.022983
C38   C     C_R   0.465346 0.417933 0.926589 0.365350
C39   C     C_R   0.874651 0.393568 0.530592 0.553253
C40   C     C_R   0.884308 0.611373 0.486359 0.544349
C41   C     C_R   0.943789 0.613185 0.488521 0.000423
C42   C     C_R   0.968971 0.502175 0.514804 -0.054964
C43   C     C_R   0.934388 0.391076 0.540677 -0.132344
C44   C     C_R   0.028968 0.502534 0.514003 -0.018660
C45   C     C_R   0.054586 0.391976 0.537336 -0.117378
C46   C     C_R   0.020311 0.282563 0.565095 -0.138304
C47   C     C_R   0.961042 0.281599 0.571453 0.416557
C48   C     C_R   0.122754 0.611143 0.486614 0.559806
Cu1   Cu    Cu3+1 0.500000 0.499990 0.640660 1.011012
Cu2   Cu    Cu3+1 0.500000 0.500010 0.359340 1.063296
H1    H     H_    0.960055 0.809691 0.445187 0.206989
H2    H     H_    0.577815 0.672979 0.742734 0.233832
H3    H     H_    0.039474 0.197294 0.586209 0.211787
H4    H     H_    0.215181 0.522575 0.723064 0.202132
H5    H     H_    0.785414 0.512683 0.281253 0.145703
H6    H     H_    0.290208 0.155215 0.545082 0.367109
H7    H     H_    0.632972 0.948089 0.469360 0.391267
H8    H     H_    0.630381 0.724694 0.280999 0.346283
H9    H     H_    0.903929 0.194256 0.683648 0.360578
H10   H     H_    0.352728 0.611933 0.743348 0.333752
H11   H     H_    0.300036 0.484442 0.169836 0.395769
H12   H     H_    0.681167 0.511837 0.277052 0.166965
H13   H     H_    0.165991 0.472227 0.265808 0.347238
H14   H     H_    0.678101 0.494815 0.725133 0.167928
H15   H     H_    0.782015 0.494600 0.726564 0.141843
H16   H     H_    0.307166 0.838852 0.603896 0.182535
H17   H     H_    0.397454 0.749873 0.580018 0.126204
H18   H     H_    0.437984 0.350277 0.128040 0.208557
H19   H     H_    0.063070 0.809873 0.445600 0.203557
H20   H     H_    0.622315 0.848212 0.852784 0.220521
N1    N     N_R   0.851296 0.502790 0.506559 -0.474338
N2    N     N_R   0.146796 0.502309 0.507856 -0.460990
N3    N     N_R   0.500540 0.501210 0.147910 -0.202064
N4    N     N_R   0.500560 0.501290 0.852040 -0.214781
O1    O     O_R   0.500000 0.319640 0.618810 -0.538830
O2    O     O_R   0.582120 0.500020 0.618760 -0.615278
O3    O     O_R   0.582120 0.500050 0.381190 -0.523883
O4    O     O_2   0.839950 0.287982 0.540599 -0.475059
O5    O     O_3   0.286186 0.063212 0.544736 -0.654473
O6    O     O_3   0.599943 0.887211 0.484408 -0.718726
O7    O     O_3   0.590108 0.690314 0.271606 -0.661322
O8    O     O_3   0.931108 0.172571 0.610392 -0.664438
O9    O     O_3   0.323385 0.541273 0.753610 -0.647826
O10   O     O_3   0.326439 0.491555 0.249681 -0.655180
O11   O     O_3   0.207615 0.481699 0.249678 -0.702480
O12   O     O_2   0.859498 0.717170 0.463982 -0.503501
O13   O     O_2   0.156334 0.716437 0.463045 -0.496584
O14   O     O_2   0.139584 0.288675 0.554790 -0.491042
O15   O     O_R   0.500000 0.319660 0.381240 -0.549596
O16   O     O_R   0.417880 0.499950 0.618810 -0.554041
O17   O     O_R   0.417880 0.499980 0.381240 -0.504866
O18   O     O_R   0.500000 0.680340 0.618760 -0.625705
O19   O     O_R   0.500000 0.680360 0.381190 -0.514878

loop_
_geom_bond_atom_site_label_1
_geom_bond_atom_site_label_2
_ccdc_geom_bond_type
C37   C38   A    
C31   C32   A    
C20   H16   S    
Cu1   Cu2   S    
C10   H5    S    
C19   O5    S    
C30   C36   A    
C10   C17   A    
C32   C33   A    
Cu1   O1    S    
C14   C15   A    
C37   N3    A    
C26   C27   A    
H6    O5    S    
C34   C48   A    
C23   C34   A    
C14   H14   S    
H13   O11   S    
C3    C5    A    
C30   C31   A    
Cu2   O15   S    
C33   H2    S    
C16   O19   A    
Br2   C18   S    
C19   C20   A    
C27   C29   A    
Cu2   O19   S    
C21   H17   S    
C1    O1    A    
C5    C6    A    
H10   O9    S    
C34   C44   A    
Cu2   N3    S    
C12   C23   A    
C16   O18   A    
C18   C24   A    
Cu1   O18   S    
C4    O17   A    
C47   O8    S    
C46   C47   A    
C1    C25   S    
C39   N1    A    
H8    O7    S    
C42   C44   A    
C35   N4    A    
C8    O11   S    
Cu1   O2    S    
C4    O16   A    
C20   C21   A    
C35   C36   A    
C43   C47   A    
C21   C22   A    
C41   C42   A    
C11   H12   S    
C27   O6    S    
C30   O7    S    
C40   N1    A    
C25   C26   A    
C28   O3    A    
C28   O2    A    
C22   C29   A    
C10   C11   A    
C9    N2    S    
Br3   C31   S    
C7    O10   S    
C13   C14   A    
Cu2   O17   S    
C32   H20   S    
C37   H18   S    
C16   C29   S    
C44   C45   A    
C38   N4    A    
H9    O8    S    
C15   H15   S    
C40   O12   S    
C40   C41   A    
H11   O10   S    
C11   C13   A    
C42   C43   A    
C24   C25   A    
C3    H4    S    
C15   C17   A    
Cu1   O16   S    
C36   N3    A    
C46   H3    S    
C48   N2    A    
H7    O6    S    
C12   C41   A    
C1    O15   A    
C7    C8    A    
C2    N2    A    
C17   N1    S    
C22   C24   A    
Cu1   N4    S    
C12   H1    S    
C33   C35   A    
C5    O9    S    
Br4   C38   S    
C2    O14   S    
Br1   C26   S    
C2    C45   A    
C6    C7    A    
C3    C9    A    
C8    C9    A    
C4    C6    S    
C45   C46   A    
C13   C28   S    
C18   C19   A    
C48   O13   S    
C23   H19   S    
C39   C43   A    
Cu2   O3    S    
C39   O4    S    
