data_mof_unit_31601.cif
_audit_creation_date              2012-10-26T19:42:15-0400
_audit_creation_method            fapswitch 2.2
_symmetry_space_group_name_H-M    P1
_symmetry_Int_Tables_number       1
_space_group_crystal_system       triclinic
_cell_length_a                    9.595758
_cell_length_b                    10.810527
_cell_length_c                    17.314436
_cell_angle_alpha                 93.642064
_cell_angle_beta                  86.219241
_cell_angle_gamma                 90.7037
_cell_volume                      1788.52887326

loop_
_atom_site_label
_atom_site_type_symbol
_atom_type_description
_atom_site_fract_x
_atom_site_fract_y
_atom_site_fract_z
_atom_type_partial_charge
C1    C     C_R   0.500474 0.737771 0.504267 0.590049
C2    C     C_R   0.525778 0.477437 0.265504 -0.007597
C3    C     C_R   0.353434 0.888329 0.635732 0.145940
C4    C     C_R   0.482013 0.495693 0.649629 0.553144
C5    C     C_R   0.258049 0.957396 0.685204 -0.110262
C6    C     C_R   0.239805 0.082434 0.675855 -0.151005
C7    C     C_R   0.318953 0.140605 0.618368 -0.116367
C8    C     C_R   0.409507 0.071888 0.564203 -0.000469
C9    C     C_R   0.420007 0.942126 0.569865 0.048651
C10   C     C_R   0.503055 0.872589 0.511796 0.008468
C11   C     C_R   0.587128 0.932366 0.456562 -0.163641
C12   C     C_R   0.343601 0.490936 0.776294 -0.145213
C13   C     C_R   0.585527 0.059801 0.455198 -0.154470
C14   C     C_R   0.495584 0.129576 0.507002 0.006797
C15   C     C_R   0.866283 0.334311 0.395723 -0.087508
C16   C     C_R   0.498746 0.262817 0.501793 0.526382
C17   C     C_R   0.943695 0.253025 0.344994 -0.173967
C18   C     C_R   0.087331 0.252445 0.345516 -0.175108
C19   C     C_R   0.154444 0.333288 0.396693 -0.091447
C20   C     C_R   0.079834 0.418106 0.449104 0.156317
C21   C     C_R   0.930272 0.418407 0.448879 0.159899
C22   C     C_R   0.921376 0.577699 0.548695 -0.007123
C23   C     C_R   0.411277 0.416988 0.147809 0.112455
C24   C     C_R   0.069335 0.577739 0.548632 -0.005473
C25   C     C_R   0.517875 0.495607 0.350080 0.532844
C26   C     C_R   0.473513 0.490220 0.734018 0.010922
C27   C     C_R   0.596723 0.486521 0.773137 -0.138257
C28   C     C_R   0.590406 0.483758 0.853240 -0.114996
C29   C     C_R   0.460534 0.483406 0.895470 0.036092
C30   C     C_R   0.337385 0.488467 0.856726 -0.116710
C31   C     C_3   0.530711 0.789832 0.701958 -0.300233
C32   C     C_R   0.405707 0.439859 0.228008 -0.128068
C33   C     C_R   0.653168 0.489725 0.222098 -0.146402
C34   C     C_R   0.658999 0.469201 0.141767 -0.149527
C35   C     C_R   0.537961 0.436037 0.104143 0.077082
C36   C     C_2   0.450840 0.482541 0.980210 -0.108507
C37   C     C_2   0.546156 0.427265 0.019224 -0.103027
Cu1   Cu    Cu3+1 0.359340 0.500010 0.500010 0.924860
Cu2   Cu    Cu3+1 0.640660 0.499990 0.499990 0.922667
H1    H     H_    0.698421 0.487273 0.742055 0.123810
H2    H     H_    0.891520 0.189903 0.305007 0.115959
H3    H     H_    0.307359 0.425939 0.260766 0.124604
H4    H     H_    0.147540 0.189006 0.305870 0.117125
H5    H     H_    0.264897 0.325702 0.392417 0.180272
H6    H     H_    0.120763 0.641495 0.588476 0.115725
H7    H     H_    0.747661 0.516444 0.250039 0.135259
H8    H     H_    0.636678 0.382508 0.989178 0.104465
H9    H     H_    0.236456 0.489598 0.888743 0.103525
H10   H     H_    0.247102 0.494340 0.747419 0.115044
H11   H     H_    0.362262 0.528968 0.011341 0.144339
H12   H     H_    0.757309 0.482387 0.108675 0.103542
H13   H     H_    0.687361 0.484761 0.881831 0.097073
H14   H     H_    0.326663 0.725320 0.691099 0.242712
H15   H     H_    0.513359 0.760074 0.762124 0.132262
H16   H     H_    0.569900 0.887272 0.705407 0.143171
H17   H     H_    0.613370 0.731833 0.670746 0.165121
H18   H     H_    0.259043 0.287970 0.135329 0.227921
H19   H     H_    0.209073 0.434916 0.124888 0.217952
H20   H     H_    0.652605 0.879701 0.413172 0.129303
H21   H     H_    0.205853 0.916248 0.734822 0.103275
H22   H     H_    0.170289 0.136297 0.716383 0.116750
H23   H     H_    0.308921 0.239801 0.618489 0.159100
H24   H     H_    0.651754 0.104066 0.411711 0.113572
H25   H     H_    0.862254 0.641373 0.588593 0.104984
H26   H     H_    0.756834 0.327033 0.390640 0.177677
N1    N     N_R   0.852190 0.498790 0.499250 -0.244322
N2    N     N_R   0.148060 0.498710 0.499220 -0.246614
N3    N     N_2   0.402516 0.775978 0.661772 -0.501685
N4    N     N_3   0.289477 0.371207 0.111280 -0.644754
O1    O     O_R   0.381190 0.680360 0.500010 -0.475758
O2    O     O_R   0.618760 0.680340 0.500000 -0.502308
O3    O     O_R   0.367440 0.500030 0.613600 -0.510804
O4    O     O_R   0.605010 0.500010 0.613590 -0.509151
O5    O     O_R   0.381240 0.319660 0.500000 -0.534693
O6    O     O_R   0.618810 0.319640 0.499990 -0.515230
O7    O     O_R   0.394990 0.499990 0.386410 -0.522264
O8    O     O_R   0.632560 0.499970 0.386400 -0.524149

loop_
_geom_bond_atom_site_label_1
_geom_bond_atom_site_label_2
_ccdc_geom_bond_type
Cu1   O1    S    
C21   N1    A    
C16   O6    A    
C28   H13   S    
C23   N4    S    
C20   N2    A    
C19   C20   A    
C12   H10   S    
C7    C8    A    
Cu1   O7    S    
C29   C36   S    
C34   H12   S    
C1    O2    A    
C16   O5    A    
C24   H6    S    
Cu2   O8    S    
C6    H22   S    
C30   H9    S    
C36   C37   D    
C35   C37   S    
C18   C19   A    
C5    C6    A    
C15   H26   S    
C2    C32   A    
C34   C35   A    
H14   N3    S    
C25   O8    A    
C24   N2    A    
C22   N1    A    
C3    N3    S    
C8    C9    A    
Cu2   O6    S    
C31   H17   S    
C37   H8    S    
C9    C10   A    
Cu2   O2    S    
C13   C14   A    
C33   H7    S    
C11   H20   S    
C33   C34   A    
C31   N3    S    
Cu1   O3    S    
C12   C26   A    
C7    H23   S    
C29   C30   A    
C3    C9    A    
C13   H24   S    
C27   H1    S    
C17   C18   A    
C26   C27   A    
Cu1   N2    S    
C4    O4    A    
C2    C33   A    
C23   C35   A    
Cu2   N1    S    
C14   C16   S    
C4    O3    A    
C36   H11   S    
C19   H5    S    
Cu1   O5    S    
C15   C17   A    
C28   C29   A    
C8    C14   A    
C5    H21   S    
C12   C30   A    
C1    C10   S    
C3    C5    A    
C4    C26   S    
H19   N4    S    
C6    C7    A    
C1    O1    A    
C25   O7    A    
H18   N4    S    
C23   C32   A    
C18   H4    S    
C11   C13   A    
Cu1   Cu2   S    
C2    C25   S    
C22   C24   A    
Cu2   O4    S    
C31   H15   S    
C17   H2    S    
C10   C11   A    
C22   H25   S    
C15   C21   A    
C20   C21   A    
C27   C28   A    
C32   H3    S    
C31   H16   S    
