data_mof_unit_34288.cif
_audit_creation_date              2013-03-05T16:02:42-0500
_audit_creation_method            fapswitch 2.2
_symmetry_space_group_name_H-M    P1
_symmetry_Int_Tables_number       1
_space_group_crystal_system       triclinic
_cell_length_a                    14.916561
_cell_length_b                    14.017378
_cell_length_c                    15.76505
_cell_angle_alpha                 90.040833
_cell_angle_beta                  88.114412
_cell_angle_gamma                 90.333122
_cell_volume                      3294.49022044

loop_
_atom_site_label
_atom_site_type_symbol
_atom_site_description
_atom_site_fract_x
_atom_site_fract_y
_atom_site_fract_z
_atom_type_partial_charge
O1    O     O_R   0.367860 0.580280 0.500020 -0.606244
O2    O     O_R   0.367860 0.419720 0.500020 -0.615817
C1    C     C_R   0.326900 0.499826 0.498965 0.963472
O3    O     O_R   0.500020 0.580310 0.377140 -0.613823
O4    O     O_R   0.500020 0.419690 0.377140 -0.623763
C2    C     C_R   0.501418 0.499990 0.338245 0.930796
Zn1   Zn    Zn3+2 0.500020 0.607200 0.499990 1.061267
Zn2   Zn    Zn3+2 0.500020 0.392800 0.499990 1.025654
O5    O     O_R   0.632160 0.580270 0.499980 -0.592933
O6    O     O_R   0.632160 0.419730 0.499980 -0.602078
O7    O     O_R   0.500010 0.580240 0.622850 -0.575649
O8    O     O_R   0.500010 0.419760 0.622850 -0.613131
C3    C     C_R   0.673111 0.500565 0.499702 0.988960
C4    C     C_R   0.500692 0.500054 0.661979 0.991617
C5    C     C_3   0.487014 0.604857 0.054368 -0.430473
C6    C     C_3   0.434007 0.434418 0.053769 -0.456690
C7    C     C_3   0.440152 0.417829 0.956138 0.545509
C8    C     C_3   0.484662 0.609648 0.955651 0.591853
H1    H     H_    0.421982 0.626330 0.085210 0.227045
H2    H     H_    0.368416 0.465928 0.073318 0.239323
H3    H     H_    0.437037 0.365878 0.089042 0.194455
H4    H     H_    0.536631 0.655989 0.079977 0.241401
C9    C     C_1   0.502301 0.500331 0.751007 0.044762
C10   C     C_3   0.509263 0.503223 0.083190 0.054400
C11   C     C_3   0.504028 0.502405 0.918168 -0.130068
C12   C     C_3   0.600888 0.477643 0.946133 -0.377503
C13   C     C_3   0.602876 0.476743 0.044433 -0.300093
C14   C     C_1   0.503449 0.501296 0.826391 0.118609
C15   C     C_1   0.510070 0.501224 0.174421 0.029593
C16   C     C_1   0.506639 0.500194 0.249577 -0.050679
H5    H     H_    0.653925 0.529097 0.065474 0.234779
H6    H     H_    0.624615 0.406500 0.068303 0.253599
H7    H     H_    0.652189 0.527050 0.919237 0.265007
H8    H     H_    0.625893 0.409634 0.919190 0.263560
C17   C     C_R   0.815729 0.477074 0.423115 0.275188
C18   C     C_R   0.768835 0.504176 0.497418 -0.277411
C19   C     C_R   0.811793 0.542731 0.567278 0.255292
C20   C     C_R   0.904968 0.556593 0.562505 -0.108910
C21   C     C_R   0.953907 0.519975 0.491056 -0.017958
C22   C     C_R   0.909342 0.481998 0.420606 -0.029601
C23   C     C_R   0.950425 0.608993 0.624980 0.214894
C24   C     C_R   0.044370 0.611956 0.622356 0.232472
C25   C     C_R   0.091999 0.555536 0.562186 -0.113615
C26   C     C_R   0.047603 0.519736 0.490750 -0.019202
C27   C     C_R   0.097034 0.481761 0.420115 0.028955
C28   C     C_R   0.052346 0.450937 0.347280 0.418826
C29   C     C_R   0.959001 0.451681 0.348499 -0.177368
C30   C     C_R   0.182995 0.534416 0.570265 0.339297
C31   C     C_R   0.231244 0.500780 0.499127 -0.209701
C32   C     C_R   0.189910 0.476790 0.424510 -0.207651
H9    H     H_    0.231436 0.452386 0.371416 0.209602
H10   H     H_    0.925285 0.427225 0.292843 0.238299
C33   C     C_R   0.558090 0.797482 0.446247 0.098724
C34   C     C_R   0.560274 0.203009 0.448395 0.085052
N1    N     N_R   0.500070 0.750030 0.500040 -0.135202
N2    N     N_R   0.500070 0.249970 0.500040 -0.131959
C35   C     C_R   0.442009 0.798385 0.552603 0.010815
C36   C     C_R   0.441582 0.200945 0.552162 -0.008148
C37   C     C_R   0.441388 0.898791 0.553226 0.039647
C38   C     C_R   0.440978 0.100489 0.552791 0.052005
C39   C     C_R   0.501586 0.949376 0.498477 0.039882
C40   C     C_R   0.501978 0.050499 0.498864 0.042395
C41   C     C_R   0.559593 0.898702 0.442370 -0.173820
C42   C     C_R   0.564466 0.101729 0.447259 -0.177304
C43   C     C_R   0.381651 0.949343 0.606968 -0.123622
C44   C     C_R   0.381176 0.049286 0.606478 -0.144620
C45   C     C_R   0.628080 0.050716 0.395843 0.323418
C46   C     C_R   0.617802 0.950134 0.385439 0.331503
H11   H     H_    0.604384 0.755176 0.408250 0.199005
H12   H     H_    0.603243 0.245650 0.406872 0.207262
H13   H     H_    0.396380 0.758455 0.594151 0.183270
H14   H     H_    0.395303 0.240386 0.593082 0.145530
H15   H     H_    0.334984 0.911519 0.649180 0.196515
H16   H     H_    0.334214 0.086598 0.648386 0.175452
S1    S     S_3+6 0.377836 0.663641 0.930613 0.098013
O9    O     O_2   0.373814 0.763617 0.964949 -0.222499
O10   O     O_2   0.368095 0.668104 0.836198 -0.208908
O11   O     O_3   0.290761 0.605638 0.977591 -0.494794
H17   H     H_    0.236740 0.638501 0.957670 0.433894
S2    S     S_3+6 0.328179 0.410252 0.910019 0.139548
O12   O     O_2   0.255699 0.410972 0.978575 -0.182365
O13   O     O_2   0.311736 0.490028 0.849760 -0.173121
O14   O     O_3   0.314263 0.309453 0.853590 -0.421697
H18   H     H_    0.348947 0.319566 0.799680 0.378721
N3    N     N_R   0.090517 0.683959 0.669750 0.262128
O15   O     O_R   0.071416 0.698098 0.749869 -0.221796
O16   O     O_R   0.148634 0.739750 0.631019 -0.338793
S3    S     S_3+6 0.232610 0.527756 0.671167 0.102715
O17   O     O_2   0.288266 0.615730 0.684511 -0.200145
O18   O     O_2   0.162656 0.518737 0.741594 -0.181971
O19   O     O_3   0.299450 0.431799 0.674084 -0.581043
H19   H     H_    0.259268 0.376592 0.664536 0.355871
S4    S     S_3+6 0.110326 0.409664 0.254169 0.064460
O20   O     O_2   0.045799 0.382694 0.186779 -0.203359
O21   O     O_2   0.171809 0.487313 0.220735 -0.282747
O22   O     O_3   0.171441 0.313603 0.278478 -0.544212
H20   H     H_    0.211797 0.303106 0.228196 0.394021
S5    S     S_3+6 0.726496 0.110663 0.355844 0.118337
O23   O     O_2   0.704914 0.162153 0.275507 -0.206928
O24   O     O_2   0.757160 0.181775 0.420353 -0.268857
O25   O     O_3   0.811315 0.034393 0.336378 -0.441847
H21   H     H_    0.859655 0.073602 0.309180 0.405302
S6    S     S_3+6 0.667409 0.890445 0.295537 0.104209
O26   O     O_2   0.750742 0.840223 0.322015 -0.229428
O27   O     O_2   0.602651 0.818041 0.262124 -0.294953
O28   O     O_3   0.693378 0.967131 0.216376 -0.432714
H22   H     H_    0.725214 0.928284 0.172506 0.412433
S7    S     S_3+6 0.485542 0.296631 0.939001 0.065266
O29   O     O_2   0.515220 0.284674 0.847580 -0.268516
O30   O     O_2   0.563380 0.274675 0.993690 -0.287617
O31   O     O_3   0.406327 0.213784 0.962489 -0.409803
H23   H     H_    0.396126 0.217508 0.024775 0.364743
S8    S     S_3+6 0.571132 0.696198 0.917804 0.100519
O32   O     O_2   0.655907 0.686161 0.965996 -0.248297
O33   O     O_2   0.593455 0.681057 0.825083 -0.258069
O34   O     O_3   0.537991 0.809946 0.931366 -0.420521
H24   H     H_    0.521012 0.832271 0.874510 0.402771
N4    N     N_R   0.767602 0.446663 0.350322 0.192570
O35   O     O_R   0.717049 0.506578 0.311275 -0.393323
O36   O     O_R   0.772094 0.358642 0.324566 -0.302334
N5    N     N_R   0.761256 0.558493 0.645151 0.211673
O37   O     O_R   0.705448 0.629254 0.652221 -0.294550
O38   O     O_R   0.767937 0.498802 0.707735 -0.330257
N6    N     N_R   0.902243 0.669612 0.683555 0.261592
O39   O     O_R   0.868156 0.749067 0.657239 -0.274638
O40   O     O_R   0.894592 0.646944 0.763497 -0.212608

loop_
_geom_bond_atom_site_label_1
_geom_bond_atom_site_label_2
_geom_bond_distance
_ccdc_geom_bond_type
C22   C29   1.403239 A    
C8    S1    1.823084 S    
C5    C8    1.559333 S    
C23   C24   1.400970 A    
C17   C18   1.397967 A    
C10   C13   1.552592 S    
Zn1   N1    2.002098 S    
S1    O9    1.502763 D    
C33   H11   1.079067 S    
Zn2   N2    2.002109 S    
C1    C31   1.426920 S    
N3    O15   1.300939 A    
O34   H24   0.990828 S    
C11   C14   1.447244 S    
C5    H1    1.113627 S    
C12   C13   1.551037 S    
S4    O20   1.503507 D    
C23   N6    1.433040 S    
C18   C19   1.399013 A    
C19   C20   1.401829 A    
S2    O14   1.684593 S    
C20   C21   1.419355 A    
O7    C4    1.282791 A    
C35   C37   1.407541 A    
O28   H22   0.990564 S    
C36   C38   1.408149 A    
C44   H16   1.083547 S    
C43   H15   1.083620 S    
S7    O29   1.503261 D    
C38   C40   1.413289 A    
C39   C41   1.411216 A    
O5    C3    1.276394 A    
N4    O35   1.300607 A    
C40   C42   1.410500 A    
C45   S5    1.784477 S    
C28   C29   1.391992 A    
C12   H8    1.105199 S    
C5    H4    1.112464 S    
O31   H23   0.990086 S    
S7    O30   1.502184 D    
C6    C7    1.556256 S    
C46   S6    1.786858 S    
C25   C30   1.400833 A    
C6    H2    1.110093 S    
S8    O34   1.683477 S    
N3    O16   1.301511 A    
C38   C44   1.403911 A    
C6    C10   1.557730 S    
C8    C11   1.638586 S    
O3    Zn1   1.972811 S    
C8    S8    1.850330 S    
O25   H21   0.990577 S    
C33   N1    1.362514 A    
C34   N2    1.364077 A    
C37   C39   1.412980 A    
C13   H5    1.112751 S    
C45   C46   1.427241 A    
C42   C45   1.423111 A    
C3    C18   1.427733 S    
S2    O13   1.494372 D    
C7    S7    1.848856 S    
O19   H19   0.990535 S    
O11   H17   0.990634 S    
C11   C12   1.565353 S    
C27   C28   1.412739 A    
C7    S2    1.845909 S    
O1    C1    1.279855 A    
C4    C9    1.404520 S    
Zn1   O7    1.973676 S    
C25   C26   1.415315 A    
C15   C16   1.184357 T    
C12   H7    1.103584 S    
O14   H18   0.990177 S    
C34   H12   1.079390 S    
S3    O19   1.680502 S    
Zn2   O8    1.973147 S    
O22   H20   0.990886 S    
C30   S3    1.779136 S    
C32   H9    1.081321 S    
S6    O27   1.503968 D    
C24   N3    1.440637 S    
C9    C14   1.189198 T    
C35   H13   1.082735 S    
S1    O10   1.501671 D    
N5    O37   1.300984 A    
C21   C26   1.397507 A    
C20   C23   1.416489 A    
C19   N5    1.436980 S    
O3    C2    1.281584 A    
C5    C10   1.537059 S    
C2    C16   1.397476 S    
S3    O18   1.503315 D    
C43   C44   1.401029 A    
S4    O22   1.681972 S    
S5    O24   1.503650 D    
N1    C35   1.361973 A    
C24   C25   1.411074 A    
C21   C22   1.415081 A    
C26   C27   1.420111 A    
N6    O40   1.301150 A    
S8    O32   1.503840 D    
Zn1   O5    2.009047 S    
C41   C46   1.421815 A    
C30   C31   1.395745 A    
C13   H6    1.108376 S    
O1    Zn1   2.004990 S    
Zn2   O6    2.004736 S    
O2    Zn2   2.009299 S    
O8    C4    1.283235 A    
S2    O12   1.503421 D    
O6    C3    1.284072 A    
O4    Zn2   1.973338 S    
C6    H3    1.112316 S    
C29   H10   1.080242 S    
S5    O25   1.681556 S    
S7    O31   1.684589 S    
C7    C11   1.619263 S    
O2    C1    1.281840 A    
C37   C43   1.403837 A    
C33   C41   1.420220 A    
C36   H14   1.083048 S    
O4    C2    1.281894 A    
C28   S4    1.777203 S    
C34   C42   1.421489 A    
C27   C32   1.391549 A    
S5    O23   1.503157 D    
N2    C36   1.362072 A    
C17   C22   1.396942 A    
S6    O28   1.681739 S    
C39   C40   1.417466 A    
S1    O11   1.679842 S    
N4    O36   1.300042 A    
N5    O38   1.300802 A    
C10   C15   1.438996 S    
S3    O17   1.501138 D    
S4    O21   1.503679 D    
C31   C32   1.386280 A    
S6    O26   1.503232 D    
C17   N4    1.436657 S    
N6    O39   1.300857 A    
S8    O33   1.503657 D    
