data_mof_unit_54567.cif
_audit_creation_date              2012-12-10T18:48:20-0500
_audit_creation_method            fapswitch 2.2
_symmetry_space_group_name_H-M    P1
_symmetry_Int_Tables_number       1
_space_group_crystal_system       triclinic
_cell_length_a                    10.732479
_cell_length_b                    9.899687
_cell_length_c                    11.530764
_cell_angle_alpha                 90.004573
_cell_angle_beta                  91.00006
_cell_angle_gamma                 90.000771
_cell_volume                      1224.93610314

loop_
_atom_site_label
_atom_site_type_symbol
_atom_type_description
_atom_site_fract_x
_atom_site_fract_y
_atom_site_fract_z
_atom_type_partial_charge
C1    C     C_R   0.260029 0.500160 0.500895 0.854276
C2    C     C_R   0.936104 0.624154 0.499689 -0.196826
C3    C     C_R   0.936310 0.378073 0.497273 -0.209771
C4    C     C_R   0.063900 0.624154 0.500472 -0.196835
C5    C     C_R   0.872520 0.500854 0.498157 -0.007441
C6    C     C_R   0.127480 0.500852 0.501869 -0.007441
C7    C     C_R   0.568335 0.072631 0.581339 0.169512
C8    C     C_R   0.433570 0.927538 0.417237 0.162875
C9    C     C_R   0.431663 0.072616 0.418660 0.169472
C10   C     C_R   0.566434 0.927556 0.582757 0.162825
C11   C     C_3   0.769356 0.134766 0.672122 -0.792237
C12   C     C_R   0.739971 0.500161 0.499111 0.854261
C13   C     C_3   0.411096 0.857509 0.215236 -0.738698
C14   C     C_3   0.230673 0.134681 0.327797 -0.792380
C15   C     C_3   0.588943 0.857564 0.784764 -0.738407
C16   C     C_R   0.499864 0.499959 0.282007 0.909598
C17   C     C_R   0.500135 0.499967 0.717993 0.909567
C18   C     C_1   0.499969 0.499802 0.161544 -0.210595
C19   C     C_1   0.500028 0.499823 0.838456 -0.210624
C20   C     C_1   0.499996 0.499786 0.059333 -0.012687
C21   C     C_1   0.500001 0.499798 0.940667 -0.012693
C22   C     C_R   0.063686 0.378071 0.502647 -0.209756
H1    H     H_    0.111614 0.282186 0.506945 0.163673
H2    H     H_    0.380324 0.950509 0.169873 0.208564
H3    H     H_    0.373055 0.770231 0.165749 0.238715
H4    H     H_    0.514501 0.851336 0.215423 0.243782
H5    H     H_    0.407854 0.155654 0.253652 0.225996
H6    H     H_    0.201472 0.070498 0.253242 0.220319
H7    H     H_    0.189325 0.236248 0.314374 0.251616
H8    H     H_    0.194195 0.090698 0.409166 0.220364
H9    H     H_    0.730747 0.862514 0.662332 0.214337
H10   H     H_    0.619869 0.950521 0.830184 0.208507
H11   H     H_    0.626894 0.770173 0.834198 0.238715
H12   H     H_    0.887670 0.720188 0.499941 0.150533
H13   H     H_    0.485502 0.851543 0.784581 0.243675
H14   H     H_    0.888378 0.282191 0.492885 0.163648
H15   H     H_    0.112337 0.720189 0.500323 0.150549
H16   H     H_    0.592204 0.155648 0.746374 0.225964
H17   H     H_    0.798623 0.070551 0.746632 0.220262
H18   H     H_    0.810674 0.236349 0.685565 0.251626
H19   H     H_    0.805800 0.090840 0.590714 0.220364
H20   H     H_    0.269275 0.862502 0.337637 0.214382
N1    N     N_R   0.500000 0.857200 0.500000 -0.133735
N2    N     N_R   0.500000 0.142800 0.500000 -0.135726
N3    N     N_2   0.635057 0.147100 0.667468 -0.241212
N4    N     N_2   0.364582 0.853343 0.332379 -0.244212
N5    N     N_2   0.364957 0.147077 0.332523 -0.241228
N6    N     N_2   0.635438 0.853380 0.667608 -0.244249
O1    O     O_R   0.316770 0.614620 0.499990 -0.620522
O2    O     O_R   0.683230 0.385380 0.500010 -0.602875
O3    O     O_R   0.683230 0.614620 0.500010 -0.620524
O4    O     O_R   0.316770 0.385380 0.499990 -0.602866
O5    O     O_R   0.500020 0.614670 0.334450 -0.584767
O6    O     O_R   0.499980 0.385330 0.665550 -0.606835
O7    O     O_R   0.499980 0.614670 0.665550 -0.584791
O8    O     O_R   0.500020 0.385330 0.334450 -0.606870
Zn1   Zn    Zn3+2 0.500000 0.653120 0.500000 0.967979
Zn2   Zn    Zn3+2 0.500000 0.346880 0.500000 0.970841

loop_
_geom_bond_atom_site_label_1
_geom_bond_atom_site_label_2
_ccdc_geom_bond_type
C7    C10   A    
C2    C4    A    
C16   O8    A    
C9    N5    S    
C14   N5    S    
O3    Zn1   S    
C17   O7    A    
H20   N4    S    
C12   O2    A    
C8    N1    A    
C3    C5    A    
C2    H12   S    
C15   H10   S    
C7    N2    A    
C4    H15   S    
C11   H17   S    
C9    N2    A    
C13   H3    S    
C11   H18   S    
O4    Zn2   S    
C3    H14   S    
C14   H8    S    
C15   N6    S    
C16   C18   S    
C17   C19   S    
O8    Zn2   S    
C11   H19   S    
C18   C20   T    
H9    N6    S    
O7    Zn1   S    
C10   N6    S    
C13   N4    S    
C1    O4    A    
C8    N4    S    
C13   H4    S    
C11   N3    S    
C2    C5    A    
N1    Zn1   S    
C14   H7    S    
C1    C6    S    
C6    C22   A    
C7    N3    S    
C12   O3    A    
O1    Zn1   S    
C20   C21   S    
C5    C12   S    
C4    C6    A    
O6    Zn2   S    
H5    N5    S    
C15   H13   S    
O5    Zn1   S    
C16   O5    A    
C3    C22   A    
C14   H6    S    
C10   N1    A    
C19   C21   T    
C1    O1    A    
C17   O6    A    
C15   H11   S    
C22   H1    S    
C13   H2    S    
N2    Zn2   S    
C8    C9    A    
H16   N3    S    
O2    Zn2   S    
