data_mof_unit_16645.cif
_audit_creation_date              2013-03-05T16:07:04-0500
_audit_creation_method            fapswitch 2.2
_symmetry_space_group_name_H-M    P1
_symmetry_Int_Tables_number       1
_space_group_crystal_system       triclinic
_cell_length_a                    16.987219
_cell_length_b                    7.249598
_cell_length_c                    16.832133
_cell_angle_alpha                 90.000511
_cell_angle_beta                  100.658113
_cell_angle_gamma                 89.999961
_cell_volume                      2037.12487626

loop_
_atom_site_label
_atom_site_type_symbol
_atom_site_description
_atom_site_fract_x
_atom_site_fract_y
_atom_site_fract_z
_atom_type_partial_charge
O1    O     O_R   0.413450 0.494370 0.415710 -0.599904
O2    O     O_R   0.586550 0.994370 0.584290 -0.599896
O3    O     O_R   0.578420 0.819350 0.429360 -0.555341
O4    O     O_R   0.421580 0.319350 0.570640 -0.555304
C1    C     C_R   0.602911 0.654329 0.411977 0.988835
C2    C     C_R   0.397089 0.154330 0.588024 0.988778
O5    O     O_R   0.413570 0.823780 0.406240 -0.581578
O6    O     O_R   0.586430 0.323780 0.593760 -0.581593
O7    O     O_R   0.420530 0.998740 0.561000 -0.597088
O8    O     O_R   0.579470 0.498740 0.439000 -0.597085
C3    C     C_R   0.386199 0.655376 0.383518 0.937018
C4    C     C_R   0.613801 0.155376 0.616482 0.936943
O9    O     O_3   0.502480 0.662320 0.550800 -0.274089
O10   O     O_3   0.497520 0.162320 0.449200 -0.274104
V1    V     V_3+5 0.499540 0.935370 0.490580 1.214721
V2    V     V_3+5 0.500460 0.435370 0.509420 1.214728
C5    C     C_R   0.695063 0.989806 0.736125 0.202689
C6    C     C_R   0.304936 0.489804 0.263875 0.202734
C7    C     C_R   0.680585 0.147135 0.687148 -0.213024
C8    C     C_R   0.319414 0.647133 0.312853 -0.213005
C9    C     C_R   0.731032 0.300288 0.709339 -0.156464
C10   C     C_R   0.268969 0.800288 0.290662 -0.156438
H1    H     H_    0.721939 0.426032 0.674397 0.144468
H2    H     H_    0.278062 0.926033 0.325604 0.144462
C11   C     C_R   0.797319 0.288567 0.773410 -0.167924
C12   C     C_R   0.202682 0.788568 0.226590 -0.167923
H3    H     H_    0.836549 0.406690 0.786082 0.146549
H4    H     H_    0.163453 0.906691 0.213919 0.146554
C13   C     C_R   0.815432 0.122963 0.817197 -0.219786
C14   C     C_R   0.184569 0.622964 0.182802 -0.219798
C15   C     C_R   0.760460 0.978148 0.799362 0.176257
C16   C     C_R   0.239539 0.478147 0.200637 0.176272
C17   C     C_3   0.773419 0.779321 0.783338 -0.507644
C18   C     C_3   0.226580 0.279321 0.216660 -0.507637
C19   C     C_3   0.701889 0.791996 0.714246 -0.467134
C20   C     C_3   0.298109 0.291996 0.285753 -0.467158
H5    H     H_    0.762216 0.689924 0.833747 0.198801
H6    H     H_    0.237782 0.189922 0.166251 0.198814
H7    H     H_    0.831015 0.753994 0.762724 0.193838
H8    H     H_    0.168983 0.253996 0.237274 0.193834
H9    H     H_    0.649581 0.709766 0.724905 0.220242
H10   H     H_    0.350416 0.209763 0.275094 0.220262
H11   H     H_    0.718126 0.773763 0.653675 0.183704
H12   H     H_    0.281871 0.273764 0.346324 0.183700
C21   C     C_R   0.336588 0.135206 0.641167 -0.266109
C22   C     C_R   0.663412 0.635205 0.358834 -0.265997
C23   C     C_R   0.163890 0.128930 0.860558 -0.194750
C24   C     C_R   0.836111 0.628930 0.139443 -0.194727
C25   C     C_R   0.294455 0.255955 0.848476 0.163639
C26   C     C_R   0.705518 0.755838 0.151500 0.163557
C27   C     C_R   0.229485 0.242326 0.888537 -0.246381
C28   C     C_R   0.770502 0.742280 0.111454 -0.246336
C29   C     C_R   0.159906 0.032073 0.786778 0.064269
C30   C     C_R   0.840106 0.532104 0.213232 0.064252
C31   C     C_R   0.221267 0.062165 0.740178 0.118178
C32   C     C_R   0.778741 0.562180 0.259830 0.118241
C33   C     C_R   0.286144 0.186305 0.768005 -0.036457
C34   C     C_R   0.713837 0.686236 0.231980 -0.036504
C35   C     C_R   0.339829 0.234029 0.714405 0.264794
C36   C     C_R   0.660138 0.733944 0.285571 0.264784
C37   C     C_R   0.277068 0.002068 0.619407 -0.158146
C38   C     C_R   0.722964 0.502147 0.380622 -0.158288
C39   C     C_R   0.219551 0.969720 0.666287 -0.158710
C40   C     C_R   0.780481 0.469805 0.333742 -0.158806
H13   H     H_    0.273677 0.924306 0.563852 0.133426
H14   H     H_    0.726375 0.424448 0.436196 0.133391
H15   H     H_    0.174804 0.867670 0.643604 0.127013
H16   H     H_    0.825253 0.367820 0.356445 0.127003
H17   H     H_    0.232628 0.311179 0.946201 0.134793
H18   H     H_    0.767363 0.811142 0.053795 0.134772
O11   O     O_R   0.920630 0.775410 0.061150 -0.584443
O12   O     O_R   0.079370 0.275410 0.938850 -0.584445
O13   O     O_R   0.086500 0.441450 0.093690 -0.592268
O14   O     O_R   0.913500 0.941450 0.906310 -0.592268
C41   C     C_R   0.113967 0.610222 0.116242 0.909370
C42   C     C_R   0.886033 0.110221 0.883758 0.909369
O15   O     O_R   0.921670 0.445960 0.070740 -0.591595
O16   O     O_R   0.078330 0.945960 0.929260 -0.591604
O17   O     O_R   0.913380 0.271130 0.915780 -0.587754
O18   O     O_R   0.086620 0.771130 0.084220 -0.587753
C43   C     C_R   0.897905 0.614941 0.087829 0.923740
C44   C     C_R   0.102096 0.114940 0.912172 0.923749
O19   O     O_3   0.997500 0.603030 0.949220 -0.287423
O20   O     O_3   0.002500 0.103030 0.050780 -0.287413
V3    V     V_3+5 0.000470 0.329940 0.009420 1.129595
V4    V     V_3+5 0.999530 0.829940 0.990580 1.129593
C45   C     C_3   0.088409 0.906932 0.756147 -0.456581
C46   C     C_3   0.109168 0.703733 0.776278 -0.163309
C47   C     C_3   0.037413 0.578229 0.747562 -0.905962
H19   H     H_    0.986538 0.617129 0.777167 0.265236
H20   H     H_    0.018341 0.588569 0.680944 0.244715
H21   H     H_    0.054160 0.432926 0.763381 0.247046
H22   H     H_    0.159619 0.658743 0.747291 0.196903
H23   H     H_    0.128375 0.686681 0.842631 0.219800
H24   H     H_    0.035403 0.946921 0.782045 0.185761
H25   H     H_    0.067151 0.925836 0.690262 0.173178
C48   C     C_3   0.911618 0.407014 0.243872 -0.456568
C49   C     C_3   0.890875 0.203794 0.223770 -0.163335
C50   C     C_3   0.962643 0.078338 0.252485 -0.906031
H26   H     H_    0.013506 0.117246 0.222864 0.265238
H27   H     H_    0.981726 0.088718 0.319099 0.244733
H28   H     H_    0.945907 0.933020 0.236684 0.247045
H29   H     H_    0.840437 0.158801 0.252776 0.196859
H30   H     H_    0.871655 0.186699 0.157422 0.219809
H31   H     H_    0.964614 0.447002 0.217959 0.185750
H32   H     H_    0.932884 0.425971 0.309752 0.173182
N1    N     N_R   0.391092 0.392614 0.729491 0.219829
O21   O     O_R   0.467938 0.377040 0.732540 -0.433293
O22   O     O_R   0.361173 0.552452 0.742814 -0.425016
N2    N     N_R   0.608806 0.892416 0.270436 0.219816
O23   O     O_R   0.638663 0.052317 0.257086 -0.424980
O24   O     O_R   0.531966 0.876687 0.267405 -0.433334
C51   C     C_3   0.373146 0.324202 0.898744 -0.362394
C52   C     C_3   0.396537 0.213847 0.978004 -0.318468
C53   C     C_3   0.478460 0.271032 0.025021 -0.883283
H33   H     H_    0.524965 0.258322 0.986823 0.256739
H34   H     H_    0.476043 0.415550 0.046122 0.270645
H35   H     H_    0.495283 0.180592 0.078744 0.277923
H36   H     H_    0.352435 0.235471 0.018244 0.204312
H37   H     H_    0.397518 0.064343 0.963736 0.217389
H38   H     H_    0.423602 0.306391 0.866622 0.232302
H39   H     H_    0.367491 0.472943 0.912749 0.204683
C54   C     C_3   0.626815 0.824008 0.101225 -0.362158
C55   C     C_3   0.603493 0.713803 0.021903 -0.318383
C56   C     C_3   0.521561 0.770939 0.974891 -0.883200
H40   H     H_    0.475038 0.757994 0.013063 0.256723
H41   H     H_    0.523939 0.915541 0.953873 0.270605
H42   H     H_    0.504790 0.680629 0.921114 0.277933
H43   H     H_    0.647605 0.735669 0.981681 0.204228
H44   H     H_    0.602560 0.564229 0.036095 0.217346
H45   H     H_    0.576346 0.805950 0.133324 0.232210
H46   H     H_    0.632418 0.972821 0.087290 0.204715

loop_
_geom_bond_atom_site_label_1
_geom_bond_atom_site_label_2
_geom_bond_distance
_ccdc_geom_bond_type
C25   C51   1.526176 S    
C45   C46   1.537873 S    
C2    C21   1.488518 S    
C54   H46   1.111852 S    
N1    O22   1.301348 A    
C20   H10   1.111793 S    
O1    C3    1.333246 A    
C42   O17   1.332095 A    
O12   V3    1.988093 S    
O2    C4    1.333242 A    
C2    O7    1.305670 A    
C52   C53   1.525592 S    
C54   C55   1.543440 S    
C13   C42   1.484955 S    
C24   C30   1.417319 A    
C17   H7    1.112189 S    
O14   C42   1.339141 A    
C22   C38   1.396819 A    
C18   H8    1.112189 S    
C40   H16   1.078703 S    
C7    C9    1.410046 A    
C33   C35   1.438643 A    
C34   C36   1.438662 A    
C49   H29   1.110670 S    
C25   C33   1.427872 A    
C24   C43   1.484687 S    
C23   C44   1.484677 S    
C37   C39   1.384720 A    
N2    O23   1.301411 A    
O18   V4    1.998054 S    
N2    O24   1.301843 A    
C17   C19   1.521405 S    
C51   H39   1.111723 S    
C53   H34   1.109453 S    
C31   C39   1.408356 A    
C56   H42   1.110744 S    
C26   C28   1.399221 A    
N1    O21   1.301784 A    
C32   C40   1.408381 A    
C30   C48   1.527194 S    
C47   H20   1.110660 S    
C19   H11   1.112226 S    
C41   O18   1.332097 A    
C38   C40   1.384727 A    
C52   H36   1.110078 S    
C23   C29   1.417316 A    
C48   H31   1.109053 S    
O16   V4    2.018830 S    
O5    V1    2.008888 S    
O15   V3    2.018824 S    
O6    V2    2.008899 S    
O13   C41   1.339139 A    
C48   C49   1.537864 S    
C46   H23   1.111012 S    
C29   C31   1.432408 A    
C11   C13   1.412570 A    
C39   H15   1.078689 S    
C3    C8    1.485358 S    
C38   H14   1.084270 S    
C26   C34   1.427886 A    
C36   N2    1.436307 S    
O20   V3    1.784107 S    
O4    C2    1.317169 A    
O12   C44   1.329721 A    
C23   C27   1.394674 A    
C25   C27   1.399206 A    
C17   H5    1.111721 S    
C45   H24   1.109053 S    
C16   C18   1.490248 S    
O4    V2    2.018793 S    
O5    C3    1.336853 A    
O11   V4    1.988100 S    
O16   C44   1.337676 A    
C50   H26   1.110868 S    
O15   C43   1.337680 A    
O6    C4    1.336854 A    
C53   H35   1.110709 S    
C45   H25   1.109455 S    
C50   H28   1.110603 S    
C15   C17   1.490246 S    
C55   H44   1.111094 S    
C29   C45   1.527198 S    
O1    V2    1.998308 S    
O14   V4    2.008598 S    
C47   H21   1.110609 S    
O2    V1    1.998303 S    
O13   V3    2.008589 S    
C48   H32   1.109452 S    
C50   H27   1.110635 S    
C8    C10   1.410047 A    
C12   C14   1.412568 A    
C31   C33   1.432817 A    
C56   H40   1.110859 S    
C5    C15   1.391721 A    
C10   H2    1.080362 S    
C20   H12   1.112227 S    
C6    C16   1.391722 A    
C22   C36   1.418060 A    
O17   V3    1.998048 S    
O3    V1    2.018786 S    
C51   C52   1.543291 S    
C9    C11   1.410337 A    
C46   H22   1.110671 S    
C21   C35   1.418046 A    
C54   H45   1.102464 S    
C18   H6    1.111722 S    
C26   C54   1.526202 S    
O3    C1    1.317173 A    
C30   C32   1.432414 A    
C11   H3    1.081820 S    
C27   H17   1.083924 S    
C1    C22   1.488509 S    
C12   H4    1.081820 S    
C9    H1    1.080361 S    
O7    V1    2.001469 S    
C1    O8    1.305662 A    
C13   C15   1.400222 A    
O8    V2    2.001477 S    
C14   C16   1.400222 A    
C14   C41   1.484956 S    
C49   H30   1.110992 S    
C4    C7    1.485360 S    
C21   C37   1.396808 A    
C5    C7    1.402153 A    
C18   C20   1.521404 S    
C32   C34   1.432840 A    
C55   H43   1.110252 S    
C6    C8    1.402149 A    
C19   H9    1.111794 S    
C35   N1    1.436226 S    
C28   H18   1.083909 S    
C37   H13   1.084255 S    
C24   C28   1.394681 A    
O19   V4    1.784096 S    
C51   H38   1.102300 S    
C46   C47   1.526194 S    
C49   C50   1.526161 S    
C10   C12   1.410337 A    
O9    V2    1.784502 S    
C56   H41   1.109517 S    
O10   V1    1.784513 S    
C5    C19   1.490410 S    
C47   H19   1.110874 S    
C6    C20   1.490412 S    
C52   H37   1.110918 S    
C53   H33   1.110794 S    
C55   C56   1.525609 S    
O11   C43   1.329722 A    
