data_mof_unit_68372.cif
_audit_creation_date              2012-12-11T14:37:38-0500
_audit_creation_method            fapswitch 2.2
_symmetry_space_group_name_H-M    P1
_symmetry_Int_Tables_number       1
_space_group_crystal_system       triclinic
_cell_length_a                    14.609258
_cell_length_b                    15.756664
_cell_length_c                    6.980282
_cell_angle_alpha                 90.302621
_cell_angle_beta                  80.882511
_cell_angle_gamma                 90.005312
_cell_volume                      1586.4893516

loop_
_atom_site_label
_atom_site_type_symbol
_atom_type_description
_atom_site_fract_x
_atom_site_fract_y
_atom_site_fract_z
_atom_type_partial_charge
O1    O     O_R   0.337080 0.165770 0.524980 -0.522497
O2    O     O_R   0.662920 0.834230 0.475020 -0.531066
O3    O     O_R   0.662920 0.665770 0.475020 -0.519173
O4    O     O_R   0.337080 0.334230 0.524980 -0.516388
O5    O     O_R   0.348340 0.341430 0.191390 -0.563020
O6    O     O_R   0.651660 0.658570 0.808610 -0.562875
O7    O     O_R   0.651660 0.841430 0.808610 -0.551322
O8    O     O_R   0.348340 0.158570 0.191390 -0.563144
O9    O     O_R   0.165780 0.339950 0.082750 -0.550539
O10   O     O_R   0.834220 0.660050 0.917250 -0.552268
O11   O     O_R   0.834220 0.839950 0.917250 -0.555177
O12   O     O_R   0.165780 0.160050 0.082750 -0.553897
C1    C     C_R   0.369956 0.364377 0.356292 0.578946
C2    C     C_R   0.629901 0.635541 0.643641 0.691451
C3    C     C_R   0.630397 0.864801 0.644120 0.566390
C4    C     C_R   0.370182 0.135441 0.355714 0.717341
H1    H     H_    0.460829 0.434177 0.746174 0.138627
H2    H     H_    0.655738 0.303726 0.240273 0.104564
H3    H     H_    0.538986 0.910182 0.157438 0.147747
H4    H     H_    0.351861 0.774084 0.656780 0.101651
O13   O     O_3   0.191540 0.250000 0.407620 -0.363309
O14   O     O_3   0.808460 0.750000 0.592380 -0.362087
V1    V     V_3+5 0.262540 0.250000 0.108780 1.438882
V2    V     V_3+5 0.737460 0.750000 0.891220 1.447552
O15   O     O_R   0.154530 0.164290 0.756910 -0.518483
O16   O     O_R   0.845470 0.835710 0.243090 -0.520196
O17   O     O_R   0.845470 0.664290 0.243090 -0.513545
O18   O     O_R   0.154530 0.335710 0.756910 -0.521202
C5    C     C_R   0.132690 0.133254 0.931498 0.796884
C6    C     C_R   0.866836 0.866970 0.068749 0.769501
C7    C     C_R   0.866955 0.633042 0.068316 0.793254
C8    C     C_R   0.133476 0.367271 0.931848 0.767022
V3    V     V_3+5 0.240320 0.250000 0.616280 1.548325
V4    V     V_3+5 0.759680 0.750000 0.383720 1.542396
O19   O     O_3   0.311330 0.250000 0.867310 -0.372782
O20   O     O_3   0.688670 0.750000 0.132690 -0.372104
C9    C     C_3   0.048868 0.496210 0.152432 -0.330302
C10   C     C_3   0.953208 0.505692 0.849727 -0.301541
C11   C     C_3   0.975378 0.973087 0.829571 -0.357833
C12   C     C_3   0.022044 0.028674 0.170977 -0.276191
C13   C     C_3   0.042320 0.574622 0.021550 0.262364
C14   C     C_3   0.959396 0.427282 0.979954 0.227822
C15   C     C_3   0.963782 0.064828 0.912710 0.282519
C16   C     C_3   0.033812 0.937505 0.089215 0.256116
H5    H     H_    0.087823 0.492790 0.276373 0.197954
H6    H     H_    0.914970 0.511069 0.725227 0.196539
H7    H     H_    0.957353 0.951160 0.688756 0.177888
H8    H     H_    0.040231 0.050250 0.311924 0.175181
C17   C     C_3   0.937402 0.562743 0.035458 -0.172342
C18   C     C_3   0.064595 0.438868 0.965771 -0.205754
C19   C     C_3   0.062155 0.062982 0.964940 -0.175614
C20   C     C_3   0.935925 0.938183 0.035943 -0.205247
C21   C     C_3   0.942934 0.483789 0.163388 0.396060
C22   C     C_3   0.059061 0.518146 0.839361 0.426637
C23   C     C_3   0.073458 0.970991 0.886817 0.377313
C24   C     C_3   0.923650 0.029934 0.114095 0.402973
C25   C     C_2   0.614874 0.276156 0.367773 -0.262388
C26   C     C_2   0.508802 0.463237 0.630439 -0.322570
C27   C     C_2   0.388685 0.748353 0.522889 -0.257477
C28   C     C_2   0.489616 0.938529 0.272532 -0.299319
C29   C     C_2   0.567705 0.322865 0.510688 0.370620
C30   C     C_2   0.564991 0.417730 0.498251 0.342076
C31   C     C_2   0.430504 0.797149 0.379319 0.397302
C32   C     C_2   0.432450 0.892021 0.399140 0.338927
O21   O     O_3   0.626296 0.460844 0.360466 -0.561254
C33   C     C_3   0.590963 0.464791 0.183258 0.035403
H9    H     H_    0.544550 0.410950 0.159777 0.066623
H10   H     H_    0.650574 0.461950 0.062888 0.128093
C34   C     C_3   0.540279 0.548228 0.168152 -0.626325
H11   H     H_    0.587750 0.602255 0.179233 0.263472
H12   H     H_    0.515140 0.551231 0.026393 0.162149
H13   H     H_    0.480066 0.553300 0.285960 0.202372
O22   O     O_3   0.515555 0.280645 0.664152 -0.544856
C35   C     C_3   0.561616 0.283401 0.827828 0.117905
H14   H     H_    0.508126 0.286371 0.959636 0.146854
H15   H     H_    0.606860 0.340156 0.833276 0.071122
C36   C     C_3   0.618266 0.202965 0.838655 -0.766030
H16   H     H_    0.673370 0.197447 0.710432 0.221164
H17   H     H_    0.651219 0.205044 0.970793 0.177687
H18   H     H_    0.572731 0.146522 0.845654 0.228480
O23   O     O_3   0.369448 0.934293 0.536743 -0.551852
C37   C     C_3   0.401864 0.936103 0.717385 0.114669
H19   H     H_    0.449248 0.882878 0.737128 0.038161
H20   H     H_    0.341101 0.930231 0.834035 0.152912
C38   C     C_3   0.449817 0.019729 0.747572 -0.723104
H21   H     H_    0.398604 0.072134 0.765968 0.245895
H22   H     H_    0.481603 0.015939 0.881547 0.165759
H23   H     H_    0.505043 0.033165 0.622953 0.212583
O24   O     O_3   0.476898 0.756538 0.215740 -0.550795
C39   C     C_3   0.425327 0.764292 0.061324 0.118800
H24   H     H_    0.472469 0.749573 0.924266 0.136814
H25   H     H_    0.398797 0.829732 0.047979 0.076476
C40   C     C_3   0.344512 0.701813 0.080946 -0.811463
H26   H     H_    0.288591 0.723652 0.196987 0.219062
H27   H     H_    0.315558 0.698574 0.943762 0.178407
H28   H     H_    0.367839 0.637423 0.114652 0.236636
O25   O     O_3   0.083606 0.653502 0.043040 -0.640166
H29   H     H_    0.140101 0.641444 0.100225 0.284564
O26   O     O_3   0.920308 0.347731 0.954862 -0.634102
H30   H     H_    0.852766 0.357516 0.966346 0.266853
O27   O     O_3   0.928331 0.133405 0.821091 -0.619232
H31   H     H_    0.877663 0.109776 0.757949 0.289581
O28   O     O_3   0.070734 0.870504 0.182032 -0.641993
H32   H     H_    0.137103 0.884875 0.177384 0.284003
O29   O     O_3   0.884063 0.474676 0.343184 -0.549995
C41   C     C_3   0.844176 0.393295 0.358731 0.136781
H33   H     H_    0.897060 0.342555 0.319251 0.165158
H34   H     H_    0.788839 0.389223 0.267437 0.141187
C42   C     C_3   0.800615 0.378213 0.566777 -0.714888
H35   H     H_    0.751423 0.429939 0.620595 0.223820
H36   H     H_    0.764142 0.316396 0.579091 0.190242
H37   H     H_    0.856802 0.375860 0.654193 0.243628
O30   O     O_3   0.114084 0.535868 0.659576 -0.543669
C43   C     C_3   0.206108 0.552216 0.685010 0.115564
H38   H     H_    0.235025 0.500264 0.764645 0.084768
H39   H     H_    0.210747 0.613301 0.762815 0.138772
C44   C     C_3   0.264857 0.559646 0.486504 -0.734665
H40   H     H_    0.240134 0.613900 0.408583 0.223115
H41   H     H_    0.338437 0.569576 0.502203 0.187664
H42   H     H_    0.258382 0.501286 0.400396 0.206239
O31   O     O_3   0.152564 0.939799 0.763976 -0.550188
C45   C     C_3   0.152798 0.849707 0.761067 0.132107
H43   H     H_    0.088912 0.819087 0.839065 0.167572
H44   H     H_    0.211876 0.827082 0.829158 0.124698
C46   C     C_3   0.163494 0.817444 0.553968 -0.686267
H45   H     H_    0.218800 0.852559 0.459286 0.244704
H46   H     H_    0.180738 0.748855 0.549487 0.187790
H47   H     H_    0.096413 0.825338 0.501610 0.253350
O32   O     O_3   0.846731 0.058934 0.246126 -0.548450
C47   C     C_3   0.770267 0.072243 0.149524 0.107330
H48   H     H_    0.765537 0.024453 0.033016 0.087370
H49   H     H_    0.775174 0.136784 0.085735 0.161278
C48   C     C_3   0.681620 0.066657 0.295698 -0.727776
H50   H     H_    0.684626 0.111329 0.417758 0.237003
H51   H     H_    0.621062 0.082843 0.224807 0.183625
H52   H     H_    0.673007 0.001277 0.353769 0.213634

loop_
_geom_bond_atom_site_label_1
_geom_bond_atom_site_label_2
_ccdc_geom_bond_type
C26   C30   D    
C33   H10   S    
C23   O31   S    
C40   H26   S    
O12   C5    A    
O22   C35   S    
C43   H38   S    
O1    V3    S    
C10   C17   S    
C19   C23   S    
C38   H21   S    
O12   V1    S    
O27   H31   S    
C35   H15   S    
C10   C14   S    
C44   H41   S    
C14   C21   S    
C36   H18   S    
C33   C34   S    
O13   V3    S    
C41   H33   S    
O7    V2    S    
C22   O30   S    
O11   V2    S    
O8    V1    S    
O4    C1    A    
C34   H12   S    
C13   O25   S    
O9    C8    A    
O30   C43   S    
O10   C7    A    
O16   V4    S    
C11   C23   S    
O11   C6    A    
C12   C24   S    
C35   C36   S    
C10   C22   S    
C46   H47   S    
O5    C1    A    
C24   O32   S    
H1    C26   S    
C9    C21   S    
C16   C20   S    
O7    C3    A    
C11   C20   S    
O8    C4    A    
C48   H51   S    
C34   H11   S    
C7    C17   S    
C13   C17   S    
C16   O28   S    
O25   H29   S    
C36   H17   S    
O17   V4    S    
O15   C5    A    
O14   V4    S    
C35   H14   S    
C38   H22   S    
O17   C7    A    
O18   C8    A    
C44   H42   S    
O9    V1    S    
C11   C15   S    
O3    V4    S    
O10   V2    S    
C36   H16   S    
C14   O26   S    
C37   H19   S    
O23   C37   S    
C34   H13   S    
C47   H49   S    
C15   O27   S    
O6    C2    A    
H2    C25   S    
C39   H25   S    
O26   H30   S    
O5    V1    S    
O6    V2    S    
C31   O24   S    
O1    C4    A    
V2    O20   S    
H4    C27   S    
O2    C3    A    
C8    C18   S    
O31   C45   S    
O3    C2    A    
C14   C18   S    
C48   H52   S    
O18   V3    S    
O16   C6    A    
C40   H28   S    
C37   H20   S    
O13   V1    S    
C48   H50   S    
O14   V2    S    
C42   H37   S    
C47   C48   S    
C9    H5    S    
C12   C19   S    
C39   C40   S    
C11   H7    S    
O32   C47   S    
C5    C19   S    
C38   H23   S    
C12   H8    S    
C6    C20   S    
O4    V3    S    
C30   O21   S    
O2    V4    S    
C27   C31   D    
C43   H39   S    
C25   C29   D    
H3    C28   S    
C37   C38   S    
O29   C41   S    
V1    O19   S    
C28   C32   D    
C29   O22   S    
C45   C46   S    
C42   H36   S    
C47   H48   S    
O24   C39   S    
C18   C22   S    
C44   H40   S    
C9    C18   S    
C16   C23   S    
C15   C19   S    
C39   H24   S    
C46   H45   S    
C41   H34   S    
C17   C21   S    
V3    O19   S    
C33   H9    S    
V4    O20   S    
C13   C22   S    
C9    C13   S    
C29   C30   S    
C32   O23   S    
C10   H6    S    
C43   C44   S    
C31   C32   S    
C21   O29   S    
C15   C24   S    
C12   C16   S    
C40   H27   S    
O21   C33   S    
O28   H32   S    
C46   H46   S    
C45   H43   S    
C42   H35   S    
C45   H44   S    
C20   C24   S    
O15   V3    S    
C41   C42   S    
