data_mof_unit_43676.cif
_audit_creation_date              2012-12-11T15:52:31-0500
_audit_creation_method            fapswitch 2.2
_symmetry_space_group_name_H-M    P1
_symmetry_Int_Tables_number       1
_space_group_crystal_system       triclinic
_cell_length_a                    6.927945
_cell_length_b                    14.537265
_cell_length_c                    16.029498
_cell_angle_alpha                 90.250373
_cell_angle_beta                  89.940186
_cell_angle_gamma                 90.086346
_cell_volume                      1614.36668545

loop_
_atom_site_label
_atom_site_type_symbol
_atom_type_description
_atom_site_fract_x
_atom_site_fract_y
_atom_site_fract_z
_atom_type_partial_charge
O1    O     O_R   0.494400 0.415640 0.412830 -0.538989
O2    O     O_R   0.823920 0.405510 0.586560 -0.544517
O3    O     O_R   0.994250 0.584360 0.587170 -0.541283
C1    C     C_R   0.654782 0.383219 0.615386 0.681342
O4    O     O_R   0.824110 0.404610 0.413450 -0.543674
O5    O     O_R   0.994440 0.583460 0.412820 -0.539566
C2    C     C_R   0.655052 0.382244 0.384291 0.698455
O6    O     O_R   0.494210 0.416540 0.587180 -0.541670
O7    O     O_3   0.660810 0.558680 0.500000 -0.368528
V1    V     V_3+5 0.935650 0.489110 0.500000 1.398510
O8    O     O_R   0.324150 0.594490 0.413440 -0.537256
C3    C     C_R   0.155377 0.616438 0.384395 0.721237
O9    O     O_R   0.323970 0.595390 0.586550 -0.546498
C4    C     C_R   0.155175 0.617810 0.615484 0.651023
V2    V     V_3+5 0.435660 0.510890 0.500000 1.404616
O10   O     O_3   0.160630 0.441320 0.500000 -0.370779
C5    C     C_3   0.046771 0.645054 0.764205 -0.343922
H1    H     H_    0.898813 0.620908 0.748148 0.143340
H2    H     H_    0.129958 0.583914 0.785059 0.134313
C6    C     C_3   0.034203 0.716162 0.836683 -0.271204
H3    H     H_    0.111741 0.689043 0.892103 0.170404
H4    H     H_    0.880315 0.725687 0.854665 0.175315
H5    H     H_    0.877278 0.752144 0.641566 0.140337
H6    H     H_    0.858673 0.856678 0.748458 0.136013
C7    C     C_3   0.025685 0.773405 0.659995 -0.314961
C8    C     C_3   0.349179 0.721457 0.712404 -0.317379
C9    C     C_3   0.144763 0.687805 0.686206 0.115757
H7    H     H_    0.423535 0.753570 0.658229 0.134914
H8    H     H_    0.438535 0.661988 0.732568 0.139453
C10   C     C_3   0.123198 0.809771 0.810641 0.085946
C11   C     C_3   0.012996 0.844471 0.732575 -0.333601
C12   C     C_3   0.336732 0.792131 0.784467 -0.310079
H9    H     H_    0.420478 0.766112 0.838689 0.157057
H10   H     H_    0.405362 0.857709 0.764384 0.131303
H11   H     H_    0.074685 0.911336 0.711933 0.123541
C13   C     C_R   0.978446 0.737532 0.189007 0.464481
C14   C     C_R   0.991002 0.677518 0.257327 -0.221139
H12   H     H_    0.882907 0.624374 0.265113 0.178533
C15   C     C_R   0.144390 0.682720 0.314229 -0.129350
C16   C     C_R   0.286251 0.750324 0.302664 -0.129449
H13   H     H_    0.406287 0.756024 0.345624 0.126207
C17   C     C_R   0.271844 0.813103 0.236926 -0.142867
H14   H     H_    0.380548 0.866405 0.231799 0.155848
C18   C     C_R   0.118774 0.808472 0.179180 -0.185946
C19   C     C_R   0.812213 0.274476 0.716210 -0.158139
H15   H     H_    0.952959 0.293182 0.692189 0.116148
C20   C     C_R   0.801379 0.209755 0.780411 -0.154685
H16   H     H_    0.934244 0.180493 0.803827 0.114737
C21   C     C_R   0.621788 0.183201 0.813766 -0.038977
C22   C     C_R   0.453318 0.223071 0.781128 -0.157250
H17   H     H_    0.312571 0.204368 0.805151 0.115552
C23   C     C_R   0.464151 0.287787 0.716924 -0.155333
H18   H     H_    0.331283 0.317042 0.693503 0.118102
C24   C     C_R   0.643738 0.314327 0.683557 -0.045293
C25   C     C_R   0.812179 0.274396 0.281097 -0.147089
H19   H     H_    0.953015 0.293032 0.305080 0.115596
C26   C     C_R   0.801107 0.210500 0.215580 -0.147115
H20   H     H_    0.933969 0.181748 0.191309 0.114002
C27   C     C_R   0.621428 0.184020 0.182048 -0.046528
C28   C     C_R   0.453142 0.223299 0.215944 -0.153780
H21   H     H_    0.312312 0.204669 0.191950 0.114939
C29   C     C_R   0.464216 0.287198 0.281463 -0.141619
H22   H     H_    0.331363 0.315963 0.305731 0.119368
C30   C     C_R   0.643890 0.313619 0.315039 -0.045112
O11   O     O_R   0.771300 0.080930 0.910090 -0.550050
O12   O     O_R   0.441270 0.092800 0.083770 -0.549386
O13   O     O_R   0.271080 0.913920 0.084380 -0.528113
C31   C     C_R   0.610305 0.115268 0.112897 0.677897
O14   O     O_R   0.441580 0.091910 0.910670 -0.550341
O15   O     O_R   0.271390 0.913020 0.910040 -0.546069
C32   C     C_R   0.610730 0.114255 0.881889 0.659964
O16   O     O_R   0.770990 0.081830 0.084440 -0.547170
O17   O     O_3   0.604750 0.938760 0.997250 -0.327457
V3    V     V_3+5 0.329850 0.008280 0.997210 1.443995
O18   O     O_R   0.941680 0.901940 0.910610 -0.532364
C33   C     C_R   0.110956 0.879645 0.881558 0.674340
O19   O     O_R   0.941370 0.902830 0.083720 -0.494854
C34   C     C_R   0.109914 0.878578 0.111213 0.772423
V4    V     V_3+5 0.829860 0.986420 0.997150 1.528125
O20   O     O_3   0.104830 0.056030 0.997180 -0.388862
H23   H     H_    0.093557 0.806225 0.604642 0.120568
S1    S     S_3+6 0.791990 0.716478 0.115671 -0.028886
O21   O     O_2   0.638158 0.788339 0.125685 -0.344790
O22   O     O_2   0.872390 0.720515 0.028700 -0.367881
O23   O     O_3   0.693307 0.612101 0.131116 -0.517854
H24   H     H_    0.582142 0.609198 0.092367 0.363952

loop_
_geom_bond_atom_site_label_1
_geom_bond_atom_site_label_2
_ccdc_geom_bond_type
C7    C11   S    
O12   C31   A    
C25   H19   S    
C8    C12   S    
O11   V4    S    
O17   V3    S    
C1    O6    A    
C20   C21   A    
C6    C10   S    
O19   C34   A    
C8    C9    S    
C14   H12   S    
C13   C14   A    
O16   V4    S    
O5    C3    A    
C10   C11   S    
C26   C27   A    
V2    O10   S    
O12   V3    S    
C5    C6    S    
C28   C29   A    
O14   C32   A    
C29   C30   A    
O8    V2    S    
C13   S1    S    
O15   V3    S    
C22   C23   A    
O1    V2    S    
C4    C9    S    
O7    V1    S    
C19   C20   A    
C27   C28   A    
V3    O20   S    
O9    C4    A    
C7    H23   S    
O13   C34   A    
C17   C18   A    
C23   C24   A    
C5    H1    S    
O19   V4    S    
C5    C9    S    
C15   C16   A    
O4    C2    A    
C19   H15   S    
C28   H21   S    
C12   H10   S    
O2    C1    A    
O18   C33   A    
C29   H22   S    
C27   C31   S    
C10   C33   S    
C20   H16   S    
C31   O16   A    
C25   C30   A    
C22   H17   S    
O17   V4    S    
O14   V3    S    
O13   V3    S    
O23   H24   S    
O3    C4    A    
C16   H13   S    
C6    H4    S    
C19   C24   A    
S1    O21   D    
O6    V2    S    
S1    O22   D    
O9    V2    S    
O15   C33   A    
C11   H11   S    
C13   C18   A    
C17   H14   S    
O2    V1    S    
C23   H18   S    
C1    C24   S    
O1    C2    A    
C16   C17   A    
O5    V1    S    
O8    C3    A    
C7    C9    S    
S1    O23   S    
C8    H7    S    
C12   H9    S    
C3    C15   S    
C25   C26   A    
O7    V2    S    
H6    C11   S    
O4    V1    S    
C14   C15   A    
O3    V1    S    
V1    O10   S    
C10   C12   S    
C26   H20   S    
C18   C34   S    
C5    H2    S    
H5    C7    S    
C2    C30   S    
V4    O20   S    
O11   C32   A    
C6    H3    S    
C8    H8    S    
C21   C22   A    
C21   C32   S    
O18   V4    S    
