data_mof_unit_47592.cif
_audit_creation_date              2013-03-05T15:54:45-0500
_audit_creation_method            fapswitch 2.2
_symmetry_space_group_name_H-M    P1
_symmetry_Int_Tables_number       1
_space_group_crystal_system       triclinic
_cell_length_a                    12.312469
_cell_length_b                    13.216122
_cell_length_c                    15.087723
_cell_angle_alpha                 77.304596
_cell_angle_beta                  101.564168
_cell_angle_gamma                 116.392475
_cell_volume                      2130.56842911

loop_
_atom_site_label
_atom_site_type_symbol
_atom_site_description
_atom_site_fract_x
_atom_site_fract_y
_atom_site_fract_z
_atom_type_partial_charge
O1    O     O_R   0.972510 0.318130 0.526570 -0.531333
O2    O     O_R   0.806530 0.359650 0.490890 -0.612595
C1    C     C_R   0.854835 0.286292 0.513529 0.787740
O3    O     O_R   0.082980 0.479210 0.647590 -0.565432
O4    O     O_R   0.917000 0.520730 0.611900 -0.609350
C2    C     C_R   0.999964 0.500154 0.671063 0.821107
Cu1   Cu    Cu3+1 0.098270 0.475420 0.521130 1.030780
Cu2   Cu    Cu3+1 0.901730 0.524580 0.478870 0.978203
O5    O     O_R   0.193470 0.640350 0.509110 -0.533127
O6    O     O_R   0.027490 0.681870 0.473430 -0.600896
O7    O     O_R   0.083000 0.479270 0.388100 -0.600418
O8    O     O_R   0.917020 0.520790 0.352410 -0.548531
C3    C     C_R   0.144971 0.713207 0.490358 0.844984
C4    C     C_R   0.997651 0.497049 0.328955 0.815762
C5    C     C_R   0.102588 0.520989 0.198134 -0.245318
C6    C     C_R   0.994259 0.496008 0.231529 -0.179085
C7    C     C_R   0.884164 0.472061 0.171742 0.341936
C8    C     C_R   0.886505 0.484630 0.076482 -0.142260
C9    C     C_R   0.996408 0.505293 0.044535 -0.011854
C10   C     C_R   0.103784 0.522577 0.105902 0.086979
C11   C     C_R   0.782011 0.475114 0.012355 0.251886
C12   C     C_R   0.784267 0.474936 0.920000 0.241168
C13   C     C_R   0.891566 0.489124 0.889609 -0.033778
C14   C     C_R   0.998892 0.506776 0.951459 0.009776
C15   C     C_R   0.108393 0.524522 0.920282 0.011618
C16   C     C_R   0.216132 0.544995 0.982265 0.308318
C17   C     C_R   0.212059 0.542679 0.074543 -0.231280
C18   C     C_R   0.894166 0.488431 0.797733 -0.153884
C19   C     C_R   0.000207 0.501879 0.767370 -0.095941
C20   C     C_R   0.106277 0.518533 0.828380 -0.122596
H1    H     H_    0.812968 0.475709 0.749361 0.185391
H2    H     H_    0.294657 0.558086 0.121992 0.181840
C21   C     C_R   0.279123 0.019045 0.387238 -0.160439
H3    H     H_    0.100475 0.883964 0.380913 0.172098
H4    H     H_    0.465829 0.200174 0.321734 0.188934
H5    H     H_    0.252351 0.073111 0.330720 0.162176
C22   C     C_R   0.227350 0.835015 0.481630 -0.140781
C23   C     C_R   0.805623 0.101588 0.618467 0.332335
C24   C     C_R   0.714939 0.015025 0.668056 -0.167465
C25   C     C_R   0.592757 0.983780 0.634763 -0.152918
C26   C     C_R   0.557553 0.028640 0.545655 0.082123
C27   C     C_R   0.647850 0.125022 0.499311 0.009576
C28   C     C_R   0.434762 0.984614 0.502753 -0.010900
C29   C     C_R   0.400907 0.052999 0.425646 0.086025
C30   C     C_R   0.489994 0.150848 0.383478 -0.162690
C31   C     C_R   0.612050 0.181280 0.415958 -0.109151
C32   C     C_R   0.346943 0.871995 0.528342 0.264219
C33   C     C_R   0.192384 0.911337 0.416201 -0.219548
C34   C     C_R   0.771764 0.165469 0.538546 -0.206017
H6    H     H_    0.527387 0.925385 0.680717 0.218246
H7    H     H_    0.678090 0.250786 0.375593 0.214296
C35   C     C_R   0.349444 0.330557 0.647100 -0.198389
H8    H     H_    0.547280 0.292633 0.673028 0.189173
H9    H     H_    0.350323 0.265400 0.704818 0.184599
N1    N     N_R   0.246280 0.438190 0.553160 -0.199754
C36   C     C_R   0.758650 0.645400 0.376034 0.156316
C37   C     C_R   0.661122 0.676179 0.348678 -0.197759
C38   C     C_R   0.557679 0.620859 0.394791 -0.158498
C39   C     C_R   0.550430 0.533431 0.469406 0.008058
C40   C     C_R   0.652816 0.504619 0.494815 0.292282
C41   C     C_R   0.446420 0.474191 0.520131 -0.026083
C42   C     C_R   0.447471 0.387911 0.594631 0.148250
C43   C     C_R   0.546732 0.359797 0.617035 -0.202181
C44   C     C_R   0.647343 0.417531 0.569057 -0.186994
C45   C     C_R   0.340688 0.496366 0.500819 0.096054
C46   C     C_R   0.249780 0.358001 0.625634 0.154137
N2    N     N_R   0.754320 0.561190 0.447410 -0.209758
H10   H     H_    0.331484 0.559596 0.444859 0.120899
H11   H     H_    0.838455 0.688869 0.339799 0.133001
H12   H     H_    0.485113 0.648346 0.370820 0.142176
H13   H     H_    0.719332 0.391103 0.593485 0.197499
H14   H     H_    0.186432 0.538307 0.244463 0.161505
N3    N     N_R   0.381628 0.789962 0.591711 0.109364
O9    O     O_R   0.326198 0.737775 0.664450 -0.333144
O10   O     O_R   0.459807 0.759189 0.572094 -0.340080
N4    N     N_R   0.930945 0.127617 0.652940 0.118170
O11   O     O_R   0.966430 0.129109 0.740086 -0.363983
O12   O     O_R   0.002242 0.125271 0.601115 -0.349537
H15   H     H_    0.739033 0.972404 0.733756 0.210146
H16   H     H_    0.174819 0.315319 0.666733 0.184831
N5    N     N_R   0.769444 0.416207 0.208917 0.121412
O13   O     O_R   0.722948 0.475294 0.233920 -0.310496
O14   O     O_R   0.702676 0.308498 0.203565 -0.361531
H17   H     H_    0.665767 0.743279 0.291521 0.166655
N6    N     N_R   0.676221 0.475284 0.038102 0.204030
O15   O     O_R   0.570913 0.388516 0.028509 -0.217981
O16   O     O_R   0.680780 0.570084 0.053849 -0.256978
N7    N     N_R   0.676897 0.462392 0.856827 0.139101
O17   O     O_R   0.602544 0.362145 0.835279 -0.356054
O18   O     O_R   0.645711 0.547364 0.830344 -0.259928
H18   H     H_    0.186634 0.526769 0.803365 0.220900
N8    N     N_R   0.330739 0.570275 0.952930 0.128753
O19   O     O_R   0.372941 0.652492 0.886118 -0.289751
O20   O     O_R   0.402930 0.526676 0.003385 -0.248363

loop_
_geom_bond_atom_site_label_1
_geom_bond_atom_site_label_2
_geom_bond_distance
_ccdc_geom_bond_type
C26   C27   1.417282 A    
C8    C11   1.420484 A    
N3    O10   1.301824 A    
N3    O9    1.301919 A    
C9    C10   1.411025 A    
Cu1   N1    2.033773 S    
N5    O13   1.301293 A    
C1    C34   1.475228 S    
Cu1   Cu2   2.698445 S    
C23   C34   1.415800 A    
C23   N4    1.433439 S    
C30   C31   1.383600 A    
Cu1   O7    1.969463 S    
C5    H14   1.085185 S    
C16   C17   1.396335 A    
C42   C43   1.388832 A    
C18   C19   1.394209 A    
N4    O12   1.301156 A    
C23   C24   1.392246 A    
O7    C4    1.306604 A    
C16   N8    1.436998 S    
C5    C6    1.395251 A    
C21   H5    1.084089 S    
C36   C37   1.392676 A    
C8    C9    1.418835 A    
C27   C31   1.409533 A    
C44   H13   1.063558 S    
O5    C3    1.299032 A    
N1    C45   1.368415 A    
C40   N2    1.387474 A    
C6    C7    1.416044 A    
C13   C14   1.413742 A    
C12   N7    1.432837 S    
C22   C32   1.413971 A    
C3    C22   1.465053 S    
C39   C40   1.431783 A    
C11   C12   1.399799 A    
C26   C28   1.426318 A    
O3    Cu1   1.967941 S    
N5    O14   1.300844 A    
C35   H9    1.083918 S    
N6    O16   1.300881 A    
C5    C10   1.390053 A    
C11   N6    1.432952 S    
C39   C41   1.441132 A    
C14   C15   1.420789 A    
C32   N3    1.436738 S    
O3    C2    1.298673 A    
C24   C25   1.386312 A    
C38   H12   1.078105 S    
C15   C16   1.414999 A    
N6    O15   1.301138 A    
C31   H7    1.079111 S    
O1    C1    1.301948 A    
C24   H15   1.083119 S    
C28   C29   1.422097 A    
C19   C20   1.397450 A    
Cu2   O8    1.967941 S    
C45   H10   1.076915 S    
N8    O20   1.301084 A    
C7    C8    1.414764 A    
C37   H17   1.082544 S    
C13   C18   1.395093 A    
N4    O11   1.301341 A    
C22   C33   1.398324 A    
C25   C26   1.411169 A    
N7    O18   1.301097 A    
C4    C6    1.465068 S    
H3    C33   1.083547 S    
H4    C30   1.084308 S    
N1    C46   1.353895 A    
C35   C46   1.388151 A    
C29   C30   1.391884 A    
C15   C20   1.400532 A    
Cu1   O5    1.948866 S    
C17   H2    1.084578 S    
O1    Cu1   1.959575 S    
C21   C29   1.397601 A    
C18   H1    1.082761 S    
O2    Cu2   1.948867 S    
O8    C4    1.294541 A    
C20   H18   1.081256 S    
O6    C3    1.301868 A    
O4    Cu2   1.969464 S    
C10   C17   1.398017 A    
C36   N2    1.358176 A    
C46   H16   1.080472 S    
C40   C44   1.406632 A    
O2    C1    1.302301 A    
C38   C39   1.409704 A    
C35   C42   1.401423 A    
H8    C43   1.084018 S    
C37   C38   1.394485 A    
O4    C2    1.299569 A    
C25   H6    1.077238 S    
N8    O19   1.301321 A    
C9    C14   1.406417 A    
C7    N5    1.436424 S    
C41   C42   1.416968 A    
C27   C34   1.419795 A    
C43   C44   1.384616 A    
C41   C45   1.419542 A    
C2    C19   1.457625 S    
N7    O17   1.300295 A    
Cu2   N2    2.021864 S    
Cu2   O6    1.959574 S    
C36   H11   1.081615 S    
C21   C33   1.385626 A    
C12   C13   1.405568 A    
C28   C32   1.420395 A    
