data_mof_unit_55537.cif
_audit_creation_date              2013-03-05T15:48:16-0500
_audit_creation_method            fapswitch 2.2
_symmetry_space_group_name_H-M    P1
_symmetry_Int_Tables_number       1
_space_group_crystal_system       triclinic
_cell_length_a                    11.695162
_cell_length_b                    13.008797
_cell_length_c                    15.597428
_cell_angle_alpha                 91.58713
_cell_angle_beta                  74.289788
_cell_angle_gamma                 100.116033
_cell_volume                      2248.33957595

loop_
_atom_site_label
_atom_site_type_symbol
_atom_site_description
_atom_site_fract_x
_atom_site_fract_y
_atom_site_fract_z
_atom_type_partial_charge
O1    O     O_R   0.419950 0.645670 0.495380 -0.607240
O2    O     O_R   0.580050 0.354330 0.504620 -0.601130
O3    O     O_R   0.611110 0.658410 0.506370 -0.562087
O4    O     O_R   0.388890 0.341590 0.493630 -0.559221
C1    C     C_R   0.521099 0.700401 0.500672 0.833742
C2    C     C_R   0.478946 0.299685 0.499290 0.843767
O5    O     O_R   0.350820 0.490050 0.621260 -0.530664
O6    O     O_R   0.649180 0.509950 0.378740 -0.536355
O7    O     O_R   0.541970 0.502800 0.632250 -0.565009
O8    O     O_R   0.458030 0.497200 0.367750 -0.584527
C3    C     C_R   0.425995 0.491396 0.669237 0.831180
C4    C     C_R   0.573773 0.506055 0.330747 0.847649
Cu1   Cu    Cu3+1 0.386820 0.492450 0.493500 1.015498
Cu2   Cu    Cu3+1 0.613180 0.507550 0.506500 1.028957
C5    C     C_R   0.379382 0.464717 0.766120 -0.218289
C6    C     C_R   0.620953 0.506801 0.232145 -0.240337
C7    C     C_R   0.236911 0.356636 0.888260 0.280689
C8    C     C_R   0.786132 0.531334 0.095586 0.287574
C9    C     C_R   0.263420 0.405862 0.803657 0.234050
C10   C     C_R   0.745370 0.532180 0.188933 0.255992
C11   C     C_R   0.461489 0.481832 0.817251 -0.152995
C12   C     C_R   0.540183 0.476771 0.180708 -0.167238
C13   C     C_R   0.439167 0.431259 0.900159 0.056664
C14   C     C_R   0.579890 0.462745 0.088118 0.065828
C15   C     C_R   0.322633 0.373586 0.939472 -0.162507
C16   C     C_R   0.703576 0.497988 0.043677 -0.173452
C17   C     C_R   0.530668 0.440627 0.945617 -0.088694
C18   C     C_R   0.496962 0.420937 0.038336 -0.079725
C19   C     C_R   0.383112 0.357501 0.077071 0.248328
C20   C     C_R   0.655254 0.465725 0.900780 0.248705
C21   C     C_R   0.296735 0.334442 0.028143 0.259402
C22   C     C_R   0.740333 0.496486 0.949300 0.253770
H1    H     H_    0.444950 0.465517 0.213862 0.204511
H2    H     H_    0.544440 0.535988 0.790842 0.194644
C23   C     C_R   0.464384 0.186775 0.506407 -0.071467
C24   C     C_R   0.535867 0.813443 0.493409 -0.140931
C25   C     C_R   0.634880 0.972758 0.408813 0.131751
C26   C     C_R   0.366702 0.027040 0.590785 0.145283
C27   C     C_R   0.627365 0.866242 0.423925 0.101850
C28   C     C_R   0.374258 0.134231 0.576838 0.036114
C29   C     C_R   0.453558 0.866500 0.552175 0.075693
C30   C     C_R   0.546032 0.133982 0.446590 0.056110
C31   C     C_R   0.454904 0.973291 0.536014 0.079445
C32   C     C_R   0.545987 0.027323 0.462580 0.020850
N1    N     N_R   0.216750 0.481110 0.483710 -0.228281
N2    N     N_R   0.783250 0.518890 0.516290 -0.219416
C33   C     C_R   0.948951 0.612201 0.567708 0.280818
C34   C     C_R   0.051009 0.387502 0.432459 0.261357
C35   C     C_R   0.829351 0.599487 0.561362 0.109460
C36   C     C_R   0.170766 0.400575 0.438502 0.067732
C37   C     C_R   0.853541 0.449028 0.474449 0.143048
C38   C     C_R   0.146446 0.550963 0.525420 0.135130
C39   C     C_R   0.975886 0.458640 0.475965 -0.101208
C40   C     C_R   0.024106 0.541263 0.523921 -0.097047
H3    H     H_    0.186647 0.614008 0.559859 0.166785
H4    H     H_    0.813402 0.386113 0.439809 0.161186
H5    H     H_    0.228097 0.346242 0.405916 0.192021
H6    H     H_    0.771833 0.653460 0.594488 0.162258
N3    N     N_R   0.181633 0.273902 0.071273 0.188520
O9    O     O_R   0.172468 0.174621 0.086795 -0.215918
O10   O     O_R   0.092276 0.321125 0.109447 -0.194341
N4    N     N_R   0.864362 0.523803 0.900870 0.186649
O11   O     O_R   0.921936 0.450770 0.862716 -0.179469
O12   O     O_R   0.909832 0.620906 0.877931 -0.216946
N5    N     N_R   0.990785 0.696329 0.619427 0.116288
O13   O     O_R   0.040648 0.677778 0.681179 -0.253978
O14   O     O_R   0.958932 0.786847 0.616597 -0.333544
N6    N     N_R   0.008292 0.301638 0.382756 0.122602
O15   O     O_R   0.958950 0.318048 0.320159 -0.275314
O16   O     O_R   0.038316 0.210926 0.388638 -0.298548
N7    N     N_R   0.832374 0.561516 0.238632 0.157089
O17   O     O_R   0.842562 0.653051 0.274168 -0.322544
O18   O     O_R   0.912628 0.503387 0.237307 -0.248693
N8    N     N_R   0.171603 0.397088 0.757131 0.173676
O19   O     O_R   0.139453 0.481183 0.734991 -0.247428
O20   O     O_R   0.110257 0.306499 0.746114 -0.282898
N9    N     N_R   0.127386 0.282530 0.917369 0.178794
O21   O     O_R   0.023849 0.313684 0.940797 -0.186544
O22   O     O_R   0.130338 0.183286 0.907798 -0.280905
N10   N     N_R   0.912014 0.566898 0.055402 0.173499
O23   O     O_R   0.955990 0.665989 0.055090 -0.245959
O24   O     O_R   0.985310 0.499935 0.038361 -0.220201
N11   N     N_R   0.360510 0.303618 0.160939 0.130082
O25   O     O_R   0.438592 0.250359 0.174518 -0.320038
O26   O     O_R   0.261542 0.306345 0.223445 -0.286313
N12   N     N_R   0.698078 0.444926 0.807457 0.138445
O27   O     O_R   0.659771 0.355560 0.776188 -0.308608
O28   O     O_R   0.775820 0.514545 0.753626 -0.311470
N13   N     N_3   0.624374 0.188269 0.367615 -0.576592
H7    H     H_    0.572712 0.220879 0.333984 0.251694
H8    H     H_    0.685784 0.247752 0.385149 0.251985
N14   N     N_3   0.372413 0.812592 0.630454 -0.493930
H9    H     H_    0.310726 0.754434 0.611722 0.260163
H10   H     H_    0.421857 0.778380 0.664947 0.220020
N15   N     N_3   0.291830 0.191660 0.635463 -0.535847
H11   H     H_    0.299798 0.185535 0.700200 0.244686
H12   H     H_    0.203913 0.159626 0.634144 0.274551
N16   N     N_3   0.711933 0.809798 0.366466 -0.502060
H13   H     H_    0.706891 0.817748 0.301101 0.262152
H14   H     H_    0.798823 0.843104 0.369608 0.287900
N17   N     N_3   0.735611 0.021988 0.338982 -0.531609
H15   H     H_    0.784993 0.084633 0.364243 0.296555
H16   H     H_    0.705571 0.044911 0.286384 0.288654
N18   N     N_3   0.268603 0.973149 0.660144 -0.487840
H17   H     H_    0.271826 0.006469 0.721378 0.258874
H18   H     H_    0.186978 0.980181 0.647470 0.264634

loop_
_geom_bond_atom_site_label_1
_geom_bond_atom_site_label_2
_geom_bond_distance
_ccdc_geom_bond_type
C15   C21   1.421907 A    
C20   C22   1.405011 A    
C16   C22   1.418004 A    
N17   H15   1.045471 S    
N15   H11   1.045281 S    
C8    C16   1.425718 A    
C31   C32   1.435794 A    
N18   H18   1.045284 S    
Cu2   N2    2.015276 S    
C8    N10   1.432258 S    
N9    O21   1.299453 A    
O5    C3    1.297469 A    
N2    C35   1.360160 A    
N8    O20   1.300599 A    
O1    C1    1.291073 A    
C18   C19   1.422980 A    
C26   C28   1.400959 A    
C14   C16   1.422930 A    
C19   N11   1.439043 S    
N12   O28   1.300497 A    
C1    C24   1.454152 S    
C2    C23   1.452482 S    
C37   H4    1.077043 S    
C21   N3    1.432268 S    
O4    Cu1   1.966967 S    
C23   C30   1.402269 A    
N4    O12   1.300952 A    
C3    C5    1.489160 S    
C4    C6    1.486349 S    
N6    O15   1.300674 A    
N5    O14   1.301230 A    
O6    Cu2   1.921895 S    
C10   N7    1.433952 S    
C13   C17   1.422336 A    
C20   N12   1.440071 S    
C38   H3    1.076623 S    
O6    C4    1.296285 A    
C34   C36   1.409393 A    
N3    O9    1.301074 A    
N17   H16   1.044908 S    
Cu1   Cu2   2.682127 S    
C17   C20   1.418598 A    
C29   C31   1.415375 A    
C24   C29   1.401321 A    
O2    C2    1.290373 A    
C30   C32   1.416405 A    
N14   H10   1.045960 S    
N18   H17   1.045145 S    
C38   C40   1.420604 A    
N9    O22   1.300948 A    
C34   C39   1.420104 A    
N3    O10   1.300887 A    
N8    O19   1.301210 A    
C33   C35   1.409410 A    
N7    O18   1.300436 A    
N12   O27   1.301549 A    
C27   N16   1.434987 S    
C11   H2    1.080149 S    
N1    C38   1.365677 A    
C39   C40   1.415547 A    
N2    C37   1.366280 A    
C35   H6    1.081682 S    
C37   C39   1.420855 A    
C5    C9    1.413624 A    
O7    Cu2   1.910089 S    
N4    O11   1.298685 A    
N11   O25   1.301506 A    
C5    C11   1.391927 A    
C6    C10   1.411732 A    
C7    N9    1.432389 S    
C34   N6    1.436659 S    
O7    C3    1.305683 A    
O3    Cu2   1.966968 S    
O8    C4    1.305574 A    
C33   C40   1.419687 A    
N10   O24   1.300153 A    
N11   O26   1.301094 A    
N16   H13   1.046018 S    
N16   H14   1.045886 S    
C11   C13   1.406123 A    
C12   C14   1.409441 A    
O4    C2    1.291870 A    
O1    Cu1   1.963539 S    
C28   N15   1.435746 S    
Cu1   N1    2.015277 S    
C12   H1    1.079046 S    
C6    C12   1.397136 A    
C36   H5    1.081428 S    
C24   C27   1.395144 A    
C14   C18   1.427757 A    
N10   O23   1.300890 A    
O3    C1    1.292208 A    
O8    Cu1   1.910089 S    
C26   N18   1.437147 S    
N15   H12   1.044868 S    
C30   N13   1.437099 S    
C7    C15   1.427583 A    
C25   C32   1.429011 A    
C23   C28   1.395157 A    
C22   N4    1.428768 S    
C26   C31   1.423316 A    
C19   C21   1.411117 A    
C25   N17   1.436324 S    
N1    C36   1.360335 A    
N13   H8    1.043446 S    
N14   H9    1.043269 S    
C7    C9    1.415284 A    
C8    C10   1.404397 A    
C13   C15   1.417762 A    
O2    Cu2   1.963538 S    
O5    Cu1   1.921893 S    
C29   N14   1.438503 S    
N7    O17   1.299503 A    
C25   C27   1.395482 A    
N5    O13   1.300955 A    
C17   C18   1.410226 A    
N6    O16   1.301240 A    
C9    N8    1.437734 S    
N13   H7    1.046032 S    
C33   N5    1.436861 S    
