data_mof_unit_40553.cif
_audit_creation_date              2012-12-10T20:34:57-0500
_audit_creation_method            fapswitch 2.2
_symmetry_space_group_name_H-M    P1
_symmetry_Int_Tables_number       1
_space_group_crystal_system       triclinic
_cell_length_a                    10.717844
_cell_length_b                    10.683324
_cell_length_c                    9.883227
_cell_angle_alpha                 90.024734
_cell_angle_beta                  90.927663
_cell_angle_gamma                 90.624628
_cell_volume                      1131.435464

loop_
_atom_site_label
_atom_site_type_symbol
_atom_type_description
_atom_site_fract_x
_atom_site_fract_y
_atom_site_fract_z
_atom_type_partial_charge
C1    C     C_R   0.503445 0.260148 0.500100 0.932835
C2    C     C_3   0.878828 0.509907 0.500740 -0.064182
C3    C     C_3   0.929187 0.636307 0.569031 0.564237
C4    C     C_3   0.927211 0.492795 0.349552 0.200801
C5    C     C_R   0.505984 0.064052 0.622602 0.063346
C6    C     C_R   0.520698 0.128786 0.501783 -0.097267
C7    C     C_R   0.555585 0.065224 0.384464 -0.148454
C8    C     C_R   0.554791 0.935689 0.384531 -0.103292
C9    C     C_R   0.518921 0.871752 0.501852 -0.134097
C10   C     C_R   0.504912 0.936286 0.622949 0.151573
C11   C     C_3   0.400584 0.930261 0.721874 0.227322
C12   C     C_R   0.257893 0.502484 0.499674 1.001590
C13   C     C_3   0.403401 0.071997 0.722491 -0.483954
C14   C     C_R   0.439156 0.407493 0.069334 0.187256
C15   C     C_R   0.569822 0.584103 0.073299 -0.098311
C16   C     C_R   0.569879 0.583995 0.929454 -0.002923
C17   C     C_R   0.442496 0.405221 0.926632 0.108012
C18   C     C_3   0.309024 0.369723 0.910579 -0.554805
C19   C     C_3   0.301348 0.381559 0.062964 0.414363
C20   C     C_R   0.502621 0.739962 0.500131 0.924407
C21   C     C_R   0.742168 0.504046 0.500585 0.976005
C22   C     C_3   0.070467 0.393452 0.583890 0.176472
C23   C     C_3   0.927546 0.398437 0.588337 -0.525583
C24   C     C_3   0.078360 0.636466 0.566434 0.046348
C25   C     C_3   0.070344 0.495518 0.354157 -0.497585
C26   C     C_3   0.121425 0.507696 0.501335 -0.053081
H1    H     H_    0.107106 0.395235 0.689102 0.139523
H2    H     H_    0.575937 0.114604 0.291530 0.188444
H3    H     H_    0.575021 0.886470 0.291688 0.191251
H4    H     H_    0.313051 0.888807 0.678691 0.121104
H5    H     H_    0.317205 0.113907 0.679115 0.224806
H6    H     H_    0.437073 0.113934 0.819499 0.246097
H7    H     H_    0.624118 0.653810 0.128440 0.179181
H8    H     H_    0.624125 0.653663 0.876377 0.224480
H9    H     H_    0.255131 0.441183 0.854371 0.197448
H10   H     H_    0.295545 0.272900 0.872429 0.231248
H11   H     H_    0.884148 0.308171 0.555927 0.224333
H12   H     H_    0.899278 0.408177 0.695469 0.219827
H13   H     H_    0.107504 0.572447 0.291289 0.191297
H14   H     H_    0.106525 0.408648 0.308123 0.275963
N1    N     N_R   0.499150 0.499140 0.142800 -0.135060
N2    N     N_R   0.499150 0.499180 0.857150 -0.110631
O1    O     O_R   0.500020 0.316790 0.614690 -0.621948
O2    O     O_R   0.500000 0.316760 0.385350 -0.598427
O3    O     O_R   0.314800 0.500000 0.614670 -0.627229
O4    O     O_R   0.314790 0.499960 0.385330 -0.592173
O5    O     O_R   0.500000 0.683240 0.614650 -0.584071
O6    O     O_R   0.499980 0.683210 0.385310 -0.627666
O7    O     O_R   0.685210 0.500040 0.614670 -0.593649
O8    O     O_R   0.685200 0.500000 0.385330 -0.594649
Zn1   Zn    Zn3+2 0.500010 0.500020 0.653130 1.012057
Zn2   Zn    Zn3+2 0.499990 0.499980 0.346870 1.015375
N3    N     N_3   0.879915 0.592698 0.258830 -0.390354
H15   H     H_    0.932497 0.674860 0.266851 0.215677
H16   H     H_    0.888534 0.566052 0.157606 0.191179
N4    N     N_3   0.129498 0.741877 0.486908 -0.446035
H17   H     H_    0.113130 0.826584 0.536337 0.248697
H18   H     H_    0.088082 0.749427 0.391494 0.216480
Cl1   Cl    Cl    0.860224 0.772480 0.491378 -0.619261
Cl2   Cl    Cl    0.448036 0.866081 0.880782 -0.597527
Cl3   Cl    Cl    0.121425 0.244967 0.520268 -0.626141
N5    N     N_3   0.227062 0.488964 0.102729 -0.440863
H19   H     H_    0.135790 0.474048 0.066615 0.181147
H20   H     H_    0.259913 0.570676 0.056160 0.189494
Cl4   Cl    Cl    0.258267 0.240318 0.147546 -0.548966
N6    N     N_3   0.133747 0.649098 0.704012 -0.416610
H21   H     H_    0.100293 0.581587 0.770726 0.198039
H22   H     H_    0.113496 0.736805 0.744799 0.250163
Cl5   Cl    Cl    0.871916 0.652092 0.739984 -0.643419
N7    N     N_3   0.882572 0.371179 0.293397 -0.415905
H23   H     H_    0.907536 0.363785 0.191819 0.198267
H24   H     H_    0.925676 0.295723 0.341033 0.247972

loop_
_geom_bond_atom_site_label_1
_geom_bond_atom_site_label_2
_ccdc_geom_bond_type
C17   C18   S    
N6    H22   S    
C19   Cl4   S    
C6    C7    A    
C16   N2    A    
C4    N3    S    
C24   N4    S    
C23   H12   S    
C1    O1    A    
C18   H9    S    
C1    C6    S    
C13   H6    S    
C5    C13   S    
N1    Zn2   S    
C24   N6    S    
N2    Zn1   S    
O2    Zn2   S    
C2    C21   S    
C4    N7    S    
C4    C25   S    
C5    C10   A    
C20   O6    A    
N3    H15   S    
C25   H13   S    
C22   Cl3   S    
C11   C13   S    
C14   C17   A    
O1    Zn1   S    
C3    C24   S    
N5    H19   S    
C14   N1    A    
C2    C4    S    
C9    C10   A    
C21   O7    A    
C21   O8    A    
C3    Cl5   S    
N4    H18   S    
N6    H21   S    
C2    C3    S    
C22   H1    S    
N3    H16   S    
C25   H14   S    
C17   N2    A    
C5    C6    A    
C24   C26   S    
C9    C20   S    
C20   O5    A    
C7    C8    A    
C10   C11   S    
C8    H3    S    
C19   N5    S    
C11   Cl2   S    
O4    Zn2   S    
O6    Zn2   S    
N7    H23   S    
N7    H24   S    
N4    H17   S    
C15   N1    A    
C2    C23   S    
C12   O4    A    
C18   C19   S    
C22   C26   S    
O7    Zn1   S    
O8    Zn2   S    
O3    Zn1   S    
C22   C23   S    
C12   O3    A    
N5    H20   S    
C1    O2    A    
C16   H8    S    
C25   C26   S    
C23   H11   S    
C18   H10   S    
C14   C19   S    
C13   H5    S    
O5    Zn1   S    
C7    H2    S    
C15   C16   A    
C11   H4    S    
C12   C26   S    
C8    C9    A    
C15   H7    S    
C3    Cl1   S    
