data_mof_unit_49744.cif
_audit_creation_date              2012-12-10T17:52:17-0500
_audit_creation_method            fapswitch 2.2
_symmetry_space_group_name_H-M    P1
_symmetry_Int_Tables_number       1
_space_group_crystal_system       triclinic
_cell_length_a                    18.947671
_cell_length_b                    10.599033
_cell_length_c                    9.98862
_cell_angle_alpha                 89.58189
_cell_angle_beta                  89.784788
_cell_angle_gamma                 92.107736
_cell_volume                      2004.55768435

loop_
_atom_site_label
_atom_site_type_symbol
_atom_type_description
_atom_site_fract_x
_atom_site_fract_y
_atom_site_fract_z
_atom_type_partial_charge
C1    C     C_R   0.501543 0.260972 0.500394 0.851617
C2    C     C_R   0.849599 0.394363 0.504845 0.094139
C3    C     C_R   0.622752 0.138358 0.611938 -0.175969
C4    C     C_R   0.365168 0.507370 0.499648 0.873275
C5    C     C_R   0.680082 0.075791 0.664248 -0.131343
C6    C     C_R   0.680379 0.944503 0.662736 -0.148683
C7    C     C_R   0.623344 0.875386 0.608939 -0.186173
C8    C     C_R   0.564559 0.937514 0.556415 0.095252
C9    C     C_R   0.564313 0.069660 0.557650 0.085620
C10   C     C_R   0.505994 0.128798 0.500650 -0.088497
C11   C     C_R   0.450823 0.061607 0.439302 -0.225735
C12   C     C_R   0.287380 0.513820 0.496863 -0.156062
C13   C     C_R   0.451010 0.932813 0.438508 -0.201598
C14   C     C_R   0.506400 0.871819 0.498670 -0.079198
C15   C     C_R   0.415296 0.320835 0.140947 -0.132725
C16   C     C_R   0.501720 0.739163 0.499553 0.884673
C17   C     C_R   0.375026 0.230314 0.072064 -0.220089
C18   C     C_R   0.374753 0.230845 0.933401 -0.201382
C19   C     C_R   0.415021 0.321510 0.862763 -0.156445
C20   C     C_R   0.459394 0.410343 0.928927 0.155556
C21   C     C_R   0.459558 0.410071 0.073065 0.156305
C22   C     C_R   0.537920 0.588093 0.068869 0.007644
C23   C     C_R   0.925883 0.380673 0.501232 0.276018
C24   C     C_R   0.537985 0.586809 0.926481 -0.170207
C25   C     C_R   0.634563 0.495287 0.499869 0.825703
C26   C     C_R   0.249049 0.537579 0.612743 0.092207
C27   C     C_R   0.177780 0.497283 0.621229 -0.030201
C28   C     C_R   0.143498 0.450385 0.504371 -0.007859
C29   C     C_R   0.179257 0.461041 0.381119 -0.227424
C30   C     C_R   0.249846 0.501243 0.376262 -0.022268
C31   C     C_R   0.578673 0.691100 0.134022 0.171572
C32   C     C_R   0.647922 0.673056 0.176966 -0.113737
C33   C     C_R   0.687082 0.772122 0.236050 -0.165941
C34   C     C_R   0.067992 0.412271 0.502220 0.305016
C35   C     C_R   0.658184 0.891019 0.247927 -0.122287
C36   C     C_R   0.590473 0.911324 0.199130 -0.130111
C37   C     C_R   0.550967 0.811964 0.141389 -0.127747
C38   C     C_R   0.139573 0.515784 0.748469 0.157472
C39   C     C_R   0.092183 0.613855 0.761220 -0.092285
C40   C     C_R   0.055707 0.629622 0.881577 -0.132623
C41   C     C_R   0.066110 0.547464 0.989290 -0.095852
C42   C     C_R   0.113154 0.449670 0.976896 -0.122560
C43   C     C_R   0.150329 0.434396 0.857311 -0.133682
C44   C     C_R   0.278850 0.557789 0.251209 0.161794
C45   C     C_R   0.817069 0.434001 0.622866 -0.175188
C46   C     C_R   0.277037 0.491543 0.130589 -0.172548
C47   C     C_R   0.312278 0.542275 0.018515 -0.081337
C48   C     C_R   0.350181 0.657854 0.027181 -0.077795
C49   C     C_R   0.347464 0.728491 0.143816 -0.143435
C50   C     C_R   0.311091 0.679565 0.254967 -0.094021
C51   C     C_R   0.747408 0.470451 0.620502 -0.214242
C52   C     C_R   0.709289 0.466453 0.500412 -0.032325
C53   C     C_R   0.741037 0.421691 0.383818 -0.202416
C54   C     C_R   0.810846 0.386607 0.385837 -0.170854
H1    H     H_    0.625173 0.240283 0.613024 0.154003
H2    H     H_    0.568820 0.657811 0.871064 0.155585
H3    H     H_    0.151404 0.445370 0.287988 0.151734
H4    H     H_    0.846238 0.442174 0.715633 0.147671
H5    H     H_    0.723598 0.502360 0.712417 0.154692
H6    H     H_    0.711888 0.412226 0.291310 0.148041
H7    H     H_    0.834922 0.355628 0.293784 0.143104
H8    H     H_    0.406965 0.109122 0.394262 0.138893
H9    H     H_    0.671466 0.582511 0.164378 0.119404
H10   H     H_    0.740002 0.756937 0.271633 0.140044
H11   H     H_    0.688461 0.967667 0.293743 0.142518
H12   H     H_    0.724627 0.129412 0.705070 0.145285
H13   H     H_    0.568466 0.003832 0.206671 0.150555
H14   H     H_    0.498812 0.828926 0.103157 0.118835
H15   H     H_    0.083518 0.677468 0.678029 0.133909
H16   H     H_    0.019173 0.705187 0.891172 0.130170
H17   H     H_    0.037601 0.559326 0.082196 0.140545
H18   H     H_    0.120660 0.385371 0.059757 0.121888
H19   H     H_    0.186794 0.358465 0.848907 0.120775
H20   H     H_    0.251393 0.398787 0.124915 0.122924
H21   H     H_    0.312194 0.489739 0.926246 0.160979
H22   H     H_    0.381448 0.693432 0.943438 0.163491
H23   H     H_    0.725175 0.896078 0.702341 0.137915
H24   H     H_    0.374275 0.820186 0.148858 0.120583
H25   H     H_    0.310392 0.734224 0.346074 0.119960
H26   H     H_    0.626346 0.773717 0.606972 0.140542
H27   H     H_    0.407299 0.880386 0.393248 0.142192
H28   H     H_    0.407293 0.322692 0.246506 0.198238
H29   H     H_    0.341515 0.162742 0.126718 0.147621
H30   H     H_    0.341153 0.163497 0.880171 0.162726
H31   H     H_    0.407552 0.323208 0.757084 0.205943
I1    I     I_    0.282987 0.700804 0.719440 -0.451002
N1    N     N_R   0.031333 0.421397 0.386447 -0.192798
N2    N     N_R   0.961593 0.405986 0.385909 -0.186697
N3    N     N_R   0.962635 0.364427 0.615892 -0.180250
N4    N     N_R   0.032576 0.378811 0.615997 -0.163127
N5    N     N_R   0.499340 0.498800 0.142780 -0.135338
N6    N     N_R   0.499320 0.498720 0.857170 -0.122038
O1    O     O_R   0.500000 0.316780 0.614690 -0.633607
O2    O     O_R   0.499990 0.316750 0.385360 -0.636093
O3    O     O_R   0.398140 0.500000 0.614700 -0.608140
O4    O     O_R   0.398130 0.499970 0.385370 -0.626431
O5    O     O_R   0.500010 0.683250 0.614640 -0.608197
O6    O     O_R   0.500000 0.683220 0.385310 -0.603880
O7    O     O_R   0.601870 0.500030 0.614630 -0.627200
O8    O     O_R   0.601860 0.500000 0.385300 -0.612437
Zn1   Zn    Zn3+2 0.500000 0.500020 0.653130 0.934939
Zn2   Zn    Zn3+2 0.500000 0.499980 0.346870 0.940511

loop_
_geom_bond_atom_site_label_1
_geom_bond_atom_site_label_2
_ccdc_geom_bond_type
C43   H19   S    
N1    N2    A    
O4    Zn2   S    
C41   C42   A    
C48   H22   S    
C19   C20   A    
C11   H8    S    
C50   H25   S    
C36   H13   S    
C7    C8    A    
C53   C54   A    
C20   N6    A    
C26   C27   A    
C40   H16   S    
C28   C29   A    
C38   C39   A    
C16   O5    A    
C35   H11   S    
C27   C38   S    
C37   H14   S    
C13   H27   S    
C49   H24   S    
C18   C19   A    
C4    O4    A    
C3    H1    S    
C25   O7    A    
C31   C32   A    
C8    C9    A    
C18   H30   S    
C22   N5    A    
C23   N3    A    
C4    C12   S    
C9    C10   A    
C41   H17   S    
C28   C34   S    
C13   C14   A    
C30   C44   S    
C24   N6    A    
C42   H18   S    
C53   H6    S    
C44   C46   A    
C15   H28   S    
C2    C45   A    
C45   H4    S    
C22   C31   S    
C51   C52   A    
C2    C54   A    
O1    Zn1   S    
C39   C40   A    
C1    O2    A    
C6    H23   S    
C3    C5    A    
O6    Zn2   S    
C31   C37   A    
C12   C26   A    
C17   H29   S    
C35   C36   A    
C34   N4    A    
C29   C30   A    
C3    C9    A    
C4    O3    A    
C25   O8    A    
C47   C48   A    
C26   I1    S    
O8    Zn2   S    
C17   C18   A    
C39   H15   S    
N6    Zn1   S    
C1    O1    A    
C48   C49   A    
O7    Zn1   S    
C29   H3    S    
C23   N2    A    
C14   C16   S    
C51   H5    S    
C42   C43   A    
N5    Zn2   S    
C46   H20   S    
C52   C53   A    
C21   N5    A    
C44   C50   A    
C15   C17   A    
C46   C47   A    
C40   C41   A    
C8    C14   A    
C12   C30   A    
C1    C10   S    
C32   H9    S    
C5    H12   S    
C19   H31   S    
C6    C7    A    
C54   H7    S    
C24   H2    S    
C32   C33   A    
C25   C52   S    
C47   H21   S    
C38   C43   A    
C11   C13   A    
C16   O6    A    
C5    C6    A    
C33   H10   S    
C33   C35   A    
C22   C24   A    
C34   N1    A    
C10   C11   A    
C15   C21   A    
C20   C21   A    
O2    Zn2   S    
C36   C37   A    
C49   C50   A    
C2    C23   S    
C45   C51   A    
N3    N4    A    
O5    Zn1   S    
O3    Zn1   S    
C7    H26   S    
C27   C28   A    
