data_mof_unit_44619.cif
_audit_creation_date              2012-12-10T18:10:53-0500
_audit_creation_method            fapswitch 2.2
_symmetry_space_group_name_H-M    P1
_symmetry_Int_Tables_number       1
_space_group_crystal_system       triclinic
_cell_length_a                    12.679749
_cell_length_b                    13.037383
_cell_length_c                    15.692195
_cell_angle_alpha                 92.221167
_cell_angle_beta                  103.040697
_cell_angle_gamma                 81.418565
_cell_volume                      2498.85972455

loop_
_atom_site_label
_atom_site_type_symbol
_atom_type_description
_atom_site_fract_x
_atom_site_fract_y
_atom_site_fract_z
_atom_type_partial_charge
C1    C     C_R   0.438424 0.690820 0.481995 0.858487
C2    C     C_R   0.598810 0.198228 0.501745 -0.142445
C3    C     C_R   0.288330 0.843471 0.452775 0.458435
C4    C     C_R   0.501575 0.500385 0.661532 0.867166
C5    C     C_R   0.261808 0.951047 0.459027 -0.276701
C6    C     C_R   0.342547 0.014330 0.467718 -0.253024
C7    C     C_R   0.450734 0.971853 0.463366 0.109256
C8    C     C_R   0.473795 0.865292 0.446712 0.027508
C9    C     C_R   0.536076 0.032342 0.472616 0.031565
C10   C     C_R   0.635069 0.992266 0.447339 0.021921
C11   C     C_R   0.648941 0.890146 0.416897 -0.232232
C12   C     C_3   0.380883 0.492986 0.025756 0.292205
C13   C     C_R   0.569965 0.827125 0.417469 -0.163200
C14   C     C_R   0.524912 0.131938 0.506942 -0.238017
C15   C     C_R   0.695752 0.160755 0.475073 -0.290419
C16   C     C_R   0.561461 0.308404 0.508532 0.889191
C17   C     C_R   0.398679 0.800151 0.458124 -0.236011
C18   C     C_R   0.089713 0.343092 0.376806 0.296379
C19   C     C_R   0.801674 0.619798 0.612568 -0.141247
C20   C     C_R   0.910978 0.626440 0.651250 0.414660
C21   C     C_R   0.990774 0.567857 0.614550 -0.240307
C22   C     C_R   0.964279 0.516847 0.533839 0.016320
C23   C     C_3   0.498982 0.493307 0.082971 0.154734
C24   C     C_R   0.854545 0.501090 0.505310 0.214683
C25   C     C_R   0.043281 0.470576 0.486812 -0.123033
C26   C     C_R   0.013616 0.393084 0.423232 -0.066117
C27   C     C_R   0.908036 0.366103 0.407348 -0.218638
C28   C     C_R   0.498914 0.498399 0.338682 0.863197
C29   C     C_R   0.828424 0.423188 0.444079 -0.200740
C30   C     C_R   0.147451 0.502838 0.496031 0.418063
C31   C     C_R   0.197952 0.363501 0.400916 0.420683
C32   C     C_3   0.384304 0.504732 0.928334 -0.438658
C33   C     C_3   0.555385 0.591572 0.966030 -0.483582
C34   C     C_3   0.568834 0.393140 0.057488 -0.533285
C35   C     C_3   0.541607 0.594661 0.061579 0.374042
C36   C     C_1   0.496977 0.494080 0.249441 -0.193164
C37   C     C_3   0.504455 0.498449 0.918294 0.228093
C38   C     C_3   0.227429 0.538592 0.086108 0.114145
C39   C     C_3   0.159309 0.629151 0.121604 -0.820740
C40   C     C_3   0.892173 0.971890 0.489792 0.084731
C41   C     C_3   0.966743 0.047937 0.536521 -0.856925
C42   C     C_3   0.139579 0.796401 0.357083 0.141743
C43   C     C_3   0.065174 0.713132 0.336439 -0.771016
C44   C     C_3   0.288348 0.291824 0.293882 0.202939
C45   C     C_3   0.572082 0.396717 0.959977 -0.406860
C46   C     C_3   0.295568 0.180678 0.259668 -0.837445
C47   C     C_3   0.001315 0.320244 0.234785 0.097197
C48   C     C_3   0.990821 0.242616 0.159543 -0.844907
C49   C     C_3   0.218117 0.624863 0.601632 0.264064
C50   C     C_3   0.166094 0.724942 0.639384 -0.874642
C51   C     C_3   0.885484 0.779470 0.727901 0.091527
C52   C     C_3   0.951073 0.845674 0.795704 -0.810523
C53   C     C_3   0.726582 0.555315 0.142951 0.141944
C54   C     C_3   0.823018 0.611457 0.183375 -0.851443
C55   C     C_1   0.497293 0.491826 0.174084 -0.041763
C56   C     C_1   0.505957 0.500160 0.826956 -0.062159
C57   C     C_1   0.505073 0.500733 0.751284 -0.198598
C58   C     C_R   0.716693 0.056441 0.451228 0.514640
H1    H     H_    0.344462 0.442441 0.888880 0.147660
H2    H     H_    0.583273 0.749160 0.391880 0.184004
H3    H     H_    0.885214 0.301832 0.364906 0.188742
H4    H     H_    0.736733 0.657284 0.642187 0.148798
H5    H     H_    0.071568 0.556002 0.653942 0.173105
H6    H     H_    0.748316 0.401341 0.426639 0.200915
H7    H     H_    0.642615 0.585514 0.962593 0.189143
H8    H     H_    0.513375 0.665338 0.932789 0.156248
H9    H     H_    0.473200 0.658590 0.062921 0.163352
H10   H     H_    0.538496 0.328511 0.925244 0.182562
H11   H     H_    0.658477 0.391368 0.953743 0.179355
H12   H     H_    0.355786 0.415236 0.031948 0.058401
H13   H     H_    0.531960 0.323893 0.068707 0.181861
H14   H     H_    0.266389 0.484311 0.141150 0.120822
H15   H     H_    0.172251 0.498225 0.034727 0.141202
H16   H     H_    0.117918 0.684547 0.068251 0.260342
H17   H     H_    0.096343 0.600198 0.149596 0.193904
H18   H     H_    0.212691 0.669879 0.173764 0.254195
H19   H     H_    0.942750 0.909631 0.460298 0.178804
H20   H     H_    0.859000 0.933151 0.538177 0.112149
H21   H     H_    0.921200 0.106676 0.573046 0.246806
H22   H     H_    0.036960 0.005371 0.583578 0.217687
H23   H     H_    0.652841 0.379712 0.098430 0.174299
H24   H     H_    0.998335 0.087868 0.488291 0.271360
H25   H     H_    0.189065 0.791544 0.306196 0.120188
H26   H     H_    0.086899 0.873182 0.352864 0.133955
H27   H     H_    0.013313 0.715788 0.385080 0.266614
H28   H     H_    0.011180 0.726608 0.270374 0.191906
H29   H     H_    0.114894 0.635319 0.337177 0.255822
H30   H     H_    0.364957 0.320077 0.289149 0.152192
H31   H     H_    0.220510 0.342104 0.250801 0.089754
H32   H     H_    0.224551 0.145013 0.268308 0.294181
H33   H     H_    0.296959 0.179672 0.189143 0.191518
H34   H     H_    0.753156 0.212581 0.469717 0.175701
H35   H     H_    0.371688 0.133794 0.296145 0.255609
H36   H     H_    0.040808 0.384771 0.217270 0.102492
H37   H     H_    0.917323 0.353444 0.240356 0.137267
H38   H     H_    0.952639 0.176607 0.175530 0.266271
H39   H     H_    0.938686 0.280890 0.099381 0.201178
H40   H     H_    0.072554 0.212984 0.146856 0.250134
H41   H     H_    0.299679 0.641721 0.600294 0.189330
H42   H     H_    0.231771 0.558100 0.646723 0.078363
H43   H     H_    0.076000 0.738073 0.616127 0.278663
H44   H     H_    0.187325 0.721992 0.711963 0.218209
H45   H     H_    0.721446 0.857955 0.393968 0.176938
H46   H     H_    0.196976 0.793088 0.618425 0.248627
H47   H     H_    0.805141 0.777987 0.744746 0.143835
H48   H     H_    0.872467 0.816988 0.662920 0.117730
H49   H     H_    0.031590 0.849489 0.780087 0.252941
H50   H     H_    0.905930 0.925521 0.795621 0.203311
H51   H     H_    0.964420 0.811852 0.861834 0.259882
H52   H     H_    0.745483 0.513070 0.084208 0.128489
H53   H     H_    0.719312 0.499845 0.192535 0.149493
H54   H     H_    0.808777 0.652965 0.243853 0.266359
H55   H     H_    0.899004 0.554759 0.200418 0.187278
H56   H     H_    0.456041 0.161238 0.535161 0.172475
H57   H     H_    0.833843 0.668307 0.136257 0.258337
H58   H     H_    0.316521 0.096690 0.471942 0.200914
H59   H     H_    0.178586 0.985629 0.458535 0.167702
H60   H     H_    0.336823 0.580158 0.902232 0.202169
N1    N     N_R   0.222200 0.444690 0.455710 -0.205371
N2    N     N_R   0.776960 0.554780 0.543830 -0.147265
O1    O     O_R   0.366740 0.627160 0.478850 -0.549302
O2    O     O_3   0.810528 0.021911 0.421256 -0.627010
O3    O     O_3   0.207086 0.780957 0.442032 -0.563542
O4    O     O_3   0.282767 0.292158 0.382827 -0.580116
O5    O     O_3   0.061629 0.269311 0.312926 -0.590473
O6    O     O_3   0.157313 0.606936 0.515981 -0.563636
O7    O     O_3   0.943305 0.677787 0.729804 -0.605191
O8    O     O_3   0.630684 0.628690 0.123505 -0.605351
O9    O     O_R   0.544830 0.662520 0.507140 -0.623046
O10   O     O_R   0.410920 0.482310 0.608710 -0.650640
O11   O     O_R   0.589010 0.517670 0.637000 -0.598764
O12   O     O_R   0.455170 0.337480 0.492860 -0.556974
O13   O     O_R   0.633260 0.372840 0.521150 -0.635339
O14   O     O_R   0.410990 0.482330 0.363000 -0.622650
O15   O     O_R   0.589080 0.517690 0.391290 -0.630449
O16   O     O_3   0.306947 0.576146 0.050181 -0.614205
Zn1   Zn    Zn3+2 0.381090 0.476390 0.481110 0.975374
Zn2   Zn    Zn3+2 0.618910 0.523610 0.518890 0.920726

loop_
_geom_bond_atom_site_label_1
_geom_bond_atom_site_label_2
_ccdc_geom_bond_type
C53   H52   S    
O15   Zn2   S    
C30   O6    S    
C50   H46   S    
C8    C13   A    
C27   C29   A    
C28   O15   A    
C19   C20   A    
C18   C26   A    
C41   H22   S    
C33   H7    S    
C7    C8    A    
C13   H2    S    
C53   C54   S    
C49   O6    S    
C12   C23   S    
C26   C27   A    
C28   O14   A    
C10   C58   A    
C31   O4    S    
C1    O9    A    
C18   O5    S    
C38   C39   S    
C30   N1    A    
C19   H4    S    
C54   H55   S    
C56   C57   T    
C39   H16   S    
O1    Zn1   S    
C24   C29   A    
C32   C37   S    
C27   H3    S    
C15   H34   S    
C37   C56   S    
O9    Zn2   S    
C52   H49   S    
C44   C46   S    
C22   C25   A    
C4    C57   S    
C42   O3    S    
C34   H23   S    
C38   O16   S    
C2    C16   S    
C9    C10   A    
C53   H53   S    
C29   H6    S    
O13   Zn2   S    
C21   C22   A    
C12   C32   S    
O14   Zn1   S    
C16   O12   A    
C16   O13   A    
C3    O3    S    
C33   H8    S    
C47   O5    S    
C4    O11   A    
C38   H14   S    
C58   O2    S    
C24   N2    A    
C45   H11   S    
C51   C52   S    
N1    Zn1   S    
C42   H26   S    
C20   O7    S    
C4    O10   A    
C46   H33   S    
C25   C26   A    
C14   H56   S    
C44   O4    S    
C33   C37   S    
C5    H59   S    
C43   H27   S    
C9    C14   A    
C48   H39   S    
C53   O8    S    
C49   H41   S    
C47   C48   S    
C35   H9    S    
C51   H47   S    
C23   C34   S    
C6    H58   S    
C54   H57   S    
C45   H10   S    
C54   H54   S    
C34   C45   S    
C39   H18   S    
C2    C15   A    
C31   N1    A    
C40   C41   S    
C19   N2    A    
C50   H44   S    
C39   H17   S    
C15   C58   A    
C40   H20   S    
N2    Zn2   S    
C42   C43   S    
C37   C45   S    
C48   H40   S    
C25   C30   A    
C7    C9    A    
C12   H12   S    
C48   H38   S    
C43   H28   S    
C1    C17   S    
C42   H25   S    
C32   H60   S    
C3    C5    A    
C41   H21   S    
C23   C55   S    
C6    C7    A    
C46   H32   S    
C40   O2    S    
C23   C35   S    
C8    C17   A    
C51   O7    S    
O12   Zn1   S    
C43   H29   S    
C36   C55   T    
C49   H42   S    
C11   C13   A    
C5    C6    A    
C46   H35   S    
C52   H51   S    
C51   H48   S    
C41   H24   S    
C33   C35   S    
C47   H36   S    
C3    C17   A    
C22   C24   A    
C35   O8    S    
C2    C14   A    
C1    O1    A    
C21   H5    S    
C10   C11   A    
C20   C21   A    
C28   C36   S    
C50   H43   S    
C49   C50   S    
C12   O16   S    
O11   Zn2   S    
C47   H37   S    
C40   H19   S    
C52   H50   S    
C11   H45   S    
C18   C31   A    
C32   H1    S    
C44   H30   S    
O10   Zn1   S    
C34   H13   S    
C44   H31   S    
C38   H15   S    
