data_mof_unit_13122.cif
_audit_creation_date              2012-12-10T21:00:40-0500
_audit_creation_method            fapswitch 2.2
_symmetry_space_group_name_H-M    P1
_symmetry_Int_Tables_number       1
_space_group_crystal_system       triclinic
_cell_length_a                    18.153091
_cell_length_b                    18.169335
_cell_length_c                    18.345629
_cell_angle_alpha                 119.888525
_cell_angle_beta                  90.065896
_cell_angle_gamma                 119.90586
_cell_volume                      4289.47366336

loop_
_atom_site_label
_atom_site_type_symbol
_atom_type_description
_atom_site_fract_x
_atom_site_fract_y
_atom_site_fract_z
_atom_type_partial_charge
C1    C     C_R   0.109317 0.220123 0.609812 0.500253
C2    C     C_3   0.449508 0.896808 0.947327 0.034019
C3    C     C_3   0.469327 0.031007 0.065767 0.234896
C4    C     C_3   0.530668 0.968970 0.934194 0.235247
C5    C     C_3   0.414387 0.429588 0.448992 0.248062
C6    C     C_3   0.585586 0.570466 0.551080 0.248207
C7    C     C_3   0.483835 0.403806 0.449134 -0.141222
C8    C     C_3   0.516135 0.596231 0.550921 -0.141809
C9    C     C_3   0.551338 0.499469 0.448689 0.036586
C10   C     C_3   0.448660 0.500584 0.551362 0.037255
C11   C     C_3   0.481183 0.523021 0.447931 0.069454
C12   C     C_R   0.890683 0.779877 0.390188 0.500150
C13   C     C_3   0.518787 0.477022 0.552124 0.069469
C14   C     C_R   0.050830 0.138355 0.830326 -0.097559
C15   C     C_R   0.948996 0.861540 0.169648 -0.097324
C16   C     C_R   0.392673 0.780930 0.888033 0.521968
C17   C     C_R   0.607326 0.219064 0.111956 0.522104
C18   C     C_R   0.051748 0.095388 0.742757 -0.076125
C19   C     C_R   0.948158 0.904567 0.257243 -0.076748
C20   C     C_R   0.006213 0.098481 0.683535 0.059670
C21   C     C_R   0.993752 0.901512 0.316454 0.059670
C22   C     C_R   0.959023 0.144037 0.712597 -0.055927
C23   C     C_3   0.978993 0.425532 0.413455 -0.126158
C24   C     C_R   0.040927 0.855941 0.287356 -0.055619
C25   C     C_R   0.957783 0.186313 0.800094 -0.096352
C26   C     C_R   0.042086 0.813604 0.199831 -0.096014
C27   C     C_R   0.003745 0.183563 0.858913 -0.098090
C28   C     C_R   0.996059 0.816309 0.141022 -0.097385
C29   C     C_R   0.955164 0.943518 0.534817 -0.148455
C30   C     C_R   0.044841 0.056482 0.465184 -0.148370
C31   C     C_R   0.948538 0.892236 0.445062 0.019416
C32   C     C_R   0.051465 0.107764 0.554938 0.019393
C33   C     C_R   0.994436 0.949319 0.409697 -0.034994
C34   C     C_3   0.021011 0.574470 0.586542 -0.126267
C35   C     C_R   0.005564 0.050681 0.590303 -0.035079
C36   C     C_R   0.665696 0.775842 0.934602 0.133226
C37   C     C_R   0.336101 0.220787 0.061968 0.124720
C38   C     C_R   0.625264 0.686920 0.935016 -0.035219
C39   C     C_R   0.376316 0.310632 0.063267 -0.047195
C40   C     C_R   0.110684 0.500622 0.889567 0.513908
C41   C     C_R   0.889289 0.499348 0.110406 0.513814
C42   C     C_R   0.585120 0.683198 0.999611 0.034376
C43   C     C_R   0.415532 0.315522 0.998468 0.036061
C44   C     C_R   0.588158 0.769957 0.065640 -0.103846
C45   C     C_3   0.413713 0.964020 0.966670 -0.142304
C46   C     C_R   0.411570 0.228831 0.930671 -0.105577
C47   C     C_R   0.629866 0.859118 0.066369 -0.138502
C48   C     C_R   0.369996 0.138712 0.928504 -0.143203
C49   C     C_R   0.667899 0.861844 0.000811 -0.055198
C50   C     C_R   0.332954 0.134933 0.994325 -0.042805
C51   C     C_R   0.588929 0.585038 0.052410 -0.148735
C52   C     C_R   0.411182 0.414605 0.947119 -0.149275
C53   C     C_R   0.550075 0.497683 0.054165 0.026726
C54   C     C_R   0.449988 0.502030 0.945492 0.026473
C55   C     C_R   0.460157 0.411262 0.001233 -0.033969
C56   C     C_3   0.586287 0.035947 0.033291 -0.142972
C57   C     C_R   0.540044 0.588223 0.998075 -0.034896
C58   C     C_R   0.131439 0.792476 0.956814 -0.115139
C59   C     C_R   0.867583 0.206904 0.042413 -0.115001
C60   C     C_R   0.111013 0.728355 0.985374 -0.143831
C61   C     C_R   0.888320 0.271284 0.014085 -0.143684
C62   C     C_R   0.033835 0.625625 0.934738 0.025763
C63   C     C_R   0.965713 0.373872 0.064813 0.025947
C64   C     C_R   0.392124 0.500039 0.607948 0.520761
C65   C     C_R   0.607871 0.499977 0.392065 0.520521
C66   C     C_R   0.975661 0.587338 0.854305 0.239509
C67   C     C_3   0.496446 0.036881 0.952637 -0.113554
C68   C     C_R   0.023800 0.411733 0.145087 0.238981
C69   C     C_R   0.996959 0.652955 0.826878 0.025333
C70   C     C_R   0.002188 0.345858 0.172282 0.023115
C71   C     C_R   0.074426 0.754948 0.877022 0.220270
C72   C     C_R   0.924491 0.244022 0.122064 0.219465
C73   C     C_R   0.962639 0.555899 0.019139 -0.164270
C74   C     C_R   0.037247 0.443975 0.980749 -0.164476
C75   C     C_R   0.945368 0.497575 0.053514 0.018296
C76   C     C_R   0.054538 0.502321 0.946393 0.018246
C77   C     C_R   0.982558 0.439949 0.033282 -0.040891
C78   C     C_3   0.503545 0.963096 0.047327 -0.114225
C79   C     C_R   0.017268 0.559857 0.966545 -0.040933
C80   C     C_R   0.393960 0.500869 0.889419 0.508113
C81   C     C_R   0.606048 0.499027 0.110471 0.508028
C82   C     C_R   0.109176 0.500412 0.607959 0.531731
C83   C     C_R   0.890825 0.499589 0.392040 0.531791
C84   C     C_3   0.076309 0.520203 0.478988 -0.108090
C85   C     C_3   0.923695 0.479800 0.521010 -0.107951
C86   C     C_3   0.043125 0.590670 0.512672 0.093406
C87   C     C_3   0.956878 0.409332 0.487326 0.093293
C88   C     C_3   0.947793 0.498472 0.448294 0.059932
C89   C     C_3   0.550495 0.103176 0.052642 0.034137
C90   C     C_3   0.052210 0.501530 0.551704 0.059710
H1    H     H_    0.002963 0.216387 0.926642 0.116525
H2    H     H_    0.078718 0.778801 0.177652 0.108458
H3    H     H_    0.919043 0.900009 0.561905 0.156092
H4    H     H_    0.080959 0.099990 0.438094 0.156102
H5    H     H_    0.699243 0.930928 0.001476 0.100339
H6    H     H_    0.301866 0.065347 0.992821 0.107407
H7    H     H_    0.623190 0.619940 0.884272 0.104784
H8    H     H_    0.378827 0.377178 0.115651 0.107738
H9    H     H_    0.558102 0.768336 0.116250 0.113909
H10   H     H_    0.440820 0.231253 0.879817 0.114635
H11   H     H_    0.139793 0.538877 0.463414 0.143083
H12   H     H_    0.996773 0.783432 0.073271 0.117882
H13   H     H_    0.860213 0.461127 0.536587 0.143320
H14   H     H_    0.632645 0.926206 0.117753 0.108192
H15   H     H_    0.366690 0.071808 0.875899 0.108338
H16   H     H_    0.657829 0.651658 0.093798 0.144406
H17   H     H_    0.342320 0.347945 0.905623 0.143588
H18   H     H_    0.191765 0.871157 0.996750 0.117516
H19   H     H_    0.807092 0.128348 0.002415 0.115023
H20   H     H_    0.156022 0.758435 0.046762 0.126680
H21   H     H_    0.843377 0.241526 0.952814 0.126115
H22   H     H_    0.952893 0.624021 0.765482 0.154221
H23   H     H_    0.086347 0.136275 0.875930 0.120738
H24   H     H_    0.046178 0.374471 0.233564 0.153310
H25   H     H_    0.933227 0.598750 0.032922 0.149309
H26   H     H_    0.066642 0.401106 0.966951 0.149093
H27   H     H_    0.959711 0.362834 0.342763 0.159248
H28   H     H_    0.040298 0.637173 0.657232 0.159709
H29   H     H_    0.495550 0.067312 0.913373 0.123060
H30   H     H_    0.504354 0.932662 0.086612 0.122681
H31   H     H_    0.342707 0.934565 0.940591 0.115827
H32   H     H_    0.657252 0.065208 0.059280 0.116099
H33   H     H_    0.470615 0.325753 0.407833 0.137684
H34   H     H_    0.913429 0.863586 0.124051 0.125212
H35   H     H_    0.529348 0.674280 0.592234 0.134765
H36   H     H_    0.152989 0.738843 0.573926 0.233827
H37   H     H_    0.054486 0.722974 0.551831 0.247027
H38   H     H_    0.847014 0.261160 0.426076 0.234083
H39   H     H_    0.945517 0.277028 0.448168 0.246904
H40   H     H_    0.666475 0.784240 0.829294 0.226352
H41   H     H_    0.699885 0.711523 0.824810 0.227808
H42   H     H_    0.250543 0.231431 0.129778 0.237556
H43   H     H_    0.351039 0.276453 0.191089 0.229676
H44   H     H_    0.149514 0.884907 0.888691 0.320201
H45   H     H_    0.088035 0.060008 0.721098 0.111004
H46   H     H_    0.848912 0.113997 0.110195 0.321061
H47   H     H_    0.891266 0.448394 0.825884 0.332254
H48   H     H_    0.108599 0.550722 0.173752 0.332334
H49   H     H_    0.414285 0.099654 0.127726 0.335846
H50   H     H_    0.585630 0.900241 0.872168 0.325669
H51   H     H_    0.322891 0.319242 0.334324 0.322588
H52   H     H_    0.676676 0.679815 0.666066 0.320784
H53   H     H_    0.438300 0.483351 0.323531 0.233095
H54   H     H_    0.518619 0.610173 0.399014 0.227105
H55   H     H_    0.481362 0.389851 0.601023 0.227366
H56   H     H_    0.911878 0.939953 0.278929 0.111339
H57   H     H_    0.561553 0.516707 0.676552 0.233781
H58   H     H_    0.923064 0.146291 0.667448 0.105556
H59   H     H_    0.076926 0.853711 0.332495 0.105590
H60   H     H_    0.921133 0.221097 0.822242 0.108323
N1    N     N_3   0.090024 0.690661 0.525195 -0.603294
N2    N     N_3   0.909980 0.309342 0.474805 -0.603149
N3    N     N_3   0.704945 0.780238 0.867827 -0.623536
N4    N     N_3   0.299246 0.216529 0.129681 -0.635574
N5    N     N_3   0.459010 0.546074 0.389083 -0.589391
N6    N     N_3   0.540954 0.454011 0.611014 -0.589928
O1    O     O_3   0.251620 0.500000 0.748430 -0.451791
O2    O     O_R   0.570330 0.268390 0.136490 -0.533527
O3    O     O_R   0.134680 0.268390 0.572240 -0.545711
O4    O     O_R   0.865320 0.731610 0.427760 -0.545753
O5    O     O_R   0.306670 0.731630 0.863510 -0.542326
O6    O     O_R   0.693330 0.268370 0.136490 -0.542736
O7    O     O_R   0.135450 0.439270 0.865360 -0.547273
O8    O     O_R   0.864550 0.560730 0.134640 -0.547293
O9    O     O_R   0.429670 0.560710 0.692610 -0.568983
O10   O     O_R   0.570330 0.439290 0.307390 -0.568887
O11   O     O_R   0.308540 0.439240 0.865360 -0.551281
O12   O     O_3   0.748380 0.500000 0.251570 -0.452404
O13   O     O_R   0.691460 0.560760 0.134640 -0.551366
O14   O     O_R   0.133580 0.439310 0.571150 -0.532902
O15   O     O_R   0.866420 0.560690 0.428850 -0.532772
O16   O     O_R   0.430770 0.560690 0.864590 -0.543737
O17   O     O_R   0.569230 0.439310 0.135410 -0.543640
O18   O     O_R   0.133580 0.560760 0.692610 -0.539917
O19   O     O_R   0.866420 0.439240 0.307390 -0.539704
O20   O     O_3   0.092500 0.815663 0.846292 -0.710498
O21   O     O_3   0.906088 0.183058 0.152587 -0.710962
O22   O     O_3   0.898640 0.487273 0.800165 -0.699743
O23   O     O_R   0.134680 0.560740 0.864590 -0.531204
O24   O     O_3   0.101020 0.511630 0.199300 -0.700220
O25   O     O_3   0.437360 0.064345 0.136450 -0.684621
O26   O     O_3   0.562624 0.935631 0.863500 -0.688175
O27   O     O_3   0.323419 0.357329 0.396304 -0.645497
O28   O     O_3   0.676465 0.642856 0.604038 -0.645340
O29   O     O_R   0.865320 0.439260 0.135410 -0.531120
O30   O     O_R   0.306670 0.439270 0.571150 -0.482829
O31   O     O_R   0.693330 0.560730 0.428850 -0.483026
O32   O     O_R   0.135450 0.268370 0.694460 -0.537068
O33   O     O_R   0.864550 0.731630 0.305540 -0.537086
O34   O     O_R   0.429670 0.731610 0.863510 -0.537425
Zn1   Zn    Zn3+2 0.207400 0.586780 0.791530 0.956805
Zn2   Zn    Zn3+2 0.792600 0.413220 0.208470 0.957079
Zn3   Zn    Zn3+2 0.208510 0.413230 0.792630 0.936085
Zn4   Zn    Zn3+2 0.791490 0.586770 0.207370 0.936070
Zn5   Zn    Zn3+2 0.383150 0.586740 0.791530 0.927990
Zn6   Zn    Zn3+2 0.616850 0.413260 0.208470 0.931854
Zn7   Zn    Zn3+2 0.207400 0.413250 0.618010 0.975605
Zn8   Zn    Zn3+2 0.792600 0.586750 0.381990 0.975759

loop_
_geom_bond_atom_site_label_1
_geom_bond_atom_site_label_2
_ccdc_geom_bond_type
C40   O7    A    
C34   H28   S    
C7    C13   S    
H52   O28   S    
C65   O31   A    
C85   C87   S    
C59   H19   S    
C83   O19   A    
O11   Zn3   S    
C14   C18   A    
C2    C4    S    
C76   C79   A    
O5    Zn1   S    
H48   O24   S    
C6    C9    S    
C82   O14   A    
C47   C49   A    
C70   H24   S    
C15   C19   A    
C12   O33   A    
C66   O22   S    
O12   Zn8   S    
O1    Zn3   S    
C60   C62   A    
C19   C21   A    
O10   Zn6   S    
C5    C11   S    
O15   Zn8   S    
C5    C10   S    
C44   H9    S    
O8    Zn4   S    
C58   C71   A    
C1    O32   A    
C66   C69   A    
C21   C33   S    
O7    Zn3   S    
C26   H2    S    
C67   C89   S    
C56   C78   S    
C71   O20   S    
C53   C81   S    
C34   C86   S    
C61   C63   A    
H37   N1    S    
H55   N6    S    
O33   Zn4   S    
H38   N2    S    
H47   O22   S    
C82   O18   A    
C52   H17   S    
C74   C77   A    
C83   O15   A    
C45   C67   S    
H42   N4    S    
C31   C33   A    
O30   Zn7   S    
C27   H1    S    
O12   Zn2   S    
C51   C57   A    
C59   C72   A    
C81   O13   A    
C14   C27   A    
O12   Zn4   S    
C2    C16   S    
C80   O11   A    
C58   H18   S    
H49   O25   S    
C44   C47   A    
C11   N5    S    
O18   Zn1   S    
C48   C50   A    
C83   C88   S    
C23   C87   S    
C4    C56   S    
C84   H11   S    
C73   C75   A    
C84   C90   S    
C72   O21   S    
C38   H7    S    
O9    Zn5   S    
C42   C57   S    
O6    Zn2   S    
C29   H3    S    
C52   C54   A    
C36   N3    S    
C54   C80   S    
C53   C55   A    
C2    C45   S    
C39   C43   A    
C37   C39   A    
C46   C48   A    
C59   C61   A    
C19   H56   S    
C69   C71   A    
C15   H34   S    
C62   C66   A    
C86   C88   S    
H43   N4    S    
C32   C35   A    
C62   C79   S    
C1    O3    A    
C17   O6    A    
C17   C89   S    
H39   N2    S    
C23   C84   S    
C7    H33   S    
O19   Zn2   S    
C5    C7    S    
C39   H8    S    
O4    Zn8   S    
O31   Zn8   S    
C45   H31   S    
C22   H58   S    
C68   O24   S    
H46   O21   S    
C22   C25   A    
C1    C32   S    
H50   O26   S    
C40   C76   S    
C6    O28   S    
C25   H60   S    
H51   O27   S    
C34   C85   S    
C81   O17   A    
O1    Zn7   S    
C78   H30   S    
C34   C90   S    
C13   N6    S    
C64   O9    A    
C2    C78   S    
C41   C75   S    
C40   O23   A    
C9    C11   S    
H36   N1    S    
H53   N5    S    
C48   H15   S    
H41   N3    S    
C74   H26   S    
O17   Zn6   S    
C73   C79   A    
C41   O29   A    
C18   H45   S    
C49   H5    S    
H57   N6    S    
C75   C77   A    
C16   O34   A    
O34   Zn5   S    
C3    O25   S    
C68   C70   A    
C56   C89   S    
C20   C22   A    
O32   Zn3   S    
C87   N2    S    
C12   C31   S    
C21   C24   A    
C41   O8    A    
C74   C76   A    
C61   H21   S    
O29   Zn2   S    
C63   C77   S    
C85   C88   S    
C43   C55   S    
C7    C9    S    
C46   H10   S    
C63   C68   A    
C9    C65   S    
C47   H14   S    
C30   C33   A    
O1    Zn5   S    
C37   N4    S    
C20   C35   S    
C8    C10   S    
C10   C64   S    
C24   C26   A    
C84   C86   S    
C12   O4    A    
C10   C13   S    
C82   C90   S    
C85   H13   S    
C23   H27   S    
C4    C67   S    
C6    C8    S    
C52   C55   A    
H44   O20   S    
C38   C42   A    
O13   Zn4   S    
C16   O5    A    
C25   C27   A    
C14   H23   S    
C29   C35   A    
C26   C28   A    
C73   H25   S    
C3    C89   S    
C23   C88   S    
C4    O26   S    
H54   N5    S    
C36   C38   A    
C42   C44   A    
O1    Zn1   S    
C30   H4    S    
C17   O2    A    
C86   N1    S    
C6    C13   S    
C30   C32   A    
C37   C50   A    
C3    C78   S    
C50   H6    S    
C15   C28   A    
C67   H29   S    
C51   H16   S    
C65   O10   A    
C69   H22   S    
C3    C45   S    
H40   N3    S    
C18   C20   A    
C43   C46   A    
O2    Zn6   S    
C60   H20   S    
C24   H59   S    
C28   H12   S    
C8    H35   S    
O3    Zn7   S    
O23   Zn1   S    
C29   C31   A    
O12   Zn6   S    
C87   C90   S    
C80   O16   A    
O16   Zn5   S    
C70   C72   A    
C51   C53   A    
C8    C11   S    
C58   C60   A    
C5    O27   S    
O14   Zn7   S    
C64   O30   A    
C36   C49   A    
C56   H32   S    
C54   C57   A    
