data_mof_unit_19586.cif
_audit_creation_date              2012-12-10T18:58:09-0500
_audit_creation_method            fapswitch 2.2
_symmetry_space_group_name_H-M    P1
_symmetry_Int_Tables_number       1
_space_group_crystal_system       triclinic
_cell_length_a                    10.615066
_cell_length_b                    9.973042
_cell_length_c                    15.816533
_cell_angle_alpha                 89.867265
_cell_angle_beta                  92.258989
_cell_angle_gamma                 90.328582
_cell_volume                      1673.07692506

loop_
_atom_site_label
_atom_site_type_symbol
_atom_type_description
_atom_site_fract_x
_atom_site_fract_y
_atom_site_fract_z
_atom_type_partial_charge
C1    C     C_R   0.871758 0.500626 0.500145 -0.169285
C2    C     C_R   0.128311 0.497184 0.500259 -0.165024
C3    C     C_R   0.260871 0.499433 0.500050 0.981515
C4    C     C_R   0.739176 0.500283 0.500553 0.941206
C5    C     C_R   0.498982 0.500139 0.339633 0.894525
C6    C     C_R   0.499955 0.499807 0.660370 0.920787
C7    C     C_R   0.460882 0.619175 0.954168 0.116238
C8    C     C_R   0.497455 0.376352 0.044716 0.110539
C9    C     C_R   0.465728 0.620494 0.042914 0.110494
C10   C     C_R   0.496762 0.375823 0.956049 0.111246
C11   C     C_R   0.479260 0.497293 0.912180 -0.002908
C12   C     C_R   0.483843 0.499032 0.086784 0.000752
C13   C     C_1   0.487447 0.498100 0.823180 0.060606
C14   C     C_1   0.489403 0.500108 0.176211 0.046463
C15   C     C_1   0.494330 0.500387 0.251175 -0.153575
C16   C     C_1   0.494189 0.499094 0.748569 -0.151263
C17   C     C_R   0.567878 0.071193 0.560637 0.385999
C18   C     C_R   0.432418 0.928979 0.439250 0.389250
C19   C     C_R   0.432072 0.070889 0.439390 0.389293
C20   C     C_R   0.567736 0.929297 0.560638 0.394112
C21   C     C_R   0.061025 0.501358 0.422404 0.124554
C22   C     C_R   0.939229 0.495195 0.578088 0.114709
C23   C     C_R   0.930303 0.499936 0.422045 0.132848
C24   C     C_R   0.070110 0.490214 0.578138 0.126988
N1    N     N_R   0.500000 0.857200 0.500000 -0.265217
N2    N     N_R   0.500000 0.142800 0.500000 -0.268520
O1    O     O_R   0.316770 0.614620 0.499990 -0.635046
O2    O     O_R   0.683230 0.385380 0.500010 -0.641077
O3    O     O_R   0.683230 0.614620 0.500010 -0.647075
O4    O     O_R   0.316770 0.385380 0.499990 -0.652141
O5    O     O_R   0.499980 0.614630 0.378020 -0.617800
O6    O     O_R   0.500020 0.385370 0.621980 -0.615500
O7    O     O_R   0.500020 0.614630 0.621980 -0.610945
O8    O     O_R   0.499980 0.385370 0.378020 -0.615254
Zn1   Zn    Zn3+2 0.500000 0.653120 0.500000 0.948121
Zn2   Zn    Zn3+2 0.500000 0.346880 0.500000 0.939085
O9    O     O_3   0.640384 0.133477 0.623114 -0.700578
H1    H     H_    0.656949 0.225816 0.605098 0.380499
O10   O     O_3   0.360635 0.866728 0.376553 -0.713550
H2    H     H_    0.345774 0.774065 0.394391 0.378174
O11   O     O_3   0.359373 0.132929 0.377088 -0.709966
H3    H     H_    0.341993 0.224512 0.395653 0.377213
O12   O     O_3   0.640188 0.867305 0.622894 -0.707320
H4    H     H_    0.656053 0.775596 0.604194 0.374964
N3    N     N_2   0.448824 0.741879 0.088657 -0.293220
H5    H     H_    0.384434 0.807360 0.061208 0.231336
C25   C     C_3   0.564720 0.807433 0.117327 -0.757854
H6    H     H_    0.618037 0.842847 0.062431 0.219677
H7    H     H_    0.624638 0.738015 0.156156 0.251783
H8    H     H_    0.542447 0.895070 0.157082 0.251350
N4    N     N_2   0.514708 0.254905 0.910116 -0.286801
H9    H     H_    0.584991 0.191615 0.932166 0.223712
C26   C     C_3   0.401756 0.188447 0.876802 -0.745293
H10   H     H_    0.386127 0.093767 0.912098 0.223281
H11   H     H_    0.413649 0.163998 0.809175 0.263708
H12   H     H_    0.316958 0.252600 0.881552 0.230780
N5    N     N_2   0.444250 0.740026 0.906566 -0.287288
H13   H     H_    0.484637 0.824475 0.933814 0.233940
C27   C     C_3   0.316825 0.762195 0.873898 -0.776519
H14   H     H_    0.252382 0.776202 0.926805 0.223828
H15   H     H_    0.283289 0.676168 0.834421 0.250565
H16   H     H_    0.314422 0.853718 0.833763 0.247016
N6    N     N_2   0.511163 0.255273 0.092470 -0.301030
H17   H     H_    0.573112 0.186401 0.069651 0.217920
C28   C     C_3   0.393655 0.195355 0.117096 -0.705170
H18   H     H_    0.337931 0.160521 0.060368 0.227457
H19   H     H_    0.337251 0.268437 0.152353 0.250441
H20   H     H_    0.413592 0.108113 0.159120 0.255378
N7    N     N_2   0.126485 0.507681 0.345461 -0.320111
H21   H     H_    0.105891 0.429789 0.304446 0.242020
C29   C     C_3   0.124180 0.637063 0.303907 -0.716522
H22   H     H_    0.201316 0.642280 0.258582 0.245226
H23   H     H_    0.137744 0.719164 0.350739 0.261288
H24   H     H_    0.032870 0.651673 0.268488 0.247251
N8    N     N_2   0.874239 0.491194 0.655298 -0.321876
H25   H     H_    0.904070 0.418861 0.698042 0.241310
C30   C     C_3   0.850961 0.619994 0.693610 -0.754503
H26   H     H_    0.915332 0.635040 0.749899 0.224383
H27   H     H_    0.752555 0.622376 0.714560 0.253354
H28   H     H_    0.865105 0.704147 0.648645 0.262333
N9    N     N_2   0.859070 0.503054 0.343646 -0.308430
H29   H     H_    0.782723 0.566555 0.342805 0.224461
C31   C     C_3   0.828043 0.372645 0.308457 -0.767195
H30   H     H_    0.782175 0.385254 0.244639 0.238512
H31   H     H_    0.761925 0.318337 0.349248 0.262497
H32   H     H_    0.914264 0.311612 0.302199 0.243095
N10   N     N_2   0.144139 0.485524 0.655419 -0.313528
H33   H     H_    0.111324 0.544748 0.702985 0.238213
C32   C     C_3   0.176642 0.351964 0.684533 -0.783031
H34   H     H_    0.090779 0.295037 0.700879 0.233787
H35   H     H_    0.240132 0.359064 0.741784 0.234422
H36   H     H_    0.226404 0.296195 0.635438 0.275908

loop_
_geom_bond_atom_site_label_1
_geom_bond_atom_site_label_2
_ccdc_geom_bond_type
C6    O6    A    
N10   H33   S    
N6    C28   S    
C9    N3    S    
O11   H3    S    
C26   H11   S    
C18   O10   S    
N9    H29   S    
C25   H7    S    
C26   H10   S    
C7    C11   A    
C17   N2    A    
O6    Zn2   S    
C22   C24   A    
N5    C27   S    
C20   N1    A    
C17   C20   A    
C18   C19   A    
N7    C29   S    
C19   N2    A    
C4    O2    A    
C31   H30   S    
C28   H19   S    
C32   H35   S    
C4    O3    A    
C30   H26   S    
C26   H12   S    
C30   H27   S    
C27   H14   S    
C18   N1    A    
C22   N8    S    
C10   N4    S    
N9    C31   S    
C25   H8    S    
N3    C25   S    
C27   H15   S    
N4    H9    S    
C10   C11   A    
O10   H2    S    
C29   H23   S    
O1    Zn1   S    
N3    H5    S    
C21   N7    S    
N4    C26   S    
C3    O4    A    
N8    H25   S    
O9    H1    S    
C25   H6    S    
C8    C12   A    
C28   H20   S    
C5    O8    A    
C2    C21   A    
C17   O9    S    
C32   H36   S    
N8    C30   S    
N1    Zn1   S    
N2    Zn2   S    
C31   H31   S    
C12   C14   S    
C1    C23   A    
C21   C23   A    
O12   H4    S    
C2    C24   A    
O5    Zn1   S    
C20   O12   S    
C30   H28   S    
C7    C9    A    
C27   H16   S    
C23   N9    S    
C29   H24   S    
O3    Zn1   S    
C6    O7    A    
O4    Zn2   S    
C1    C4    S    
C3    O1    A    
C2    C3    S    
C29   H22   S    
C11   C13   S    
N5    H13   S    
O7    Zn1   S    
O8    Zn2   S    
N7    H21   S    
C24   N10   S    
C5    C15   S    
C9    C12   A    
C8    N6    S    
C6    C16   S    
N6    H17   S    
C1    C22   A    
C31   H32   S    
O2    Zn2   S    
C8    C10   A    
C28   H18   S    
C13   C16   T    
N10   C32   S    
C14   C15   T    
C32   H34   S    
C7    N5    S    
C19   O11   S    
C5    O5    A    
