data_mof_unit_57003.cif
_audit_creation_date              2013-03-05T16:06:38-0500
_audit_creation_method            fapswitch 2.2
_symmetry_space_group_name_H-M    P1
_symmetry_Int_Tables_number       1
_space_group_crystal_system       triclinic
_cell_length_a                    8.717102
_cell_length_b                    15.707058
_cell_length_c                    22.985598
_cell_angle_alpha                 100.989787
_cell_angle_beta                  88.994842
_cell_angle_gamma                 100.064224
_cell_volume                      3041.52868963

loop_
_atom_site_label
_atom_site_type_symbol
_atom_site_description
_atom_site_fract_x
_atom_site_fract_y
_atom_site_fract_z
_atom_type_partial_charge
P1    P     P_3+3 0.056010 0.422560 0.367570 0.576118
O1    O     O_2   0.889550 0.449620 0.359410 -0.263889
O2    O     O_3   0.130120 0.450560 0.430480 -0.388301
O3    O     O_3   0.674100 0.616440 0.398760 -0.309111
O4    O     O_2   0.740335 0.525844 0.298419 -0.299100
O5    O     O_3   0.991241 0.308230 0.342667 -0.577759
O6    O     O_3   0.775321 0.679878 0.290314 -0.554422
H1    H     H_    0.831744 0.807211 0.282801 0.154113
C1    C     C_3   0.605717 0.760779 0.247969 -0.869538
H2    H     H_    0.634894 0.721168 0.205203 0.315808
H3    H     H_    0.488447 0.732933 0.261531 0.228515
P2    P     P_3+3 0.670430 0.710550 0.550450 0.582297
P3    P     P_3+3 0.142559 0.778596 0.434318 0.504653
O7    O     O_2   0.848070 0.724010 0.533650 -0.318909
O8    O     O_3   0.092910 0.663610 0.428710 -0.426253
O9    O     O_2   0.007249 0.815049 0.468621 -0.352592
O10   O     O_3   0.621108 0.717777 0.628522 -0.549545
O11   O     O_3   0.117311 0.800417 0.363152 -0.440026
C2    C     C_3   0.164067 0.733008 0.320920 0.378950
H4    H     H_    0.093072 0.668367 0.324540 0.113192
H5    H     H_    0.288521 0.730243 0.327884 0.081436
C3    C     C_3   0.138385 0.745381 0.257341 -0.810075
H6    H     H_    0.014279 0.729590 0.244507 0.218378
C4    C     C_3   0.214176 0.746419 0.615953 0.211952
H7    H     H_    0.337388 0.753558 0.602432 0.104449
H8    H     H_    0.134798 0.718603 0.577184 0.111131
C5    C     C_3   0.177368 0.838317 0.643921 0.066221
H9    H     H_    0.073873 0.828647 0.670478 0.140564
Ba1   Ba    Ba6+2 0.856840 0.543240 0.473380 1.737161
C6    C     C_3   0.093147 0.257367 0.308183 0.541212
H10   H     H_    0.214024 0.291557 0.316596 0.115205
C7    C     C_3   0.051161 0.237350 0.237633 -0.139370
H11   H     H_    0.954875 0.272903 0.232820 0.176027
C8    C     C_3   0.710723 0.753335 0.682466 0.606237
C9    C     C_3   0.745760 0.855115 0.695424 -0.827407
H12   H     H_    0.633126 0.875964 0.697072 0.288427
H13   H     H_    0.807614 0.880468 0.658887 0.221637
P4    P     P_3+3 0.133710 0.577520 0.632440 0.608542
O12   O     O_2   0.300150 0.550410 0.640630 -0.273541
O13   O     O_3   0.059590 0.549510 0.569530 -0.403243
O14   O     O_3   0.515610 0.383640 0.601250 -0.294419
O15   O     O_3   0.190765 0.692694 0.658781 -0.471262
P5    P     P_3+3 0.045258 0.222116 0.569912 0.542495
O16   O     O_3   0.613300 0.389650 0.468010 -0.366907
O17   O     O_3   0.096810 0.336470 0.571300 -0.367694
O18   O     O_2   0.175361 0.179831 0.535247 -0.345525
O19   O     O_3   0.064091 0.206391 0.643243 -0.506493
Ba2   Ba    Ba6+2 0.332990 0.456840 0.526630 1.778724
P6    P     P_3+3 0.648824 0.600141 0.320618 0.566165
C10   C     C_3   0.728355 0.762119 0.294720 0.224588
H14   H     H_    0.606104 0.828577 0.240504 0.270769
O20   O     O_3   0.576410 0.610420 0.531990 -0.330690
C11   C     C_3   0.632437 0.258296 0.342427 0.704036
H15   H     H_    0.733803 0.282675 0.372961 0.013006
C12   C     C_3   0.671335 0.180888 0.296956 0.206408
H16   H     H_    0.783859 0.201689 0.279338 -0.007471
H17   H     H_    0.689017 0.129262 0.319847 0.108641
P7    P     P_3+3 0.519462 0.272828 0.449410 0.559800
O21   O     O_2   0.341630 0.276020 0.466390 -0.263232
O22   O     O_3   0.496480 0.234688 0.372599 -0.554890
H18   H     H_    0.192840 0.696527 0.227821 0.187095
C13   C     C_3   0.982333 0.263710 0.681836 0.117603
H19   H     H_    0.063734 0.325375 0.699925 0.112347
H20   H     H_    0.886584 0.282658 0.658366 -0.000700
C14   C     C_3   0.904086 0.221532 0.733140 0.695944
H21   H     H_    0.814540 0.260659 0.751383 -0.067026
P8    P     P_3+3 0.550061 0.411755 0.678015 0.545185
C15   C     C_3   0.490900 0.253042 0.699309 0.203991
H22   H     H_    0.619224 0.264867 0.697600 -0.015312
O23   O     O_2   0.478587 0.494867 0.700015 -0.328389
O24   O     O_3   0.428527 0.331596 0.709042 -0.491250
H23   H     H_    0.478669 0.138230 0.740461 0.254552
C16   C     C_3   0.443089 0.203675 0.749886 -0.597642
H24   H     H_    0.316016 0.191674 0.750875 0.283439
H25   H     H_    0.819301 0.363684 0.066056 0.193026
H26   H     H_    0.757449 0.349650 0.962659 0.163507
C17   C     C_R   0.340009 0.508460 0.328137 -0.178809
C18   C     C_R   0.148727 0.575926 0.939051 -0.150447
C19   C     C_R   0.104739 0.569128 0.878504 0.634266
O25   O     O_2   0.172364 0.622774 0.850530 -0.523327
N1    N     N_R   0.984999 0.503421 0.851418 -0.166488
C20   C     C_R   0.906110 0.445897 0.885787 0.604956
O26   O     O_2   0.805873 0.384985 0.863253 -0.583599
C21   C     C_R   0.941018 0.454998 0.946794 -0.026280
C22   C     C_R   0.064969 0.519417 0.973518 0.000642
C23   C     C_R   0.276156 0.637709 0.965608 -0.176811
C24   C     C_R   0.322274 0.643887 0.024984 0.557045
C25   C     C_R   0.232042 0.589678 0.061640 -0.229613
C26   C     C_R   0.104638 0.526904 0.034758 -0.047289
C27   C     C_R   0.854413 0.399636 0.981527 -0.050915
C28   C     C_R   0.890103 0.407948 0.041382 -0.079723
C29   C     C_R   0.015577 0.471054 0.068802 -0.053303
C30   C     C_R   0.053601 0.477202 0.129235 0.591537
N2    N     N_R   0.180331 0.537105 0.156861 -0.172193
C31   C     C_R   0.263087 0.595848 0.123650 0.568216
C32   C     C_2   0.793056 0.461913 0.767551 -0.199222
C33   C     C_3   0.761949 0.430845 0.701754 0.062289
C34   C     C_1   0.012282 0.521840 0.686581 0.203953
C35   C     C_2   0.060550 0.516173 0.740780 -0.224596
C36   C     C_2   0.942537 0.493456 0.787771 0.132604
C37   C     C_R   0.392144 0.558429 0.235644 -0.257798
C38   C     C_R   0.444102 0.552974 0.292164 0.261286
C39   C     C_R   0.181452 0.483128 0.314519 0.115956
C40   C     C_R   0.125594 0.503423 0.261906 -0.168577
C41   C     C_R   0.230996 0.535537 0.218521 0.142038
O27   O     O_2   0.972944 0.427531 0.156754 -0.549703
O28   O     O_2   0.360590 0.656131 0.148493 -0.534963
C42   C     C_2   0.866312 0.490601 0.668310 -0.311221
H27   H     H_    0.480200 0.577881 0.204975 0.198068
H28   H     H_    0.343321 0.680425 0.939096 0.246162
H29   H     H_    0.184342 0.526508 0.750633 0.226250
H30   H     H_    0.696421 0.453042 0.797273 0.230205
H31   H     H_    0.001577 0.490785 0.254696 0.226584
H32   H     H_    0.381011 0.495981 0.369139 0.181602
H33   H     H_    0.810450 0.520986 0.638077 0.172743
C43   C     C_R   0.338767 0.829392 0.472973 0.141588
C44   C     C_R   0.571447 0.796555 0.520493 0.163474
C45   C     C_R   0.763232 0.222467 0.509741 -0.339859
C46   C     C_R   0.848096 0.170378 0.535239 0.200913
C47   C     C_R   0.782060 0.081691 0.535758 -0.069704
C48   C     C_R   0.632461 0.043491 0.510513 0.067807
C49   C     C_R   0.555974 0.097608 0.480438 -0.088946
C50   C     C_R   0.558645 0.951343 0.509113 0.085329
C51   C     C_R   0.405745 0.921393 0.482218 0.113185
C52   C     C_R   0.334534 0.986880 0.463042 -0.272344
C53   C     C_R   0.433376 0.052902 0.442748 0.437713
C54   C     C_R   0.629082 0.888940 0.533107 -0.223052
C55   C     C_R   0.428812 0.770275 0.489638 -0.375572
C56   C     C_R   0.615822 0.189964 0.482852 0.114685
H34   H     H_    0.726994 0.911903 0.562240 0.166500
H35   H     H_    0.848610 0.043903 0.556327 0.129705
S1    S     S_3+6 0.320677 0.909958 0.693417 0.053128
O29   O     O_2   0.459983 0.941397 0.658917 -0.256339
O30   O     O_2   0.253044 0.988908 0.722503 -0.197439
O31   O     O_3   0.368393 0.858222 0.745968 -0.424700
H36   H     H_    0.406070 0.905910 0.780029 0.405508
C57   C     C_2   0.137068 0.887111 0.599083 0.937539
O32   O     O_2   0.236860 0.937319 0.579292 -0.620021
O33   O     O_R   0.982840 0.881796 0.584304 -0.820551
H37   H     H_    0.969505 0.928157 0.561314 0.352520
S2    S     S_3+6 0.068498 0.160181 0.342744 0.012846
O34   O     O_2   0.220834 0.152963 0.367937 -0.167226
O35   O     O_2   0.959628 0.172455 0.393936 -0.320019
O36   O     O_3   0.999127 0.062143 0.300064 -0.504227
H38   H     H_    0.884589 0.055786 0.300497 0.358208
C58   C     C_2   0.999773 0.142292 0.207212 1.132218
O37   O     O_2   0.092098 0.090953 0.200346 -0.504919
O38   O     O_R   0.854516 0.116172 0.179039 -0.753038
H39   H     H_    0.837142 0.052631 0.157308 0.357505
S3    S     S_3+6 0.188486 0.278301 0.185368 0.045956
O39   O     O_2   0.275977 0.368261 0.208058 -0.281896
O40   O     O_2   0.302912 0.218057 0.166200 -0.169327
O41   O     O_3   0.086503 0.279785 0.124293 -0.480655
H40   H     H_    0.165562 0.299134 0.095844 0.367964
C59   C     C_2   0.852723 0.715532 0.682515 0.755409
O42   O     O_2   0.890415 0.672291 0.636933 -0.646025
O43   O     O_R   0.935962 0.726039 0.735878 -0.726418
H41   H     H_    0.015389 0.686711 0.735600 0.371313
S4    S     S_3+6 0.593308 0.716177 0.743456 0.079935
O44   O     O_2   0.583876 0.789187 0.795200 -0.200829
O45   O     O_2   0.430411 0.678187 0.722279 -0.157841
O46   O     O_3   0.665142 0.639639 0.771440 -0.463168
H42   H     H_    0.701974 0.601558 0.736974 0.318489
C60   C     C_2   0.829337 0.899424 0.753922 1.337695
O47   O     O_2   0.758961 0.939068 0.793615 -0.532802
O48   O     O_R   0.986474 0.898010 0.762653 -0.726607
H43   H     H_    0.026482 0.929394 0.803674 0.351196
C61   C     C_2   0.692094 0.802501 0.356524 1.102415
O49   O     O_2   0.568406 0.777341 0.378345 -0.667848
O50   O     O_R   0.802347 0.868507 0.388963 -0.747356
H44   H     H_    0.767037 0.891348 0.430103 0.338047
S5    S     S_3+6 0.603197 0.343043 0.307192 0.036365
O51   O     O_2   0.453463 0.318149 0.273519 -0.261063
O52   O     O_2   0.592206 0.419478 0.356011 -0.287486
O53   O     O_3   0.748722 0.363302 0.259938 -0.521740
H45   H     H_    0.698126 0.371297 0.223572 0.407804
S6    S     S_3+6 0.542006 0.137262 0.234354 0.131965
O54   O     O_2   0.553657 0.042066 0.212640 -0.228633
O55   O     O_2   0.377175 0.143235 0.251658 -0.131072
O56   O     O_3   0.595098 0.194264 0.180094 -0.435921
H46   H     H_    0.567873 0.151519 0.142586 0.398226
S7    S     S_3+6 0.025939 0.226822 0.796350 0.026494
O57   O     O_2   0.931365 0.240375 0.851515 -0.243236
O58   O     O_2   0.158374 0.303152 0.800819 -0.294058
O59   O     O_3   0.093421 0.132045 0.793478 -0.466347
H47   H     H_    0.017285 0.095887 0.815328 0.396246
S8    S     S_3+6 0.808441 0.110759 0.708059 -0.023481
O60   O     O_2   0.714518 0.080811 0.757955 -0.206340
O61   O     O_2   0.700374 0.105245 0.656967 -0.386134
O62   O     O_3   0.940912 0.045077 0.687945 -0.482451
H48   H     H_    0.964220 0.048081 0.646136 0.372263
C62   C     C_2   0.429157 0.195808 0.641503 1.148603
O63   O     O_2   0.479860 0.214807 0.595146 -0.652837
O64   O     O_R   0.316952 0.120371 0.640384 -0.696187
H49   H     H_    0.282104 0.091678 0.598520 0.376464
C63   C     C_2   0.505337 0.251930 0.809776 1.232536
O65   O     O_2   0.480751 0.326273 0.829180 -0.555266
O66   O     O_R   0.583391 0.208875 0.844665 -0.705282
H50   H     H_    0.609858 0.244806 0.885811 0.345519
S9    S     S_3+6 0.500079 0.716573 0.048325 0.029407
O67   O     O_2   0.466545 0.793986 0.093086 -0.177612
O68   O     O_2   0.606442 0.668788 0.075667 -0.275016
O69   O     O_3   0.590750 0.753821 0.990494 -0.503878
H51   H     H_    0.687966 0.792518 0.007492 0.391993
C64   C     C_2   0.374555 0.677812 0.472010 1.063935
O70   O     O_2   0.387991 0.642748 0.420974 -0.669543
O71   O     O_R   0.291947 0.632633 0.511576 -0.798494
H52   H     H_    0.223058 0.578896 0.489972 0.381189
C65   C     C_2   0.169955 0.982999 0.448840 1.205897
O72   O     O_2   0.079150 0.997679 0.488665 -0.682913
O73   O     O_R   0.123606 0.977625 0.390415 -0.619764
H53   H     H_    0.013631 0.988901 0.387553 0.400733
C66   C     C_2   0.831564 0.313354 0.510400 1.056902
O74   O     O_2   0.914216 0.332924 0.470045 -0.553902
O75   O     O_R   0.799921 0.376921 0.557361 -0.801352
H54   H     H_    0.836839 0.437770 0.549466 0.342891
S10   S     S_3+6 0.490574 0.006836 0.371802 -0.034828
O76   O     O_2   0.425829 0.050060 0.328158 -0.193157
O77   O     O_2   0.664804 0.016298 0.369075 -0.358533
O78   O     O_3   0.415074 0.899809 0.354210 -0.529772
H55   H     H_    0.455035 0.881460 0.314328 0.360193
C67   C     C_2   0.203900 0.834598 0.244823 1.250152
O79   O     O_2   0.311399 0.843040 0.210346 -0.560544
O80   O     O_R   0.136834 0.907013 0.269943 -0.664381
H56   H     H_    0.189616 0.962635 0.256580 0.412304

loop_
_geom_bond_atom_site_label_1
_geom_bond_atom_site_label_2
_geom_bond_distance
_ccdc_geom_bond_type
P4    O13   1.546891 S    
O69   H51   0.990605 S    
C14   S8    1.783877 S    
N2    C41   1.497814 S    
C30   N2    1.393710 Am   
P2    Ba1   3.507325 S    
C59   O43   1.403730 S    
C47   H35   1.072069 S    
C4    O15   1.404390 S    
C16   H24   1.091262 S    
C2    H4    1.109768 S    
C1    H14   1.109902 S    
C4    C5    1.549383 S    
P4    C34   1.865256 S    
O80   H56   1.013014 S    
O19   C13   1.415263 S    
N1    C20   1.396158 Am   
O59   H47   0.990254 S    
O31   H36   0.990608 S    
O14   P8    1.753218 S    
C66   O74   1.217300 D    
O56   H46   0.990563 S    
S10   O78   1.669170 S    
C3    C67   1.496964 S    
P5    O18   1.546625 D    
C5    C57   1.476793 S    
C6    S2    1.830079 S    
P3    O11   1.759100 S    
O1    Ba1   2.785306 S    
C42   H33   1.080454 S    
C5    H9    1.085252 S    
C60   O47   1.222204 D    
C9    H13   1.091406 S    
C4    H8    1.109646 S    
C8    C9    1.545544 S    
S1    O31   1.674040 S    
P4    O12   1.605574 D    
C7    C58   1.515932 S    
O50   H44   1.008309 S    
C15   C62   1.504608 S    
P7    C56   1.943366 S    
C37   H27   1.077336 S    
O2    Ba2   2.830995 S    
C63   O65   1.222278 D    
C34   C42   1.325974 D    
P1    O1    1.605264 D    
O2    Ba1   3.057572 S    
C45   C46   1.403478 A    
O78   H55   0.983828 S    
S8    O62   1.681481 S    
C13   H20   1.113586 S    
C39   C40   1.422366 A    
C11   S5    1.740595 S    
C65   O73   1.392036 S    
S7    O57   1.501513 D    
C33   C42   1.500554 S    
C21   C22   1.404571 A    
O43   H41   1.004411 S    
O73   H53   1.010315 S    
O16   P7    1.845922 S    
S9    O67   1.503053 D    
S6    O55   1.498135 D    
S3    O41   1.680810 S    
P2    O10   1.824951 S    
S4    O45   1.492238 D    
O66   H50   1.012355 S    
C1    H2    1.109702 S    
P1    C39   1.902543 S    
C49   C56   1.444113 A    
P4    Ba2   3.430853 S    
O3    Ba1   2.879096 S    
S5    O53   1.683044 S    
H25   C28   1.083521 S    
C8    S4    1.845649 S    
C18   C23   1.403374 A    
C61   O50   1.391647 S    
O64   H49   1.009169 S    
C25   C31   1.437326 A    
C5    S1    1.786517 S    
C12   S6    1.795015 S    
O4    P6    1.530556 D    
C17   C38   1.402943 A    
N2    C31   1.403958 Am   
C21   C27   1.406252 A    
C24   S9    1.780661 S    
C8    C59   1.463553 S    
C40   C41   1.445943 A    
P2    O20   1.622513 S    
C11   O22   1.392349 S    
S5    O52   1.494161 D    
O8    Ba1   2.858282 S    
P7    O22   1.755952 S    
C58   O38   1.391728 S    
C14   S7    1.795396 S    
C11   C12   1.527351 S    
C37   C41   1.430528 A    
S8    O61   1.498538 D    
Ba1   Ba2   4.831972 S    
O71   H52   0.996562 S    
C37   C38   1.406047 A    
C50   C51   1.441812 A    
C2    C3    1.535774 S    
C4    H7    1.105540 S    
O6    P6    1.758604 S    
C63   O66   1.396477 S    
S2    O36   1.678918 S    
C28   C29   1.408243 A    
C19   N1    1.394118 Am   
C52   C65   1.465194 S    
C23   C24   1.410245 A    
C15   H22   1.102705 S    
C15   C16   1.529787 S    
C11   H15   1.104998 S    
C19   O25   1.220910 D    
P1    O2    1.546854 S    
S7    O59   1.683370 S    
C62   O64   1.394828 S    
C49   C53   1.387090 A    
O10   C8    1.441186 S    
O75   H54   1.003268 S    
O62   H48   0.986967 S    
C13   H19   1.109567 S    
C30   O27   1.218175 D    
C57   O33   1.376894 S    
C50   C54   1.438834 A    
S4    O44   1.498650 D    
P3    O8    1.762354 S    
C6    H10   1.098116 S    
O33   H37   1.000733 S    
S6    O56   1.682836 S    
C35   H29   1.084186 S    
C32   C33   1.511853 S    
C12   H16   1.075821 S    
P1    Ba1   3.430288 S    
C65   O72   1.214730 D    
S4    O46   1.680220 S    
C12   H17   1.080436 S    
O38   H39   1.014052 S    
C26   C29   1.409610 A    
C67   O80   1.392504 S    
C44   C54   1.425496 A    
C48   C49   1.443339 A    
C31   O28   1.214351 D    
S6    O54   1.503979 D    
C18   C22   1.403526 A    
S1    O30   1.502642 D    
C61   O49   1.215709 D    
O5    C6    1.427430 S    
P2    O7    1.577154 D    
C40   H31   1.074394 S    
C20   O26   1.217335 D    
C20   C21   1.415203 A    
C1    H3    1.103634 S    
Ba1   O16   2.906505 S    
C10   C61   1.493691 S    
C52   C53   1.376017 A    
S3    O40   1.496652 D    
P7    O21   1.598868 D    
S10   O77   1.501344 D    
C55   C64   1.428063 S    
O7    Ba1   2.925653 S    
C17   H32   1.077551 S    
H1    C10   1.109581 S    
P6    C38   1.885599 S    
S5    O51   1.482335 D    
Ba2   O21   2.925936 S    
C58   O37   1.223413 D    
O17   Ba2   2.858855 S    
O13   Ba2   3.058382 S    
C64   O70   1.210217 D    
C22   C26   1.433390 A    
C43   C51   1.437575 A    
C13   C14   1.551286 S    
C23   H28   1.081856 S    
C18   C19   1.429342 A    
C3    H6    1.099297 S    
C54   H34   1.061780 S    
C1    C10   1.523768 S    
O6    C10   1.407136 S    
H23   C16   1.106339 S    
C46   C47   1.413444 A    
C53   S10   1.754744 S    
P3    O9    1.540155 D    
P4    O15   1.779077 S    
N1    C36   1.487682 S    
O46   H42   0.982862 S    
C57   O32   1.211907 D    
P1    O5    1.770970 S    
C9    C60   1.524307 S    
S3    O39   1.485456 D    
C35   C36   1.527072 S    
S9    O69   1.682859 S    
O3    P6    1.777367 S    
O36   H38   0.985972 S    
P8    O23   1.539351 D    
C7    H11   1.104171 S    
S2    O35   1.503556 D    
S10   O76   1.482993 D    
C66   O75   1.383130 S    
S8    O60   1.498350 D    
P5    O17   1.767970 S    
O53   H45   0.990610 S    
S2    O34   1.488690 D    
C62   O63   1.215889 D    
C3    H18   1.091821 S    
C6    C7    1.627497 S    
C27   C28   1.392488 A    
O48   H43   1.013857 S    
C15   O24   1.411739 S    
C32   C36   1.366464 D    
Ba1   O13   2.830369 S    
C60   O48   1.392492 S    
C29   C30   1.415136 A    
C32   H30   1.082052 S    
O14   Ba2   2.878432 S    
S1    O29   1.501094 D    
C45   C66   1.444947 S    
P8    O24   1.750975 S    
C14   H21   1.104890 S    
C67   O79   1.222423 D    
C44   C55   1.399747 A    
S7    O58   1.501392 D    
C48   C50   1.472213 A    
P3    C43   1.912464 S    
C17   C39   1.393609 A    
P8    C33   1.891731 S    
P2    C44   1.956123 S    
Ba2   O20   2.905806 S    
C7    S3    1.806929 S    
C25   C26   1.412960 A    
C24   C25   1.438680 A    
S9    O68   1.503828 D    
C34   C35   1.345631 D    
C43   C55   1.423363 A    
C16   C63   1.499525 S    
P5    C46   1.887428 S    
C59   O42   1.208964 D    
C45   C56   1.404317 A    
O11   C2    1.405196 S    
C47   C48   1.420442 A    
O12   Ba2   2.785800 S    
C9    H12   1.085831 S    
O41   H40   0.990789 S    
C64   O71   1.376111 S    
P5    O19   1.763999 S    
O16   Ba2   3.023833 S    
H26   C27   1.081694 S    
C51   C52   1.429432 A    
C2    H5    1.108900 S    
Ba1   O20   3.024586 S    
