data_mof_unit_13614.cif
_audit_creation_date              2012-12-11T14:43:37-0500
_audit_creation_method            fapswitch 2.2
_symmetry_space_group_name_H-M    P1
_symmetry_Int_Tables_number       1
_space_group_crystal_system       triclinic
_cell_length_a                    20.89299
_cell_length_b                    7.098934
_cell_length_c                    16.340035
_cell_angle_alpha                 89.999936
_cell_angle_beta                  92.672851
_cell_angle_gamma                 89.999942
_cell_volume                      2420.88402216

loop_
_atom_site_label
_atom_site_type_symbol
_atom_type_description
_atom_site_fract_x
_atom_site_fract_y
_atom_site_fract_z
_atom_type_partial_charge
O1    O     O_R   0.564840 0.505290 0.579830 -0.523073
O2    O     O_R   0.435160 0.005290 0.420170 -0.523070
O3    O     O_R   0.556720 0.179930 0.409350 -0.535933
O4    O     O_R   0.443280 0.679930 0.590650 -0.535932
C1    C     C_R   0.570252 0.344751 0.380915 0.811909
C2    C     C_R   0.429748 0.844751 0.619085 0.811906
O5    O     O_R   0.572280 0.175810 0.578530 -0.521483
O6    O     O_R   0.427720 0.675810 0.421470 -0.521479
O7    O     O_R   0.450830 0.001920 0.590540 -0.545811
O8    O     O_R   0.549170 0.501920 0.409460 -0.545810
C3    C     C_R   0.589771 0.345441 0.605384 0.870504
C4    C     C_R   0.410229 0.845442 0.394615 0.870501
O9    O     O_3   0.460130 0.338030 0.503750 -0.380977
O10   O     O_3   0.539870 0.838030 0.496250 -0.380980
V1    V     V_3+5 0.507400 0.064560 0.499310 1.642045
V2    V     V_3+5 0.492600 0.564560 0.500690 1.642049
C5    C     C_R   0.142392 0.899632 0.169052 -0.087400
C6    C     C_R   0.857608 0.399634 0.830948 -0.087399
C7    C     C_R   0.357685 0.865860 0.330270 -0.376355
C8    C     C_R   0.642315 0.365858 0.669730 -0.376354
C9    C     C_R   0.312091 0.045935 0.213722 0.613409
C10   C     C_R   0.687907 0.545924 0.786282 0.613408
C11   C     C_R   0.363523 0.003163 0.268538 0.474727
C12   C     C_R   0.636476 0.503154 0.731464 0.474722
C13   C     C_R   0.299319 0.768180 0.334707 0.540142
C14   C     C_R   0.700682 0.268184 0.665291 0.540137
C15   C     C_R   0.246944 0.812031 0.279829 -0.065388
C16   C     C_R   0.753057 0.312035 0.720169 -0.065390
C17   C     C_R   0.253148 0.953270 0.219251 -0.141126
C18   C     C_R   0.746851 0.453266 0.780751 -0.141126
C19   C     C_R   0.200589 0.997435 0.164757 -0.050206
C20   C     C_R   0.799410 0.497430 0.835246 -0.050206
C21   C     C_R   0.136877 0.760772 0.229802 -0.146659
C22   C     C_R   0.863124 0.260782 0.770194 -0.146659
C23   C     C_R   0.188141 0.718367 0.284737 -0.015418
C24   C     C_R   0.811861 0.218378 0.715259 -0.015420
H1    H     H_    0.181811 0.610010 0.330330 0.184237
H2    H     H_    0.818193 0.110027 0.669663 0.184237
C25   C     C_R   0.378826 0.840365 0.836387 -0.060824
C26   C     C_R   0.621174 0.340362 0.163613 -0.060824
H3    H     H_    0.467696 0.812800 0.777400 0.210861
H4    H     H_    0.532304 0.312797 0.222600 0.210862
H5    H     H_    0.402403 0.828498 0.896640 0.214714
H6    H     H_    0.597597 0.328494 0.103360 0.214714
C27   C     C_R   0.388551 0.852577 0.689889 -0.151424
C28   C     C_R   0.611449 0.352577 0.310111 -0.151425
C29   C     C_R   0.076508 0.903111 0.731298 0.611203
C30   C     C_R   0.923492 0.403112 0.268702 0.611203
C31   C     C_R   0.110317 0.882186 0.660725 -0.202260
C32   C     C_R   0.889683 0.382188 0.339275 -0.202260
C33   C     C_R   0.176911 0.869378 0.665019 -0.152805
C34   C     C_R   0.823089 0.369380 0.334981 -0.152804
C35   C     C_R   0.212451 0.882668 0.740762 0.094380
C36   C     C_R   0.787549 0.382668 0.259238 0.094379
C37   C     C_R   0.177001 0.896559 0.813586 -0.109786
C38   C     C_R   0.822999 0.396559 0.186414 -0.109786
C39   C     C_R   0.281431 0.874011 0.747321 -0.088362
C40   C     C_R   0.718569 0.374010 0.252679 -0.088362
C41   C     C_R   0.312029 0.862373 0.827050 -0.086117
C42   C     C_R   0.687971 0.362371 0.172950 -0.086116
C43   C     C_R   0.275987 0.873644 0.897154 0.667117
C44   C     C_R   0.724013 0.373641 0.102846 0.667117
C45   C     C_R   0.209904 0.893901 0.890412 -0.225970
C46   C     C_R   0.790095 0.393898 0.109588 -0.225971
C47   C     C_R   0.321865 0.877832 0.678840 0.583014
C48   C     C_R   0.678135 0.377833 0.321159 0.583016
C49   C     C_R   0.416395 0.832026 0.768498 -0.251383
C50   C     C_R   0.583605 0.332024 0.231502 -0.251386
C51   C     C_R   0.108884 0.908164 0.808133 -0.178741
C52   C     C_R   0.891116 0.408164 0.191867 -0.178741
H7    H     H_    0.198339 0.841066 0.607894 0.235075
H8    H     H_    0.801661 0.341068 0.392106 0.235076
H9    H     H_    0.084538 0.872385 0.601828 0.171343
H10   H     H_    0.915462 0.372388 0.398172 0.171343
H11   H     H_    0.184477 0.903537 0.946521 0.123053
H12   H     H_    0.815523 0.403534 0.053479 0.123052
O11   O     O_R   0.950790 0.256670 0.090520 -0.531557
O12   O     O_R   0.049210 0.756670 0.909480 -0.531556
O13   O     O_R   0.927720 0.590370 0.921470 -0.535719
O14   O     O_R   0.072280 0.090370 0.078530 -0.535720
C53   C     C_R   0.910269 0.420302 0.894763 0.685818
C54   C     C_R   0.089731 0.920301 0.105237 0.685820
O15   O     O_R   0.943270 0.586180 0.090640 -0.540806
O16   O     O_R   0.056730 0.086180 0.909360 -0.540806
O17   O     O_R   0.064850 0.759970 0.079840 -0.535462
O18   O     O_R   0.935150 0.259970 0.920160 -0.535461
C55   C     C_R   0.930302 0.417628 0.118918 0.764843
C56   C     C_R   0.069698 0.917628 0.881082 0.764844
O19   O     O_3   0.039850 0.428050 0.996240 -0.374134
O20   O     O_3   0.960150 0.928050 0.003760 -0.374134
V3    V     V_3+5 0.992610 0.701540 0.000700 1.511382
V4    V     V_3+5 0.007390 0.201540 0.999300 1.511381
H13   H     H_    0.205580 0.101819 0.117074 0.174034
H14   H     H_    0.794417 0.601807 0.882931 0.174033
F1    F     F_    0.299155 0.916206 0.601608 -0.699651
F2    F     F_    0.700845 0.416208 0.398392 -0.699648
F3    F     F_    0.011542 0.912976 0.724841 -0.699855
F4    F     F_    0.988458 0.412979 0.275159 -0.699856
H15   H     H_    0.092667 0.682329 0.234054 0.175005
H16   H     H_    0.907336 0.182344 0.765941 0.175003
F5    F     F_    0.319892 0.180107 0.155757 -0.602869
F6    F     F_    0.680104 0.680089 0.844250 -0.602865
F7    F     F_    0.419483 0.097975 0.261579 -0.645547
F8    F     F_    0.580514 0.597959 0.738425 -0.645548
F9    F     F_    0.292556 0.637675 0.394558 -0.646627
F10   F     F_    0.707447 0.137688 0.605437 -0.646628
F11   F     F_    0.304963 0.866593 0.973304 -0.649084
F12   F     F_    0.695037 0.366589 0.026696 -0.649082

loop_
_geom_bond_atom_site_label_1
_geom_bond_atom_site_label_2
_ccdc_geom_bond_type
O15   C55   A    
O11   V4    S    
O4    V2    S    
C26   C42   A    
C2    C27   S    
C15   C17   A    
C20   H14   S    
O1    C3    A    
O2    C4    A    
C14   F10   S    
C2    O7    A    
O17   V3    S    
C13   F9    S    
C29   C31   A    
C30   C32   A    
O5    C3    A    
C33   H7    S    
C23   H1    S    
C28   C48   A    
C32   H10   S    
C39   C41   A    
C44   F12   S    
C40   C42   A    
C6    C53   S    
C42   C44   A    
C5    C54   S    
C32   C34   A    
C43   C45   A    
C29   C51   A    
C44   C46   A    
C40   C48   A    
C11   F7    S    
C8    C12   A    
C31   C33   A    
C37   C45   A    
C27   C49   A    
C22   H16   S    
C38   C46   A    
O19   V3    S    
O13   V3    S    
C53   O18   A    
C9    F5    S    
O5    V1    S    
O6    V2    S    
H4    C50   S    
C5    C21   A    
C43   F11   S    
C52   C55   S    
C34   C36   A    
C35   C37   A    
C36   C38   A    
C3    C8    S    
C41   C43   A    
H3    C49   S    
O14   C54   A    
C30   C52   A    
O13   C53   A    
C35   C39   A    
C25   H5    S    
C15   C23   A    
C19   H13   S    
C9    C17   A    
C21   H15   S    
O14   V4    S    
C7    C11   A    
C28   C50   A    
C34   H8    S    
O20   V4    S    
C47   F1    S    
O6    C4    A    
C25   C41   A    
C46   H12   S    
O1    V2    S    
O19   V4    S    
O2    V1    S    
C6    C22   A    
O11   C55   A    
C37   C51   A    
C51   C56   S    
O4    C2    A    
C38   C52   A    
C9    C11   A    
C27   C47   A    
C5    C19   A    
C31   H9    S    
C6    C20   A    
O3    V1    S    
C45   H11   S    
C48   F2    S    
C36   C40   A    
O12   C56   A    
C10   C18   A    
C25   C49   A    
O16   C56   A    
C39   C47   A    
O3    C1    A    
C10   F6    S    
O12   V3    S    
C13   C15   A    
C54   O17   A    
O15   V3    S    
C1    C28   S    
C14   C16   A    
C29   F3    S    
C16   C18   A    
O7    V1    S    
C1    O8    A    
C17   C19   A    
O8    V2    S    
C18   C20   A    
O20   V3    S    
C8    C14   A    
C4    C7    S    
C24   H2    S    
C21   C23   A    
C22   C24   A    
C10   C12   A    
C30   F4    S    
C7    C13   A    
C33   C35   A    
C26   H6    S    
C16   C24   A    
C26   C50   A    
O9    V2    S    
O10   V1    S    
O18   V4    S    
O16   V4    S    
C12   F8    S    
