data_mof_unit_41170.cif
_audit_creation_date              2012-12-10T22:11:07-0500
_audit_creation_method            fapswitch 2.2
_symmetry_space_group_name_H-M    P1
_symmetry_Int_Tables_number       1
_space_group_crystal_system       triclinic
_cell_length_a                    12.112366
_cell_length_b                    12.315413
_cell_length_c                    22.97205
_cell_angle_alpha                 90.95429
_cell_angle_beta                  90.659406
_cell_angle_gamma                 90.657656
_cell_volume                      3425.77732364

loop_
_atom_site_label
_atom_site_type_symbol
_atom_type_description
_atom_site_fract_x
_atom_site_fract_y
_atom_site_fract_z
_atom_type_partial_charge
C1    C     C_R   0.656515 0.998259 0.579671 0.869784
C2    C     C_R   0.343485 0.001741 0.420329 0.869784
C3    C     C_R   0.894496 0.807243 0.128140 -0.215404
C4    C     C_R   0.105504 0.192757 0.871860 -0.215404
C5    C     C_R   0.086998 0.857751 0.190903 -0.233467
C6    C     C_R   0.913002 0.142249 0.809096 -0.233467
C7    C     C_R   0.087148 0.775570 0.149586 -0.186539
C8    C     C_R   0.912852 0.224430 0.850414 -0.186539
C9    C     C_R   0.907243 0.182273 0.206230 -0.122099
C10   C     C_R   0.092757 0.817727 0.793770 -0.122099
C11   C     C_R   0.908214 0.267107 0.167090 0.179831
C12   C     C_R   0.091785 0.732893 0.832909 0.179831
C13   C     C_R   0.115607 0.911175 0.319744 -0.163211
C14   C     C_R   0.884393 0.088825 0.680256 -0.163211
C15   C     C_R   0.197825 0.908896 0.361920 -0.194731
C16   C     C_R   0.802175 0.091104 0.638080 -0.194731
C17   C     C_R   0.885675 0.097175 0.328895 -0.182577
C18   C     C_R   0.114324 0.902825 0.671105 -0.182577
C19   C     C_R   0.805040 0.095772 0.370784 -0.193710
C20   C     C_R   0.194959 0.904228 0.629216 -0.193711
C21   C     C_3   0.994320 0.009655 0.248004 -0.087322
C22   C     C_3   0.005680 0.990345 0.751996 -0.087322
C23   C     C_R   0.655418 0.001510 0.421218 0.874199
C24   C     C_R   0.344582 0.998490 0.578782 0.874199
C25   C     C_R   0.095588 0.006546 0.288295 0.110435
C26   C     C_R   0.904412 0.993454 0.711705 0.110435
C27   C     C_R   0.259492 0.002869 0.374935 -0.023007
C28   C     C_R   0.740508 0.997131 0.625065 -0.023007
C29   C     C_R   0.900281 0.006862 0.291364 0.169834
C30   C     C_R   0.099719 0.993138 0.708636 0.169833
C31   C     C_R   0.741317 0.001976 0.378153 -0.025210
C32   C     C_R   0.258683 0.998024 0.621847 -0.025210
C33   C     C_R   0.995988 0.109842 0.209798 0.084691
C34   C     C_R   0.004011 0.890158 0.790202 0.084692
C35   C     C_R   0.997911 0.276465 0.128563 -0.042722
C36   C     C_R   0.002089 0.723535 0.871437 -0.042722
C37   C     C_R   0.989516 0.914714 0.203812 0.048198
C38   C     C_R   0.010484 0.085286 0.796188 0.048197
C39   C     C_R   0.990819 0.749184 0.118525 -0.082312
C40   C     C_R   0.009181 0.250816 0.881475 -0.082312
C41   C     C_R   0.992704 0.662197 0.075368 0.883913
C42   C     C_R   0.007296 0.337803 0.924632 0.883913
C43   C     C_R   0.998766 0.355270 0.082367 0.878244
C44   C     C_R   0.001234 0.644730 0.917633 0.878244
C45   C     C_R   0.158110 0.100893 0.302314 -0.182068
C46   C     C_R   0.841889 0.899107 0.697686 -0.182069
C47   C     C_R   0.239695 0.098612 0.344865 -0.186441
C48   C     C_R   0.760304 0.901388 0.655135 -0.186441
C49   C     C_R   0.841318 0.910153 0.302477 -0.116020
C50   C     C_R   0.158683 0.089847 0.697523 -0.116019
C51   C     C_R   0.761166 0.908438 0.344818 -0.177130
C52   C     C_R   0.238834 0.091562 0.655182 -0.177131
C53   C     C_R   0.086729 0.124668 0.172976 -0.163224
C54   C     C_R   0.913271 0.875332 0.827024 -0.163224
C55   C     C_R   0.087586 0.206710 0.132914 -0.235929
C56   C     C_R   0.912414 0.793291 0.867086 -0.235929
C57   C     C_R   0.893188 0.891257 0.169195 0.285849
C58   C     C_R   0.106812 0.108742 0.830805 0.285849
H1    H     H_    0.286207 0.172418 0.354753 0.157589
H2    H     H_    0.713792 0.827583 0.645248 0.157589
H3    H     H_    0.857095 0.835167 0.279078 0.133710
H4    H     H_    0.142906 0.164833 0.720922 0.133710
H5    H     H_    0.156504 0.070624 0.174446 0.158283
H6    H     H_    0.843496 0.929376 0.825554 0.158283
H7    H     H_    0.165592 0.877859 0.211269 0.165337
H8    H     H_    0.834408 0.122142 0.788730 0.165338
H9    H     H_    0.833946 0.171312 0.231776 0.178463
H10   H     H_    0.166053 0.828688 0.768224 0.178463
H11   H     H_    0.066010 0.838544 0.312023 0.136837
H12   H     H_    0.933991 0.161456 0.687976 0.136837
H13   H     H_    0.936282 0.169722 0.325140 0.133843
H14   H     H_    0.063718 0.830278 0.674860 0.133843
H15   H     H_    0.714679 0.834034 0.351307 0.156272
H16   H     H_    0.285322 0.165965 0.648694 0.156272
H17   H     H_    0.157287 0.213303 0.103977 0.175244
H18   H     H_    0.842713 0.786697 0.896023 0.175244
H19   H     H_    0.820504 0.788952 0.102712 0.190877
H20   H     H_    0.179496 0.211047 0.897288 0.190877
H21   H     H_    0.163554 0.733075 0.141829 0.172280
H22   H     H_    0.836446 0.266926 0.858171 0.172279
H23   H     H_    0.211049 0.834443 0.385329 0.155244
H24   H     H_    0.788952 0.165556 0.614670 0.155244
H25   H     H_    0.793617 0.167581 0.397827 0.156398
H26   H     H_    0.206382 0.832419 0.602172 0.156398
H27   H     H_    0.141868 0.178151 0.282495 0.143000
H28   H     H_    0.858131 0.821849 0.717505 0.143000
O1    O     O_R   0.621380 0.090460 0.561410 -0.628736
O2    O     O_R   0.378620 0.909540 0.438590 -0.628736
O3    O     O_R   0.617150 0.909540 0.438590 -0.628071
O4    O     O_R   0.382850 0.090460 0.561410 -0.628071
O5    O     O_R   0.619720 0.093230 0.440890 -0.628649
O6    O     O_R   0.380280 0.906770 0.559110 -0.628649
O7    O     O_R   0.618800 0.906770 0.559110 -0.627238
O8    O     O_R   0.381200 0.093230 0.440890 -0.627237
O9    O     O_R   0.087590 0.627480 0.058790 -0.623547
O10   O     O_R   0.912410 0.372520 0.941210 -0.623547
O11   O     O_R   0.905660 0.383870 0.059980 -0.612472
O12   O     O_R   0.094340 0.616130 0.940020 -0.612472
O13   O     O_R   0.092570 0.390420 0.063230 -0.630265
O14   O     O_R   0.907430 0.609580 0.936770 -0.630265
O15   O     O_R   0.900680 0.620930 0.055550 -0.627672
O16   O     O_R   0.099320 0.379070 0.944450 -0.627672
Zn1   Zn    Zn3+2 0.501730 0.123520 0.501540 0.946601
Zn2   Zn    Zn3+2 0.498270 0.876480 0.498460 0.946601
Zn3   Zn    Zn3+2 0.125690 0.504390 0.002180 0.963374
Zn4   Zn    Zn3+2 0.874310 0.495610 0.997820 0.963373
Br1   Br    Br    0.756647 0.969495 0.172742 -0.559488
Br2   Br    Br    0.243353 0.030504 0.827259 -0.559488
C59   C     C_3   0.813230 0.345574 0.167872 -0.857351
H29   H     H_    0.761113 0.335295 0.206929 0.226340
H30   H     H_    0.845138 0.430506 0.168929 0.230215
H31   H     H_    0.759378 0.331693 0.128996 0.271728
C60   C     C_3   0.186769 0.654425 0.832127 -0.857352
H32   H     H_    0.238886 0.664704 0.793071 0.226341
H33   H     H_    0.240621 0.668306 0.871003 0.271728
H34   H     H_    0.154860 0.569494 0.831071 0.230215

loop_
_geom_bond_atom_site_label_1
_geom_bond_atom_site_label_2
_ccdc_geom_bond_type
C16   C28   A    
C1    O1    A    
C56   H18   S    
C23   O5    A    
C5    C37   A    
C11   C59   S    
C53   H5    S    
C17   C29   A    
C19   C31   A    
C9    H9    S    
C39   C41   S    
C29   C49   A    
O12   Zn3   S    
C13   H11   S    
C42   O10   A    
C43   O13   A    
C12   C60   S    
C52   H16   S    
C59   H30   S    
C19   H25   S    
C21   C33   S    
C22   C38   S    
C24   O6    A    
O16   Zn3   S    
C32   C52   A    
O10   Zn4   S    
O9    Zn3   S    
C38   C58   A    
C44   O12   A    
C11   C35   A    
C4    C40   A    
C49   C51   A    
C18   H14   S    
C1    C28   S    
C50   C52   A    
C6    C38   A    
C2    O2    A    
C2    C27   S    
C18   C30   A    
C12   C36   A    
C35   C43   S    
C18   C20   A    
C60   H34   S    
C55   H17   S    
C45   C47   A    
C30   C50   A    
C3    C39   A    
C9    C33   A    
C14   H12   S    
C13   C25   A    
O13   Zn3   S    
C42   O16   A    
O7    Zn2   S    
C16   H24   S    
O2    Zn2   S    
C48   H2    S    
C46   C48   A    
C53   C55   A    
C33   C53   A    
C22   C34   S    
C54   C56   A    
C15   H23   S    
C49   H3    S    
C35   C55   A    
C51   H15   S    
C2    O8    A    
C5    H7    S    
C59   H31   S    
C31   C51   A    
C5    C7    A    
C26   C46   A    
C6    C8    A    
C21   C29   S    
C23   C31   S    
C45   H27   S    
C24   C32   S    
C4    H20   S    
C36   C56   A    
C15   C27   A    
C23   O3    A    
C10   C34   A    
C14   C26   A    
C9    C11   A    
C10   C12   A    
O1    Zn1   S    
O11   Zn4   S    
C3    C57   A    
C57   Br1   S    
O8    Zn1   S    
C17   H13   S    
C13   C15   A    
O3    Zn2   S    
C50   H4    S    
C14   C16   A    
C36   C44   S    
C3    H19   S    
C25   C45   A    
C7    H21   S    
C60   H32   S    
C20   C32   A    
C27   C47   A    
O15   Zn4   S    
C21   C25   S    
C28   C48   A    
C22   C30   S    
C43   O11   A    
O5    Zn1   S    
C24   O4    A    
C34   C54   A    
C10   H10   S    
O14   Zn4   S    
C20   H26   S    
C59   H29   S    
C44   O14   A    
C41   O9    A    
C54   H6    S    
C40   C42   S    
C17   C19   A    
C41   O15   A    
C58   Br2   S    
O4    Zn1   S    
O6    Zn2   S    
C47   H1    S    
C6    H8    S    
C21   C37   S    
C1    O7    A    
C22   C26   S    
C4    C58   A    
C8    H22   S    
C7    C39   A    
C8    C40   A    
C60   H33   S    
C37   C57   A    
C46   H28   S    
