data_mof_unit_5452.cif
_audit_creation_date              2012-12-10T19:16:25-0500
_audit_creation_method            fapswitch 2.2
_symmetry_space_group_name_H-M    P1
_symmetry_Int_Tables_number       1
_space_group_crystal_system       triclinic
_cell_length_a                    10.63159
_cell_length_b                    9.784721
_cell_length_c                    26.991509
_cell_angle_alpha                 89.476939
_cell_angle_beta                  89.473484
_cell_angle_gamma                 90.353856
_cell_volume                      2807.5589661

loop_
_atom_site_label
_atom_site_type_symbol
_atom_type_description
_atom_site_fract_x
_atom_site_fract_y
_atom_site_fract_z
_atom_type_partial_charge
C1    C     C_R   0.258417 0.499617 0.503489 0.900432
C2    C     C_R   0.209975 0.538379 0.974467 -0.047842
C3    C     C_R   0.309947 0.312082 0.975287 0.012715
C4    C     C_R   0.498555 0.500444 0.405650 0.936260
C5    C     C_R   0.268906 0.430276 0.949210 0.082879
C6    C     C_R   0.140464 0.634979 0.946026 -0.185168
C7    C     C_R   0.165958 0.649684 0.894611 -0.062346
C8    C     C_R   0.248239 0.556850 0.870674 -0.068054
C9    C     C_R   0.289571 0.441227 0.897538 -0.052618
C10   C     C_R   0.354807 0.336906 0.873005 -0.032382
C11   C     C_R   0.394531 0.357247 0.824188 0.523136
C12   C     C_R   0.302785 0.457995 0.293354 -0.091658
C13   C     C_R   0.286089 0.569741 0.820215 0.519835
C14   C     C_R   0.474744 0.593401 0.729767 0.044460
C15   C     C_R   0.508458 0.599077 0.679429 -0.248058
C16   C     C_R   0.742164 0.500178 0.501688 0.882438
C17   C     C_R   0.397077 0.385792 0.666150 -0.161217
C18   C     C_R   0.357704 0.383625 0.715087 -0.109802
C19   C     C_R   0.397188 0.485460 0.747587 0.255400
C20   C     C_R   0.225414 0.546867 0.026680 0.027030
C21   C     C_R   0.281116 0.436526 0.053078 0.097455
C22   C     C_R   0.321284 0.318073 0.027706 0.037272
C23   C     C_R   0.386152 0.495717 0.255474 0.322684
C24   C     C_R   0.201811 0.669293 0.052351 -0.152904
C25   C     C_R   0.407928 0.226931 0.105280 -0.021437
C26   C     C_R   0.342710 0.195554 0.946784 -0.038211
C27   C     C_R   0.373851 0.211847 0.896964 -0.153359
C28   C     C_R   0.497801 0.499106 0.594516 0.901268
C29   C     C_R   0.389013 0.218757 0.054405 -0.239069
C30   C     C_3   0.069542 0.630528 0.533115 -0.167047
C31   C     C_3   0.068187 0.363132 0.529831 -0.171508
C32   C     C_3   0.925820 0.616829 0.537859 -0.417980
C33   C     C_3   0.924404 0.361489 0.525633 -0.449890
C34   C     C_R   0.303856 0.448601 0.104712 -0.053322
C35   C     C_3   0.075763 0.506773 0.451864 -0.468629
C36   C     C_3   0.121817 0.499755 0.506370 -0.002417
C37   C     C_3   0.878502 0.499845 0.503995 0.085277
C38   C     C_3   0.932099 0.518340 0.450955 -0.336234
C39   C     C_3   0.504433 0.084253 0.446446 -0.085170
C40   C     C_3   0.502692 0.917771 0.446510 -0.098509
C41   C     C_3   0.609958 0.080882 0.526121 -0.287373
C42   C     C_3   0.611136 0.919239 0.525438 -0.280145
C43   C     C_3   0.388282 0.078474 0.525586 -0.217180
C44   C     C_3   0.390340 0.917824 0.526964 -0.247881
C45   C     C_R   0.272300 0.570583 0.129353 -0.028988
C46   C     C_R   0.298841 0.583818 0.179751 0.536902
C47   C     C_R   0.377361 0.356310 0.182974 0.542570
C48   C     C_R   0.508501 0.538954 0.266368 -0.162918
C49   C     C_R   0.549918 0.542250 0.315476 -0.130873
C50   C     C_R   0.342403 0.460566 0.342138 -0.226935
C51   C     C_2   0.489067 0.120752 0.127705 1.016947
C52   C     C_1   0.329806 0.056466 0.964783 0.204677
C53   C     C_2   0.127697 0.671687 0.582021 0.949054
C54   C     C_2   0.107316 0.332903 0.582604 0.944959
C55   C     C_1   0.621040 0.140288 0.422185 0.239881
C56   C     C_R   0.221923 0.679779 0.102763 -0.082559
C57   C     C_1   0.618622 0.864625 0.421720 0.251089
C58   C     C_2   0.398638 0.139548 0.413277 0.933283
C59   C     C_2   0.392218 0.861566 0.415502 0.963118
C60   C     C_1   0.522784 0.696372 0.762620 0.230988
C61   C     C_1   0.100975 0.754722 0.866669 0.354027
C62   C     C_2   0.028477 0.704820 0.968049 0.922397
C63   C     C_2   0.682411 0.581400 0.325591 0.970117
C64   C     C_R   0.362666 0.341553 0.131374 -0.096626
C65   C     C_R   0.465653 0.500273 0.353489 -0.039322
C66   C     C_R   0.470591 0.494306 0.647676 -0.020178
H1    H     H_    0.276994 0.430340 0.371246 0.160167
H2    H     H_    0.877271 0.340762 0.562001 0.192119
H3    H     H_    0.208502 0.423579 0.284838 0.155819
H4    H     H_    0.883542 0.716637 0.527356 0.182421
H5    H     H_    0.896674 0.276279 0.500793 0.183898
H6    H     H_    0.118164 0.595946 0.431726 0.209893
H7    H     H_    0.104741 0.413354 0.431574 0.207808
H8    H     H_    0.905052 0.619978 0.435698 0.218955
H9    H     H_    0.893488 0.438317 0.426216 0.226172
H10   H     H_    0.700033 0.120829 0.510585 0.162391
H11   H     H_    0.700779 0.883666 0.508759 0.160291
H12   H     H_    0.572403 0.563963 0.236085 0.148924
H13   H     H_    0.386524 0.116474 0.564292 0.189004
H14   H     H_    0.394506 0.883025 0.566320 0.169410
H15   H     H_    0.298296 0.113081 0.510014 0.222817
H16   H     H_    0.299668 0.875155 0.514800 0.207739
H17   H     H_    0.608474 0.116362 0.565185 0.169459
H18   H     H_    0.613091 0.879304 0.564169 0.168872
H19   H     H_    0.202026 0.776312 0.120475 0.209261
H20   H     H_    0.565679 0.683053 0.665231 0.149882
H21   H     H_    0.174948 0.762245 0.033759 0.180048
H22   H     H_    0.647016 0.077120 0.165392 0.362490
H23   H     H_    0.367239 0.303667 0.642405 0.196197
H24   H     H_    0.127555 0.806557 0.638119 0.361342
H25   H     H_    0.085720 0.371066 0.655533 0.353324
H26   H     H_    0.333271 0.160622 0.343469 0.362987
H27   H     H_    0.333838 0.787154 0.349776 0.362013
H28   H     H_    0.960401 0.531753 0.000304 0.315397
H29   H     H_    0.686519 0.736383 0.275214 0.324492
H30   H     H_    0.408234 0.124705 0.876392 0.200137
H31   H     H_    0.297937 0.300567 0.728185 0.161577
H32   H     H_    0.439756 0.139262 0.035713 0.168250
H33   H     H_    0.088552 0.719683 0.508071 0.153683
H34   H     H_    0.103025 0.276743 0.506864 0.169097
H35   H     H_    0.896558 0.594483 0.576846 0.207067
N1    N     N_R   0.350951 0.477764 0.205081 -0.361025
N2    N     N_R   0.361521 0.473097 0.798957 -0.352351
N3    N     N_3   0.499750 0.138610 0.498940 -0.092063
N4    N     N_3   0.499750 0.861390 0.498940 -0.098179
N5    N     N_1   0.319488 0.944862 0.978867 -0.172834
N6    N     N_1   0.711373 0.183620 0.403409 -0.153788
N7    N     N_1   0.709069 0.824444 0.402789 -0.143520
N8    N     N_1   0.561283 0.778967 0.788996 -0.149663
N9    N     N_1   0.048930 0.838613 0.844513 -0.127246
O1    O     O_R   0.314910 0.616040 0.499990 -0.620884
O2    O     O_2   0.248673 0.677013 0.792459 -0.552948
O3    O     O_2   0.416343 0.250782 0.211294 -0.498029
O4    O     O_2   0.467075 0.262263 0.802099 -0.548115
O5    O     O_2   0.462868 0.999854 0.122544 -0.604068
O6    O     O_R   0.598760 0.158769 0.152392 -0.745147
O7    O     O_2   0.216368 0.609520 0.599536 -0.630881
O8    O     O_R   0.081135 0.786640 0.606315 -0.798173
O9    O     O_2   0.180669 0.240013 0.590731 -0.679244
O10   O     O_R   0.052956 0.402984 0.622249 -0.786764
O11   O     O_2   0.305534 0.194911 0.430335 -0.638947
O12   O     O_R   0.314910 0.383960 0.499990 -0.588427
O13   O     O_R   0.408903 0.124046 0.361818 -0.761595
O14   O     O_2   0.284014 0.864345 0.431034 -0.660389
O15   O     O_R   0.413644 0.818004 0.366784 -0.770290
O16   O     O_2   0.012082 0.826740 0.960714 -0.564226
O17   O     O_R   0.942112 0.633082 0.997982 -0.735938
O18   O     O_2   0.740200 0.521866 0.358006 -0.624287
O19   O     O_R   0.744082 0.684196 0.298201 -0.730568
O20   O     O_R   0.500140 0.616020 0.428740 -0.619367
O21   O     O_R   0.500140 0.383980 0.428740 -0.606920
O22   O     O_R   0.685320 0.616040 0.499970 -0.637085
O23   O     O_R   0.685320 0.383960 0.499970 -0.634193
O24   O     O_R   0.500090 0.616050 0.571230 -0.608838
O25   O     O_R   0.500090 0.383950 0.571230 -0.633776
O26   O     O_2   0.273648 0.701778 0.203316 -0.515338
Zn1   Zn    Zn3+2 0.500150 0.654960 0.499980 0.955189
Zn2   Zn    Zn3+2 0.500150 0.345040 0.499980 0.963778

loop_
_geom_bond_atom_site_label_1
_geom_bond_atom_site_label_2
_ccdc_geom_bond_type
C10   C27   A    
O25   Zn2   S    
C12   H3    S    
C8    C13   A    
C49   C63   S    
C22   C29   A    
C54   O10   S    
C28   O25   A    
C41   C42   S    
C35   C36   S    
C32   H35   S    
O24   Zn1   S    
C39   N3    S    
C44   N4    S    
C46   N1    A    
C12   C23   A    
C58   O13   S    
C49   C65   A    
C29   H32   S    
C28   O24   A    
H24   O8    S    
C13   O2    S    
C44   H16   S    
C31   C36   S    
C4    C65   S    
C53   O7    D    
C23   N1    S    
C16   O23   A    
C43   H13   S    
C41   H17   S    
C18   C19   A    
C48   H12   S    
C11   O4    S    
C43   N3    S    
C7    C61   S    
C60   N8    T    
C1    O12   A    
C19   N2    S    
C39   C55   S    
C20   C24   A    
C45   C56   A    
C8    C9    A    
C31   C33   S    
C40   C57   S    
C18   H31   S    
C13   N2    A    
C9    C10   A    
C63   O18   D    
C16   C37   S    
C24   H21   S    
C52   N5    T    
O23   Zn2   S    
C40   C59   S    
C54   O9    D    
C27   H30   S    
C2    C6    A    
C61   N9    T    
C50   C65   A    
C4    O21   A    
H27   O15   S    
C38   H9    S    
C25   C29   A    
C30   C53   S    
C32   C37   S    
C2    C20   A    
C7    C8    A    
C35   C38   S    
C42   H18   S    
O12   Zn2   S    
H26   O13   S    
C47   C64   A    
C62   O16   D    
C32   H4    S    
C53   O8    S    
C4    O20   A    
C21   C34   A    
O22   Zn1   S    
H28   O17   S    
C15   C66   A    
C46   O26   S    
C30   H33   S    
C33   C37   S    
C50   H1    S    
C55   N6    T    
C25   C64   A    
H22   O6    S    
C28   C66   S    
C43   C44   S    
C25   C51   S    
C5    C9    A    
C37   C38   S    
C26   C52   S    
C44   H14   S    
C34   C64   A    
C17   C18   A    
C17   C66   A    
C17   H23   S    
C34   C45   A    
C31   H34   S    
C15   H20   S    
C48   C49   A    
C35   H6    S    
C26   C27   A    
C43   H15   S    
C2    C5    A    
C24   C56   A    
C39   C40   S    
O1    Zn1   S    
H29   O19   S    
C38   H8    S    
C59   O14   D    
C47   O3    S    
C35   H7    S    
C58   O11   D    
C23   C48   A    
C14   C15   A    
C14   C19   A    
C3    C26   A    
C3    C5    A    
C12   C50   A    
C6    C7    A    
C59   O15   S    
C14   C60   S    
C51   O6    S    
C41   N3    S    
C30   C36   S    
C6    C62   S    
O21   Zn2   S    
C1    O1    A    
C41   H10   S    
C30   C32   S    
C39   C58   S    
C56   H19   S    
C62   O17   S    
N3    Zn2   S    
C63   O19   S    
C31   C54   S    
C16   O22   A    
C42   N4    S    
C51   O5    D    
C10   C11   A    
C33   H5    S    
N4    Zn1   S    
C45   C46   A    
C57   N7    T    
C20   C21   A    
C33   H2    S    
C42   H11   S    
C47   N1    A    
H25   O10   S    
C3    C22   A    
C11   N2    A    
C21   C22   A    
O20   Zn1   S    
C1    C36   S    
C40   N4    S    
