data_mof_unit_49318.cif
_audit_creation_date              2013-03-05T15:53:46-0500
_audit_creation_method            fapswitch 2.2
_symmetry_space_group_name_H-M    P1
_symmetry_Int_Tables_number       1
_space_group_crystal_system       triclinic
_cell_length_a                    10.78665
_cell_length_b                    10.84876
_cell_length_c                    9.960365
_cell_angle_alpha                 92.60804
_cell_angle_beta                  91.291633
_cell_angle_gamma                 95.994335
_cell_volume                      1157.56871917

loop_
_atom_site_label
_atom_site_type_symbol
_atom_site_description
_atom_site_fract_x
_atom_site_fract_y
_atom_site_fract_z
_atom_type_partial_charge
O1    O     O_R   0.500000 0.316780 0.614690 -0.685005
O2    O     O_R   0.499990 0.316750 0.385360 -0.552943
C1    C     C_R   0.512389 0.262148 0.500096 0.943291
O3    O     O_R   0.314800 0.499990 0.614670 -0.635159
O4    O     O_R   0.314790 0.499970 0.385330 -0.590370
C2    C     C_R   0.258598 0.504753 0.499244 0.960769
Zn1   Zn    Zn3+2 0.500010 0.500020 0.653130 0.967601
Zn2   Zn    Zn3+2 0.499990 0.499980 0.346870 1.052361
O5    O     O_R   0.500010 0.683250 0.614640 -0.635324
O6    O     O_R   0.500000 0.683220 0.385310 -0.593957
O7    O     O_R   0.685210 0.500030 0.614670 -0.621909
O8    O     O_R   0.685200 0.500010 0.385330 -0.634522
C3    C     C_R   0.508269 0.741180 0.503581 0.912092
C4    C     C_R   0.742515 0.506385 0.502016 0.949539
C5    C     C_3   0.079771 0.519259 0.648225 -0.165288
H1    H     H_    0.109003 0.437724 0.698183 0.179841
C6    C     C_3   0.936828 0.506556 0.652122 0.163708
H2    H     H_    0.907918 0.411646 0.684106 0.176578
H3    H     H_    0.135337 0.710533 0.479479 0.210930
C7    C     C_3   0.085182 0.627474 0.426308 -0.164716
C8    C     C_3   0.057311 0.390682 0.430632 -0.434902
C9    C     C_3   0.122843 0.511583 0.499498 -0.069900
H4    H     H_    0.092566 0.377820 0.328519 0.237278
H5    H     H_    0.078833 0.309506 0.487987 0.234170
C10   C     C_3   0.879693 0.512722 0.504981 -0.256133
C11   C     C_3   0.939839 0.629373 0.430389 0.095574
C12   C     C_3   0.916221 0.397539 0.418343 0.049471
H6    H     H_    0.895269 0.413817 0.310787 0.181216
H7    H     H_    0.903361 0.619247 0.324452 0.122269
H8    H     H_    0.552655 0.105907 0.292981 0.238042
C13   C     C_R   0.572346 0.146052 0.760204 -0.161797
H9    H     H_    0.610196 0.242046 0.771549 0.213822
C14   C     C_R   0.544710 0.088800 0.879243 -0.232778
H10   H     H_    0.544366 0.144026 0.972413 0.218891
C15   C     C_R   0.526860 0.960178 0.877670 0.383762
C16   C     C_R   0.560527 0.895607 0.761905 0.040563
C17   C     C_R   0.544900 0.948112 0.635589 -0.004339
C18   C     C_R   0.551479 0.078137 0.633973 0.105518
C19   C     C_R   0.539073 0.133738 0.507499 -0.096055
C20   C     C_R   0.546087 0.063214 0.388447 -0.018139
H11   H     H_    0.545425 0.884151 0.295648 0.226477
C21   C     C_R   0.542841 0.936317 0.390430 -0.072683
C22   C     C_R   0.532094 0.876724 0.511637 -0.118890
H12   H     H_    0.681658 0.589509 0.133970 0.155009
C23   C     C_R   0.297648 0.363052 0.121795 0.154136
C24   C     C_R   0.189475 0.323839 0.041810 0.247435
C25   C     C_R   0.200689 0.311188 0.903061 -0.009458
C26   C     C_R   0.309091 0.362695 0.845355 -0.263963
H13   H     H_    0.322596 0.336925 0.742462 0.223272
C27   C     C_R   0.401039 0.438097 0.921011 0.151891
C28   C     C_R   0.398761 0.438228 0.065229 0.032703
N1    N     N_R   0.498810 0.498800 0.142780 -0.116607
C29   C     C_R   0.600001 0.548438 0.076887 0.043300
H14   H     H_    0.684777 0.577860 0.886949 0.198917
C30   C     C_R   0.600988 0.544372 0.934670 -0.069062
N2    N     N_R   0.498760 0.498720 0.857170 -0.125238
N3    N     N_3   0.141807 0.629963 0.723403 -0.389367
H15   H     H_    0.103179 0.710477 0.699190 0.268705
H16   H     H_    0.133500 0.618840 0.826653 0.257003
N4    N     N_3   0.128345 0.629185 0.287296 -0.419566
H17   H     H_    0.112358 0.714279 0.248464 0.245526
H18   H     H_    0.076976 0.560026 0.226602 0.206732
N5    N     N_R   0.488451 0.896451 0.995501 0.204869
O9    O     O_R   0.438576 0.956115 0.092738 -0.367816
O10   O     O_R   0.474888 0.775915 0.992850 -0.421347
N6    N     N_3   0.661145 0.822180 0.780631 -0.360129
H19   H     H_    0.622714 0.735274 0.803795 0.240025
H20   H     H_    0.709051 0.814305 0.691416 0.279249
N7    N     N_R   0.327693 0.274054 0.214061 0.251812
O11   O     O_R   0.392859 0.188128 0.168472 -0.385567
O12   O     O_R   0.260156 0.251569 0.318339 -0.392456
N8    N     N_R   0.079523 0.264788 0.099774 0.209334
O13   O     O_R   0.078868 0.152596 0.141066 -0.269814
O14   O     O_R   0.973540 0.308726 0.078125 -0.365153
N9    N     N_3   0.106378 0.235090 0.823424 -0.360697
H21   H     H_    0.104451 0.144492 0.855511 0.257416
H22   H     H_    0.130736 0.230134 0.722464 0.185121
N10   N     N_R   0.893200 0.587477 0.759059 0.197396
O15   O     O_R   0.881768 0.703186 0.740555 -0.378742
O16   O     O_R   0.902165 0.553198 0.882221 -0.419613
N11   N     N_R   0.901026 0.748365 0.481639 0.254466
O17   O     O_R   0.788714 0.773874 0.452657 -0.418086
O18   O     O_R   0.981380 0.838224 0.529938 -0.332420
N12   N     N_R   0.846337 0.278069 0.446195 0.222641
O19   O     O_R   0.786132 0.213811 0.347396 -0.347124
O20   O     O_R   0.860186 0.225571 0.559659 -0.393685

loop_
_geom_bond_atom_site_label_1
_geom_bond_atom_site_label_2
_geom_bond_distance
_ccdc_geom_bond_type
N6    H20   1.042572 S    
C30   N2    1.367432 A    
N5    O10   1.299535 A    
H11   C21   1.080820 S    
C15   C16   1.396659 A    
N11   O17   1.299652 A    
C23   C24   1.414473 A    
Zn1   O7    2.042539 S    
C16   C17   1.418287 A    
N12   O20   1.301026 A    
C18   C19   1.430757 A    
O7    C4    1.294333 A    
N10   O16   1.302391 A    
N3    H16   1.045654 S    
C23   C28   1.433831 A    
C5    H1    1.104851 S    
C2    C9    1.473980 S    
N4    H18   1.045084 S    
N7    O12   1.299634 A    
O5    C3    1.297142 A    
H14   C30   1.068307 S    
H12   C29   1.081675 S    
C5    C9    1.563690 S    
C25   C26   1.390299 A    
C13   C14   1.387355 A    
C7    N4    1.471003 S    
Zn2   N1    2.032013 S    
C24   N8    1.433936 S    
C26   C27   1.400514 A    
N6    H19   1.027853 S    
C8    C12   1.533857 S    
C1    C19   1.456412 S    
C8    C9    1.546984 S    
C5    N3    1.476005 S    
Zn1   N2    2.033343 S    
O3    Zn1   2.025655 S    
N11   O18   1.301952 A    
C27   C28   1.437172 A    
C29   C30   1.415529 A    
C23   N7    1.419334 S    
C28   N1    1.400446 A    
N12   O19   1.300117 A    
N8    O14   1.301035 A    
C19   C20   1.389529 A    
N10   O15   1.295109 A    
C10   C11   1.584384 S    
C27   N2    1.368012 A    
N4    H17   1.046097 S    
O1    C1    1.278198 A    
C17   C22   1.423414 A    
N9    H21   1.045587 S    
C17   C18   1.405817 A    
C13   H9    1.078148 S    
Zn2   O8    2.025658 S    
C6    H2    1.107340 S    
H8    C20   1.077021 S    
N9    H22   1.045514 S    
O3    C2    1.293248 A    
C26   H13   1.067175 S    
O8    C4    1.299670 A    
C11   N11   1.471339 S    
C8    H4    1.101886 S    
C21   C22   1.396634 A    
C3    C22   1.464310 S    
N1    C29   1.361558 A    
C5    C6    1.535151 S    
C24   C25   1.391802 A    
C12   N12   1.470765 S    
O1    Zn1   2.007270 S    
O2    Zn2   2.041506 S    
C7    C9    1.566500 S    
N8    O13   1.301736 A    
O6    C3    1.306606 A    
O4    Zn2   2.042538 S    
C10   C12   1.575265 S    
C13   C18   1.429211 A    
C6    C10   1.583980 S    
H3    C7    1.107677 S    
O2    C1    1.321383 A    
C25   N9    1.440230 S    
N3    H15   1.041821 S    
O4    C2    1.299872 A    
C7    C11   1.571466 S    
C20   C21   1.374513 A    
C6    N10   1.466440 S    
C14   C15   1.387864 A    
C14   H10   1.081757 S    
C16   N6    1.425574 S    
C4    C10   1.473669 S    
N7    O11   1.296926 A    
N5    O9    1.298307 A    
Zn1   O5    2.041506 S    
C11   H7    1.114447 S    
Zn2   O6    2.007270 S    
C8    H5    1.112800 S    
C12   H6    1.115607 S    
C15   N5    1.436318 S    
