data_mof_unit_36958.cif
_audit_creation_date              2012-12-10T19:05:18-0500
_audit_creation_method            fapswitch 2.2
_symmetry_space_group_name_H-M    P1
_symmetry_Int_Tables_number       1
_space_group_crystal_system       triclinic
_cell_length_a                    9.539543
_cell_length_b                    10.869278
_cell_length_c                    17.41547
_cell_angle_alpha                 90.298091
_cell_angle_beta                  86.534831
_cell_angle_gamma                 89.244097
_cell_volume                      1802.28341401

loop_
_atom_site_label
_atom_site_type_symbol
_atom_type_description
_atom_site_fract_x
_atom_site_fract_y
_atom_site_fract_z
_atom_type_partial_charge
C1    C     C_R   0.499358 0.737419 0.499777 0.819166
C2    C     C_R   0.342020 0.515841 0.773711 -0.261487
C3    C     C_R   0.394787 0.491321 0.150370 -0.147473
C4    C     C_R   0.397666 0.511035 0.228813 -0.203121
C5    C     C_R   0.644036 0.451554 0.223933 -0.191528
C6    C     C_R   0.641418 0.432562 0.144876 -0.169285
C7    C     C_R   0.517078 0.453047 0.107735 0.190745
C8    C     C_2   0.435220 0.501889 0.980698 -0.225053
C9    C     C_2   0.517564 0.434424 0.024438 -0.253285
C10   C     C_R   0.521716 0.490127 0.266420 -0.026297
C11   C     C_R   0.380101 0.938547 0.483180 0.120735
C12   C     C_R   0.482543 0.497905 0.650025 0.789055
C13   C     C_R   0.500902 0.870149 0.495897 -0.150061
C14   C     C_R   0.627843 0.931414 0.502668 -0.234924
C15   C     C_R   0.631435 0.059044 0.505490 0.247674
C16   C     C_R   0.505484 0.128372 0.498621 -0.163083
C17   C     C_R   0.382531 0.065441 0.484313 0.063806
C18   C     C_3   0.240371 0.074167 0.525422 -0.411708
C19   C     C_3   0.238095 0.934635 0.524026 -0.445065
C20   C     C_R   0.931321 0.403321 0.469089 0.363679
C21   C     C_R   0.920432 0.591795 0.534601 -0.059175
C22   C     C_R   0.069272 0.592006 0.534390 -0.095243
C23   C     C_R   0.501294 0.262147 0.501370 0.831236
C24   C     C_R   0.078762 0.402798 0.469583 0.262296
C25   C     C_3   0.095006 0.358603 0.388338 -0.512083
C26   C     C_3   0.936290 0.360703 0.387452 -0.510995
C27   C     C_R   0.517292 0.498929 0.350269 0.792038
C28   C     C_R   0.473158 0.494075 0.734804 -0.094104
C29   C     C_R   0.591069 0.469820 0.778095 -0.025340
C30   C     C_R   0.575676 0.470980 0.857910 -0.207148
C31   C     C_R   0.444390 0.491898 0.896427 0.118801
C32   C     C_R   0.325533 0.513799 0.853929 0.029820
Cu1   Cu    Cu3+1 0.359330 0.500020 0.500000 0.934357
Cu2   Cu    Cu3+1 0.640670 0.499980 0.500000 0.974299
H1    H     H_    0.736401 0.402323 0.112643 0.116637
H2    H     H_    0.724184 0.880269 0.510416 0.190102
H3    H     H_    0.243277 0.113635 0.584357 0.192608
H4    H     H_    0.160896 0.116710 0.489395 0.219781
H5    H     H_    0.239962 0.892907 0.582143 0.186321
H6    H     H_    0.157774 0.897057 0.486960 0.206890
H7    H     H_    0.860710 0.666491 0.562425 0.140496
H8    H     H_    0.120791 0.666907 0.561886 0.136449
H9    H     H_    0.145343 0.427105 0.348896 0.214725
H10   H     H_    0.301658 0.540920 0.260138 0.147238
H11   H     H_    0.141455 0.264418 0.383501 0.202904
H12   H     H_    0.896999 0.431900 0.348398 0.201587
H13   H     H_    0.890812 0.267923 0.381028 0.231101
H14   H     H_    0.740256 0.433275 0.251749 0.141151
H15   H     H_    0.592155 0.367825 0.998442 0.149877
H16   H     H_    0.295996 0.503928 0.123795 0.129142
H17   H     H_    0.251455 0.534383 0.741437 0.156603
H18   H     H_    0.361774 0.569374 0.006597 0.161364
H19   H     H_    0.668669 0.458439 0.889842 0.144072
N1    N     N_R   0.852130 0.499070 0.499500 -0.191879
N2    N     N_R   0.148040 0.499110 0.499500 -0.195928
O1    O     O_R   0.381190 0.680360 0.500000 -0.584126
O2    O     O_R   0.618770 0.680320 0.499990 -0.595989
O3    O     O_R   0.367430 0.500040 0.613600 -0.601107
O4    O     O_R   0.605020 0.500000 0.613590 -0.565424
O5    O     O_R   0.381230 0.319680 0.500010 -0.589168
O6    O     O_R   0.618810 0.319640 0.500000 -0.534666
O7    O     O_R   0.394980 0.500000 0.386410 -0.588612
O8    O     O_R   0.632570 0.499960 0.386400 -0.588889
C33   C     C_R   0.733473 0.445945 0.743564 0.131964
C34   C     C_R   0.829922 0.541944 0.738021 -0.118359
C35   C     C_R   0.967469 0.518859 0.709552 -0.134235
C36   C     C_R   0.010000 0.399712 0.687044 -0.119829
C37   C     C_R   0.914288 0.303538 0.692855 -0.108317
C38   C     C_R   0.775894 0.326423 0.720916 -0.098132
H20   H     H_    0.798495 0.634407 0.755801 0.115634
H21   H     H_    0.039916 0.594310 0.703992 0.111215
H22   H     H_    0.116654 0.381933 0.664668 0.148611
H23   H     H_    0.947573 0.211297 0.675871 0.161206
H24   H     H_    0.702478 0.251297 0.725775 0.127912
Br1   Br    Br    0.810255 0.125107 0.528260 -0.636397
C39   C     C_R   0.182810 0.532025 0.891440 0.102216
C40   C     C_R   0.125068 0.442947 0.941869 -0.139494
C41   C     C_R   0.989859 0.459486 0.976309 -0.147370
C42   C     C_R   0.911154 0.564714 0.960623 -0.119411
C43   C     C_R   0.967179 0.653202 0.910033 -0.126506
C44   C     C_R   0.102341 0.637005 0.875395 -0.159277
H25   H     H_    0.184390 0.360439 0.954101 0.133163
H26   H     H_    0.946066 0.390534 0.015040 0.118767
H27   H     H_    0.806628 0.577500 0.987484 0.131610
H28   H     H_    0.905759 0.734289 0.897531 0.123180
H29   H     H_    0.144443 0.706398 0.836343 0.117342

loop_
_geom_bond_atom_site_label_1
_geom_bond_atom_site_label_2
_ccdc_geom_bond_type
C10   C27   S    
Cu1   N2    S    
C15   Br1   S    
Cu1   O3    S    
C25   H9    S    
C40   C41   A    
C24   N2    A    
C11   C19   S    
C43   H28   S    
C12   C28   S    
C5    C6    A    
C19   H5    S    
C28   C29   A    
C1    O1    A    
C18   C19   S    
C3    C7    A    
C14   H2    S    
C42   H27   S    
C16   C17   A    
C15   C16   A    
C6    H1    S    
C2    C32   A    
C36   H22   S    
C12   O4    A    
C41   H26   S    
C31   C32   A    
C8    C9    D    
Cu2   O2    S    
C8    H18   S    
C44   H29   S    
C12   O3    A    
C37   H23   S    
Cu1   O1    S    
C35   C36   A    
C29   C33   S    
C13   C14   A    
C30   H19   S    
C3    H16   S    
Cu1   Cu2   S    
C23   O5    A    
C5    H14   S    
C36   C37   A    
C20   C24   A    
C9    H15   S    
C24   C25   S    
C20   N1    A    
C2    H17   S    
C41   C42   A    
C37   C38   A    
C4    H10   S    
C25   C26   S    
Cu1   O7    S    
Cu2   O6    S    
C29   C30   A    
C27   O7    A    
C1    O2    A    
C35   H21   S    
C30   C31   A    
C17   C18   S    
C38   H24   S    
C33   C38   A    
C39   C40   A    
C22   N2    A    
C27   O8    A    
C26   H13   S    
C21   H7    S    
Cu2   N1    S    
C16   C23   S    
Cu2   O4    S    
C1    C13   S    
C4    C10   A    
C3    C4    A    
C25   H11   S    
C7    C9    S    
C11   C17   A    
C8    C31   S    
C18   H3    S    
C43   C44   A    
C39   C44   A    
C32   C39   S    
C6    C7    A    
Cu1   O5    S    
C21   N1    A    
C33   C34   A    
C18   H4    S    
C5    C10   A    
C11   C13   A    
C22   H8    S    
C20   C26   S    
C40   H25   S    
Cu2   O8    S    
C19   H6    S    
C26   H12   S    
C42   C43   A    
C23   O6    A    
C34   C35   A    
C14   C15   A    
C2    C28   A    
C21   C22   A    
C34   H20   S    
