data_mof_unit_52869.cif
_audit_creation_date              2013-03-05T15:41:54-0500
_audit_creation_method            fapswitch 2.2
_symmetry_space_group_name_H-M    P1
_symmetry_Int_Tables_number       1
_space_group_crystal_system       triclinic
_cell_length_a                    23.327607
_cell_length_b                    8.838398
_cell_length_c                    7.580273
_cell_angle_alpha                 102.205749
_cell_angle_beta                  95.989011
_cell_angle_gamma                 93.512621
_cell_volume                      1513.63123335

loop_
_atom_site_label
_atom_site_type_symbol
_atom_site_description
_atom_site_fract_x
_atom_site_fract_y
_atom_site_fract_z
_atom_type_partial_charge
O1    O     O_R   0.504120 0.286130 0.619770 -0.553810
O2    O     O_R   0.495880 0.713870 0.380230 -0.563610
O3    O     O_R   0.493410 0.256770 0.308360 -0.609939
O4    O     O_R   0.506590 0.743230 0.691640 -0.611031
C1    C     C_R   0.496286 0.200727 0.455249 0.859539
C2    C     C_R   0.503447 0.799188 0.544934 0.795426
O5    O     O_R   0.423230 0.514630 0.655730 -0.554467
O6    O     O_R   0.576770 0.485370 0.344270 -0.518425
O7    O     O_R   0.412530 0.485280 0.344320 -0.554792
O8    O     O_R   0.587470 0.514720 0.655680 -0.557159
C3    C     C_R   0.391201 0.498171 0.498842 0.899021
C4    C     C_R   0.609031 0.504799 0.501350 0.896175
Cu1   Cu    Cu3+1 0.506340 0.517380 0.684380 1.064342
Cu2   Cu    Cu3+1 0.493660 0.482620 0.315620 1.075713
C5    C     C_R   0.894088 0.625822 0.631017 0.642178
C6    C     C_R   0.114710 0.307448 0.538587 0.619012
N1    N     N_R   0.856243 0.495516 0.605764 -0.446008
N2    N     N_R   0.150748 0.442224 0.569743 -0.434338
C7    C     C_R   0.877531 0.355841 0.613081 0.628810
C8    C     C_R   0.133761 0.568314 0.685428 0.625685
C9    C     C_R   0.936474 0.337231 0.597008 -0.072909
C10   C     C_R   0.074426 0.588492 0.692856 -0.076950
C11   C     C_R   0.975198 0.471168 0.632383 -0.116601
C12   C     C_R   0.034732 0.458201 0.624563 -0.098975
C13   C     C_R   0.954159 0.618139 0.676398 -0.155790
C14   C     C_R   0.054941 0.313269 0.555723 -0.160837
C15   C     C_R   0.956945 0.190658 0.539077 0.195640
C16   C     C_R   0.054092 0.732399 0.769851 0.191604
C17   C     C_R   0.015149 0.179295 0.506425 0.333604
C18   C     C_R   0.993645 0.749445 0.758005 0.334128
O9    O     O_2   0.874126 0.759510 0.603878 -0.506556
O10   O     O_2   0.136565 0.168741 0.510266 -0.532627
O11   O     O_2   0.841793 0.236411 0.633410 -0.499181
O12   O     O_2   0.174199 0.668655 0.798501 -0.533725
C19   C     C_R   0.236381 0.601457 0.503155 0.224356
C20   C     C_R   0.760558 0.393213 0.424863 0.194189
C21   C     C_R   0.297166 0.617391 0.505538 0.120375
C22   C     C_R   0.699512 0.392033 0.402496 0.123621
C23   C     C_R   0.328003 0.484713 0.492842 -0.094763
C24   C     C_R   0.672587 0.511372 0.508432 -0.122797
C25   C     C_R   0.297592 0.336977 0.438764 0.089568
C26   C     C_R   0.706325 0.632886 0.633049 0.088463
C27   C     C_R   0.236697 0.323366 0.426489 0.202435
C28   C     C_R   0.765954 0.621695 0.675181 0.209951
C29   C     C_R   0.208054 0.454029 0.504377 0.158295
C30   C     C_R   0.794006 0.503669 0.568493 0.177610
C31   C     C_2   0.485141 0.034676 0.438701 0.056443
C32   C     C_2   0.512789 0.965971 0.563352 0.016504
N3    N     N_2   0.484110 0.456420 0.038520 0.018264
N4    N     N_2   0.515890 0.543580 0.961480 0.014422
N5    N     N_2   0.917528 0.056022 0.494711 -0.347434
H1    H     H_    0.931781 0.965485 0.546701 0.339564
C33   C     C_3   0.892037 0.010396 0.307618 -0.456931
H2    H     H_    0.908901 0.900072 0.243766 0.254445
H3    H     H_    0.902202 0.099749 0.229443 0.235433
H4    H     H_    0.844439 0.991694 0.303132 0.219004
N6    N     N_2   0.094621 0.857527 0.863363 -0.399583
H5    H     H_    0.086717 0.914687 0.989280 0.318056
C34   C     C_3   0.121474 0.951583 0.755330 -0.427859
H6    H     H_    0.103052 0.065682 0.773692 0.234182
H7    H     H_    0.115472 0.893693 0.609355 0.275818
H8    H     H_    0.168571 0.970815 0.800564 0.212051
N7    N     N_R   0.030589 0.040567 0.392334 0.145043
O13   O     O_R   0.020525 0.904796 0.428684 -0.412364
O14   O     O_R   0.046218 0.048911 0.235309 -0.351237
N8    N     N_R   0.972743 0.893484 0.844799 0.150500
O15   O     O_R   0.000137 0.026691 0.847482 -0.376010
O16   O     O_R   0.927217 0.892008 0.929675 -0.348635
N9    N     N_2   0.203232 0.729436 0.487205 -0.419104
H9    H     H_    0.223494 0.838260 0.544175 0.268758
C35   C     C_3   0.172294 0.718444 0.308671 -0.661368
H10   H     H_    0.148343 0.823125 0.307911 0.272938
H11   H     H_    0.140434 0.614904 0.272506 0.240514
H12   H     H_    0.203088 0.711101 0.205342 0.243184
N10   N     N_2   0.788392 0.278291 0.310239 -0.401729
H13   H     H_    0.766658 0.169232 0.273685 0.262196
C36   C     C_3   0.810647 0.328104 0.159364 -0.700216
H14   H     H_    0.833743 0.234440 0.082656 0.253991
H15   H     H_    0.841640 0.432641 0.209692 0.242654
H16   H     H_    0.774429 0.352804 0.065375 0.231960
N11   N     N_2   0.326725 0.762371 0.501943 -0.459987
H17   H     H_    0.305875 0.824438 0.417632 0.256588
C37   C     C_3   0.349742 0.855834 0.678199 -0.704431
H18   H     H_    0.314433 0.884584 0.764163 0.241292
H19   H     H_    0.372261 0.965488 0.661823 0.249051
H20   H     H_    0.381655 0.792356 0.745709 0.252314
N12   N     N_2   0.664864 0.271615 0.273467 -0.404046
H21   H     H_    0.681173 0.237409 0.151350 0.265878
C38   C     C_3   0.644900 0.142195 0.346937 -0.682354
H22   H     H_    0.681946 0.079527 0.389501 0.227068
H23   H     H_    0.614714 0.060061 0.242056 0.241389
H24   H     H_    0.621576 0.183711 0.465790 0.233418
N13   N     N_2   0.327938 0.204826 0.376343 -0.437177
H25   H     H_    0.315440 0.107617 0.422439 0.252027
C39   C     C_3   0.334859 0.173330 0.184339 -0.556547
H26   H     H_    0.315468 0.054672 0.116289 0.194734
H27   H     H_    0.381446 0.181109 0.169141 0.279042
H28   H     H_    0.314364 0.258304 0.113879 0.250791
N14   N     N_2   0.680866 0.772760 0.701121 -0.459090
H29   H     H_    0.699479 0.869466 0.666073 0.253226
C40   C     C_3   0.668023 0.800518 0.887201 -0.567686
H30   H     H_    0.692957 0.908115 0.969064 0.184258
H31   H     H_    0.678436 0.702525 0.951456 0.278278
H32   H     H_    0.621417 0.816328 0.888363 0.263506
N15   N     N_2   0.205681 0.199347 0.292971 -0.357675
H33   H     H_    0.222231 0.092399 0.273400 0.267774
C41   C     C_3   0.180304 0.239923 0.128182 -0.614325
H34   H     H_    0.135236 0.186525 0.093982 0.268094
H35   H     H_    0.205797 0.196725 0.015088 0.202652
H36   H     H_    0.179244 0.367373 0.142720 0.215163
N16   N     N_2   0.797229 0.723375 0.831378 -0.346156
H37   H     H_    0.783772 0.833486 0.865054 0.282476
C42   C     C_3   0.807982 0.652597 0.985487 -0.646766
H38   H     H_    0.830776 0.738571 0.102578 0.229550
H39   H     H_    0.835652 0.555331 0.952477 0.239629
H40   H     H_    0.766646 0.609928 0.025674 0.215879
N17   N     N_2   0.436909 0.956626 0.313766 -0.455813
H41   H     H_    0.413008 0.872109 0.356060 0.285070
C43   C     C_3   0.446984 0.912961 0.125653 -0.591820
H42   H     H_    0.408975 0.838303 0.047150 0.236341
H43   H     H_    0.485821 0.847083 0.111616 0.261868
H44   H     H_    0.452467 0.017220 0.067966 0.230268
N18   N     N_2   0.560191 0.047618 0.688750 -0.453527
H45   H     H_    0.598228 0.995128 0.675387 0.254326
C44   C     C_3   0.549040 0.089365 0.876114 -0.562490
H46   H     H_    0.584890 0.171677 0.955634 0.254658
H47   H     H_    0.546306 0.985205 0.935342 0.206228
H48   H     H_    0.508317 0.146803 0.887081 0.266553
N19   N     N_R   0.427933 0.418846 0.954165 0.250644
O17   O     O_R   0.388645 0.514763 0.993420 -0.370083
O18   O     O_R   0.412098 0.277566 0.864448 -0.428020
N20   N     N_R   0.571812 0.581436 0.046999 0.245538
O19   O     O_R   0.585780 0.716805 0.155167 -0.435740
O20   O     O_R   0.611423 0.486299 0.008956 -0.379740

loop_
_geom_bond_atom_site_label_1
_geom_bond_atom_site_label_2
_geom_bond_distance
_ccdc_geom_bond_type
N8    O16   1.298622 A    
N12   H21   1.030661 S    
C17   N7    1.432415 S    
N13   H25   1.030907 S    
C15   C17   1.411085 A    
C39   H26   1.111298 S    
C41   H35   1.109134 S    
N16   H37   1.029544 S    
O7    Cu2   1.928449 S    
C32   N18   1.428231 S    
N7    O14   1.295970 A    
N11   H17   1.030548 S    
C39   H28   1.112754 S    
N18   H45   1.030615 S    
C23   C25   1.405620 A    
C36   H14   1.109153 S    
O5    C3    1.312185 A    
N15   C41   1.449325 S    
C40   H30   1.111373 S    
C2    C32   1.451621 S    
O1    C1    1.302283 A    
C7    C9    1.409508 A    
C12   C14   1.406464 A    
N19   O17   1.301017 A    
N17   C43   1.444249 S    
N6    C34   1.444018 S    
Cu2   N3    2.050776 S    
N9    C35   1.447008 S    
C27   N15   1.424864 S    
O4    Cu1   1.984878 S    
N10   C36   1.442269 S    
N1    C7    1.368220 A    
C25   N13   1.423637 S    
C31   C32   1.356826 D    
C33   H2    1.107692 S    
C28   C30   1.416980 A    
N20   O19   1.300627 A    
C44   H48   1.106719 S    
C41   H34   1.107179 S    
C20   C30   1.423800 A    
C38   H23   1.109688 S    
C42   H40   1.109118 S    
C8    O12   1.348474 S    
C43   H43   1.108913 S    
N8    O15   1.299946 A    
C9    C15   1.406468 A    
C34   H6    1.107809 S    
N13   C39   1.450891 S    
C10   C16   1.414636 A    
Cu1   Cu2   2.729245 S    
C25   C27   1.409908 A    
C21   N11   1.424291 S    
O2    C2    1.303134 A    
C26   C28   1.408603 A    
O8    C4    1.309220 A    
N11   C37   1.443956 S    
C15   N5    1.416615 S    
C33   H3    1.111460 S    
C6    C14   1.416783 A    
C21   C23   1.404275 A    
C34   H7    1.106930 S    
N5    H1    1.022147 S    
N1    C30   1.458979 S    
O4    C2    1.306397 A    
C7    O11   1.349352 S    
C35   H11   1.110420 S    
C16   N6    1.421252 S    
N3    N19   1.385106 S    
N7    O13   1.299933 A    
N5    C33   1.442343 S    
C4    C24   1.475097 S    
N10   H13   1.029960 S    
C20   N10   1.426047 S    
C1    C31   1.451150 S    
C37   H18   1.111411 S    
C31   N17   1.430032 S    
O6    C4    1.313152 A    
C36   H15   1.110616 S    
N16   C42   1.444300 S    
C38   H24   1.108749 S    
C3    C23   1.466931 S    
O7    C3    1.305623 A    
C18   N8    1.442282 S    
O3    Cu2   1.984878 S    
N4    N20   1.382851 S    
C14   C17   1.417483 A    
C6    N2    1.377809 A    
C37   H19   1.110290 S    
C8    C10   1.411761 A    
C40   H32   1.105312 S    
C9    C11   1.404805 A    
C44   H46   1.107620 S    
C41   H36   1.110469 S    
C10   C12   1.403124 A    
O1    Cu1   1.994607 S    
C19   C29   1.426715 A    
N2    C29   1.478660 S    
C42   H38   1.102160 S    
C40   H31   1.107180 S    
C33   H4    1.108436 S    
C13   C18   1.422846 A    
C5    N1    1.374548 A    
C34   H8    1.107874 S    
O6    Cu2   1.926307 S    
C19   C21   1.414177 A    
O3    C1    1.308185 A    
O8    Cu1   1.928449 S    
C35   H12   1.111467 S    
C43   H42   1.108099 S    
C39   H27   1.104254 S    
C5    O9    1.343703 S    
C6    O10   1.340557 S    
N15   H33   1.030497 S    
N14   H29   1.031643 S    
C22   N12   1.425514 S    
C20   C22   1.415583 A    
C35   H10   1.110463 S    
C27   C29   1.420306 A    
C26   N14   1.425304 S    
C22   C24   1.407175 A    
C36   H16   1.109879 S    
N6    H5    1.022016 S    
C24   C26   1.406228 A    
C43   H44   1.106491 S    
C16   C18   1.422823 A    
N2    C8    1.371639 A    
C11   C13   1.403060 A    
N9    H9    1.030091 S    
O2    Cu2   1.994607 S    
N18   C44   1.445068 S    
C11   C12   1.406823 A    
Cu1   N4    2.050776 S    
C28   N16   1.425228 S    
O5    Cu1   1.926307 S    
C37   H20   1.106328 S    
C19   N9    1.427421 S    
C5    C13   1.416890 A    
N20   O20   1.300902 A    
N3    N4    1.301797 D    
C44   H47   1.107574 S    
N12   C38   1.446963 S    
N19   O18   1.300061 A    
C38   H22   1.110741 S    
N17   H41   1.029166 S    
N14   C40   1.445829 S    
C42   H39   1.108608 S    
