data_mof_unit_30153.cif
_audit_creation_date              2012-12-10T18:02:11-0500
_audit_creation_method            fapswitch 2.2
_symmetry_space_group_name_H-M    P1
_symmetry_Int_Tables_number       1
_space_group_crystal_system       triclinic
_cell_length_a                    10.7952
_cell_length_b                    9.681157
_cell_length_c                    23.322376
_cell_angle_alpha                 89.729561
_cell_angle_beta                  91.778115
_cell_angle_gamma                 89.978964
_cell_volume                      2436.22100854

loop_
_atom_site_label
_atom_site_type_symbol
_atom_type_description
_atom_site_fract_x
_atom_site_fract_y
_atom_site_fract_z
_atom_type_partial_charge
C1    C     C_R   0.262607 0.500031 0.500446 0.840889
C2    C     C_R   0.737170 0.500110 0.497809 0.865112
C3    C     C_R   0.571582 0.537531 0.237466 0.433854
C4    C     C_R   0.348783 0.545092 0.748322 0.449175
C5    C     C_R   0.579627 0.527525 0.297059 -0.229735
C6    C     C_R   0.372553 0.535236 0.690310 -0.229855
C7    C     C_R   0.474607 0.501283 0.328718 -0.237781
C8    C     C_R   0.489943 0.500793 0.671521 -0.223215
C9    C     C_R   0.356760 0.486662 0.300586 0.284781
C10   C     C_R   0.588885 0.474074 0.711744 0.270633
C11   C     C_R   0.345276 0.520753 0.241317 0.320195
C12   C     C_R   0.566028 0.484161 0.771677 0.334007
C13   C     C_R   0.453917 0.537049 0.209368 0.051533
C14   C     C_R   0.445035 0.520496 0.789174 0.023287
C15   C     C_R   0.063841 0.374728 0.497272 -0.105309
C16   C     C_R   0.935931 0.625619 0.500085 -0.098301
C17   C     C_R   0.935841 0.374847 0.495622 -0.131483
C18   C     C_R   0.063975 0.625436 0.501938 -0.125385
C19   C     C_R   0.871328 0.500285 0.497102 -0.049651
C20   C     C_R   0.128460 0.500042 0.500188 0.005882
C21   C     C_R   0.516317 0.071476 0.450741 0.298983
C22   C     C_R   0.519640 0.928936 0.549427 0.362428
C23   C     C_R   0.484612 0.070062 0.549280 0.254580
C24   C     C_R   0.481392 0.930508 0.450528 0.311470
C25   C     C_R   0.490446 0.500038 0.391366 0.936296
C26   C     C_R   0.502735 0.499757 0.608987 0.956674
C27   C     C_R   0.445255 0.654427 0.876297 0.738597
C28   C     C_R   0.415176 0.420731 0.119473 0.696761
C29   C     C_R   0.381936 0.418308 0.878152 0.740799
C30   C     C_R   0.461449 0.661398 0.118842 0.733118
C31   C     C_R   0.376925 0.419734 0.938546 -0.107348
C32   C     C_R   0.457596 0.664095 0.058201 -0.149019
C33   C     C_R   0.411972 0.542196 0.967984 -0.139999
C34   C     C_R   0.419759 0.543008 0.028610 -0.094066
C35   C     C_R   0.442134 0.662730 0.936687 -0.107971
C36   C     C_R   0.391983 0.421713 0.059703 -0.139559
C37   C     C_R   0.341597 0.301219 0.969817 0.425370
C38   C     C_R   0.487139 0.784593 0.026588 0.314141
C39   C     C_R   0.344947 0.304118 0.030265 0.325296
C40   C     C_R   0.474277 0.785742 0.966182 0.424347
Cu1   Cu    Cu3+1 0.500000 0.640660 0.500000 1.107175
Cu2   Cu    Cu3+1 0.500000 0.359340 0.500000 1.102547
H1    H     H_    0.669077 0.536538 0.319149 0.210812
H2    H     H_    0.298477 0.554829 0.658870 0.192670
H3    H     H_    0.111776 0.276542 0.496248 0.179575
H4    H     H_    0.887945 0.723744 0.501580 0.195011
H5    H     H_    0.887821 0.276715 0.493847 0.201117
H6    H     H_    0.112053 0.723388 0.504877 0.162026
N1    N     N_R   0.419917 0.532624 0.849101 -0.461897
N2    N     N_R   0.444483 0.540135 0.147680 -0.430439
N3    N     N_R   0.500000 0.852070 0.500000 -0.307600
N4    N     N_R   0.500000 0.147930 0.500000 -0.296704
O1    O     O_R   0.319640 0.618740 0.500000 -0.581238
O2    O     O_R   0.680360 0.381260 0.500000 -0.547337
O3    O     O_R   0.680360 0.618740 0.500000 -0.543678
O4    O     O_R   0.319640 0.381260 0.500000 -0.540080
O5    O     O_R   0.499960 0.618810 0.417880 -0.517589
O6    O     O_R   0.500040 0.381190 0.582120 -0.550377
O7    O     O_R   0.500040 0.618810 0.582120 -0.519442
O8    O     O_R   0.499960 0.381190 0.417880 -0.537942
O9    O     O_2   0.477722 0.764984 0.844692 -0.363903
O10   O     O_2   0.411366 0.301302 0.149462 -0.420621
O11   O     O_2   0.354894 0.302356 0.848429 -0.361419
O12   O     O_2   0.478162 0.778626 0.149127 -0.396140
O13   O     O_3   0.300863 0.185017 0.940360 -0.611364
H7    H     H_    0.287694 0.107178 0.967122 0.385522
O14   O     O_3   0.534225 0.900782 0.053287 -0.640426
H8    H     H_    0.606537 0.870408 0.077416 0.381361
O15   O     O_3   0.297871 0.192334 0.059291 -0.643527
H9    H     H_    0.243103 0.228959 0.089004 0.385551
O16   O     O_3   0.497974 0.904411 0.934959 -0.603088
H10   H     H_    0.510165 0.984423 0.960759 0.387807
S1    S     S_3+6 0.710511 0.552134 0.199403 0.097104
O17   O     O_2   0.731984 0.701594 0.185154 -0.226258
O18   O     O_2   0.818192 0.499374 0.235628 -0.172507
O19   O     O_3   0.700401 0.460494 0.138356 -0.515539
H11   H     H_    0.773866 0.488039 0.116615 0.386372
S2    S     S_3+6 0.196979 0.588676 0.768946 0.104018
O20   O     O_2   0.202255 0.708423 0.809706 -0.229604
O21   O     O_2   0.117279 0.627192 0.717306 -0.216130
O22   O     O_3   0.133780 0.452045 0.801801 -0.455206
H12   H     H_    0.050214 0.483312 0.812408 0.398776
S3    S     S_3+6 0.228139 0.416079 0.337569 0.087054
O23   O     O_2   0.156589 0.530589 0.364399 -0.230496
O24   O     O_2   0.143435 0.339017 0.296612 -0.153542
O25   O     O_3   0.274227 0.303788 0.388888 -0.560043
H13   H     H_    0.199032 0.250561 0.398084 0.381536
S4    S     S_3+6 0.738833 0.426794 0.687769 0.080652
O26   O     O_2   0.837200 0.512118 0.717670 -0.175941
O27   O     O_2   0.761136 0.276721 0.701279 -0.184605
O28   O     O_3   0.754251 0.448723 0.617320 -0.582439
H14   H     H_    0.837666 0.411521 0.609896 0.376906
S5    S     S_3+6 0.197473 0.549029 0.206344 0.127820
O29   O     O_2   0.150957 0.414904 0.181640 -0.236813
O30   O     O_2   0.105600 0.603201 0.247805 -0.124797
O31   O     O_3   0.207667 0.665186 0.152907 -0.513137
H15   H     H_    0.127815 0.658473 0.131012 0.384757
S6    S     S_3+6 0.689327 0.462545 0.824878 0.110680
O32   O     O_2   0.643900 0.442275 0.884489 -0.312496
O33   O     O_2   0.768758 0.340169 0.811608 -0.153887
O34   O     O_3   0.776935 0.606136 0.824592 -0.440094
H16   H     H_    0.844306 0.588619 0.853517 0.380360
S7    S     S_3+6 0.619537 0.117357 0.395190 0.126971
O35   O     O_2   0.704175 0.234552 0.410934 -0.271444
O36   O     O_2   0.699282 0.993440 0.384308 -0.212100
O37   O     O_3   0.543087 0.154979 0.333075 -0.399606
H17   H     H_    0.465524 0.200644 0.343758 0.383647
S8    S     S_3+6 0.614294 0.876051 0.609566 0.100491
O38   O     O_2   0.688375 0.998237 0.630461 -0.257609
O39   O     O_2   0.533815 0.828216 0.657207 -0.204131
O40   O     O_3   0.715691 0.751703 0.593900 -0.499522
H18   H     H_    0.767106 0.738597 0.629427 0.405375
S9    S     S_3+6 0.385903 0.117274 0.606055 0.121444
O41   O     O_2   0.295302 0.228146 0.588654 -0.269718
O42   O     O_2   0.312789 0.991667 0.622314 -0.204256
O43   O     O_3   0.467518 0.167617 0.664929 -0.413091
H19   H     H_    0.549781 0.194790 0.651403 0.378590
S10   S     S_3+6 0.391366 0.878399 0.389251 0.101652
O44   O     O_2   0.321473 0.001008 0.365226 -0.268335
O45   O     O_2   0.474851 0.826912 0.343616 -0.179751
O46   O     O_3   0.286996 0.756898 0.404693 -0.472442
H20   H     H_    0.214711 0.808223 0.418757 0.355437

loop_
_geom_bond_atom_site_label_1
_geom_bond_atom_site_label_2
_ccdc_geom_bond_type
C38   C40   A    
C29   O11   S    
S5    O29   D    
C40   O16   S    
C30   O12   S    
C8    C26   S    
S1    O17   D    
O40   H18   S    
Cu2   O6    S    
O22   H12   S    
C29   N1    A    
O43   H19   S    
C10   S4    S    
O34   H16   S    
C1    O4    A    
C2    O3    A    
S2    O21   D    
C14   N1    S    
O37   H17   S    
S8    O38   D    
C18   C20   A    
C7    C9    A    
Cu1   Cu2   S    
C1    O1    A    
S10   O44   D    
Cu1   O3    S    
C27   O9    S    
Cu2   O4    S    
C28   N2    A    
C37   O13   S    
C31   C33   A    
C25   O8    A    
C32   C38   A    
C26   O7    A    
C12   S6    S    
C3    C13   A    
S9    O43   S    
C11   S5    S    
C24   N3    A    
C30   N2    A    
S5    O30   D    
C6    H2    S    
S1    O18   D    
C25   O5    A    
C15   C20   A    
C37   C39   A    
O14   H8    S    
O19   H11   S    
Cu1   O7    S    
C4    C6    A    
C2    O2    A    
C16   H4    S    
O28   H14   S    
C5    C7    A    
S2    O20   D    
C17   C19   A    
C6    C8    A    
C27   C35   A    
C31   C37   A    
S10   O46   S    
C32   C34   A    
C4    S2    S    
C23   S9    S    
C9    C11   A    
S3    O23   D    
S4    O28   S    
O31   H15   S    
C33   C34   A    
C39   O15   S    
S7    O36   D    
S4    O26   D    
C26   O6    A    
Cu1   O1    S    
O46   H20   S    
C10   C12   A    
C9    S3    S    
C8    C10   A    
S3    O24   D    
S4    O27   D    
O13   H7    S    
S5    O31   S    
S6    O33   D    
S1    O19   S    
C15   H3    S    
Cu2   O8    S    
S9    O41   D    
C15   C17   A    
C1    C20   S    
C2    C19   S    
O25   H13   S    
C36   C39   A    
C17   H5    S    
C12   C14   A    
C3    C5    A    
C18   H6    S    
S6    O34   S    
C24   S10   S    
C7    C25   S    
S8    O40   S    
C35   C40   A    
Cu1   O5    S    
O16   H10   S    
C29   C31   A    
Cu2   O2    S    
C30   C32   A    
C11   C13   A    
S2    O22   S    
C23   N4    A    
C16   C19   A    
C22   S8    S    
C33   C35   A    
S8    O39   D    
S7    O37   S    
C34   C36   A    
C4    C14   A    
O15   H9    S    
C3    S1    S    
S10   O45   D    
C13   N2    S    
C21   S7    S    
S3    O25   S    
C38   O14   S    
C28   C36   A    
C16   C18   A    
S6    O32   D    
C21   C24   A    
S7    O35   D    
C22   C23   A    
C5    H1    S    
Cu1   N3    S    
C21   N4    A    
C27   N1    A    
Cu2   N4    S    
C22   N3    A    
S9    O42   D    
C28   O10   S    
