data_mof_unit_19555.cif
_audit_creation_date              2012-12-10T17:08:43-0500
_audit_creation_method            fapswitch 2.2
_symmetry_space_group_name_H-M    P1
_symmetry_Int_Tables_number       1
_space_group_crystal_system       triclinic
_cell_length_a                    27.757619
_cell_length_b                    11.051341
_cell_length_c                    9.862437
_cell_angle_alpha                 112.389483
_cell_angle_beta                  98.564452
_cell_angle_gamma                 90.935632
_cell_volume                      2757.28748299

loop_
_atom_site_label
_atom_site_type_symbol
_atom_type_description
_atom_site_fract_x
_atom_site_fract_y
_atom_site_fract_z
_atom_type_partial_charge
C1    C     C_R   0.494984 0.252718 0.438524 0.759226
C2    C     C_R   0.504274 0.747097 0.561658 0.759386
C3    C     C_R   0.102502 0.497139 0.509294 -0.075301
C4    C     C_R   0.895910 0.465349 0.469474 -0.084408
C5    C     C_R   0.133050 0.457088 0.611163 -0.162347
C6    C     C_R   0.865473 0.507131 0.369046 -0.148254
C7    C     C_R   0.111378 0.421291 0.713904 0.424576
C8    C     C_R   0.886955 0.540328 0.264278 0.392220
C9    C     C_R   0.123748 0.545217 0.416271 -0.023688
C10   C     C_R   0.874642 0.418306 0.563260 -0.016290
C11   C     C_R   0.354878 0.496046 0.501748 -0.234130
C12   C     C_R   0.644966 0.495152 0.495288 -0.244356
C13   C     C_R   0.977457 0.429715 0.579805 0.076798
C14   C     C_R   0.020830 0.529555 0.396303 0.079170
C15   C     C_R   0.968994 0.516991 0.382838 -0.009145
C16   C     C_R   0.029310 0.442321 0.593349 -0.026005
C17   C     C_R   0.947611 0.470669 0.477227 0.085822
C18   C     C_R   0.050724 0.489539 0.499684 0.084433
C19   C     C_R   0.954118 0.374876 0.663754 -0.189994
C20   C     C_R   0.044084 0.584278 0.312128 -0.170754
C21   C     C_R   0.903901 0.370443 0.656311 -0.064361
C22   C     C_R   0.094340 0.590759 0.321227 -0.103719
C23   C     C_R   0.407621 0.499139 0.500619 0.886219
C24   C     C_R   0.592367 0.499337 0.498908 0.895205
C25   C     C_R   0.060564 0.414058 0.702339 -0.249956
C26   C     C_R   0.937698 0.544983 0.273703 -0.265666
C27   C     C_2   0.488220 0.110798 0.401628 0.264348
C28   C     C_2   0.508483 0.889025 0.600178 0.190157
C29   C     C_2   0.494815 0.070322 0.514947 -0.188198
C30   C     C_2   0.488927 0.932734 0.496050 -0.157374
C31   C     C_2   0.504010 0.509924 0.081532 0.104516
C32   C     C_2   0.494702 0.493922 0.919553 0.093426
C33   C     C_R   0.183769 0.454556 0.603928 0.667210
C34   C     C_R   0.815087 0.514235 0.379932 0.657543
C35   C     C_R   0.174261 0.546718 0.419633 0.622179
C36   C     C_R   0.824307 0.420749 0.563059 0.650043
C37   C     C_R   0.285198 0.601782 0.601761 -0.146946
C38   C     C_R   0.712247 0.378714 0.390637 -0.151213
C39   C     C_R   0.335242 0.603978 0.601577 0.224312
C40   C     C_R   0.662451 0.383547 0.394147 0.221793
C41   C     C_R   0.323879 0.385098 0.403019 0.138738
C42   C     C_R   0.677968 0.602172 0.592507 0.143518
C43   C     C_R   0.272902 0.383521 0.402588 0.417552
C44   C     C_R   0.728689 0.596599 0.589601 0.413743
C45   C     C_R   0.253976 0.493664 0.503589 0.116845
C46   C     C_R   0.745369 0.483243 0.486776 0.115897
Cu1   Cu    Cu3+1 0.508480 0.521810 0.644910 1.102629
Cu2   Cu    Cu3+1 0.491520 0.478190 0.355090 1.128481
H1    H     H_    0.463999 0.429007 0.845315 0.154835
H2    H     H_    0.533169 0.579885 0.157392 0.160990
H3    H     H_    0.725596 0.292508 0.312788 0.205957
H4    H     H_    0.270134 0.685437 0.678199 0.206403
H5    H     H_    0.888092 0.329905 0.725503 0.218750
H6    H     H_    0.110087 0.631504 0.252107 0.215006
H7    H     H_    0.973326 0.332422 0.735727 0.157297
H8    H     H_    0.024773 0.625516 0.239058 0.149982
H9    H     H_    0.046245 0.389156 0.784324 0.199908
H10   H     H_    0.951918 0.567739 0.190170 0.172868
H11   H     H_    0.468511 0.863186 0.392171 0.218329
H12   H     H_    0.505793 0.142423 0.626841 0.219611
N1    N     N_R   0.202695 0.498169 0.508949 -0.445111
N2    N     N_R   0.796195 0.472466 0.476391 -0.451737
N3    N     N_2   0.478780 0.445430 0.137360 -0.051873
N4    N     N_2   0.521220 0.554570 0.862640 -0.062622
O1    O     O_R   0.504520 0.332330 0.577400 -0.626637
O2    O     O_R   0.495480 0.667670 0.422600 -0.615385
O3    O     O_R   0.490210 0.295500 0.332650 -0.470816
O4    O     O_R   0.509790 0.704500 0.667350 -0.523236
O5    O     O_R   0.437420 0.518430 0.622370 -0.578940
O6    O     O_R   0.562580 0.481570 0.377630 -0.573133
O7    O     O_R   0.423110 0.481600 0.377610 -0.525726
O8    O     O_R   0.576890 0.518400 0.622390 -0.516504
O9    O     O_2   0.214126 0.405446 0.686208 -0.405876
O10   O     O_2   0.785121 0.566348 0.300057 -0.405221
O11   O     O_2   0.803639 0.375335 0.651860 -0.446332
O12   O     O_2   0.194873 0.593365 0.331725 -0.465890
Br1   Br    Br    0.352120 0.233237 0.275102 -0.243597
Br2   Br    Br    0.652888 0.758649 0.722572 -0.196476
S1    S     S_3+6 0.542405 0.995631 0.775249 0.090924
O13   O     O_2   0.586021 0.060467 0.748576 -0.187512
O14   O     O_2   0.511158 0.100418 0.855541 -0.266812
O15   O     O_3   0.562232 0.914694 0.883927 -0.390871
H13   H     H_    0.534071 0.906059 0.931358 0.400061
S2    S     S_3+6 0.470112 0.998992 0.213613 0.066883
O16   O     O_2   0.505227 0.893626 0.176485 -0.280074
O17   O     O_2   0.419818 0.936901 0.196887 -0.236199
O18   O     O_3   0.468971 0.074422 0.094223 -0.423687
H14   H     H_    0.449591 0.011904 0.999903 0.405376
Br3   Br    Br    0.578868 0.658205 0.977176 -0.217222
Br4   Br    Br    0.425385 0.325670 0.018066 -0.228004
S3    S     S_3+6 0.234089 0.243899 0.275704 0.098566
O19   O     O_2   0.248807 0.125444 0.306722 -0.199342
O20   O     O_2   0.180937 0.258788 0.286378 -0.307652
O21   O     O_3   0.241793 0.220403 0.101734 -0.428312
H15   H     H_    0.221224 0.138937 0.036931 0.396935
S4    S     S_3+6 0.769963 0.731819 0.714171 0.111247
O22   O     O_2   0.822585 0.708769 0.701608 -0.287484
O23   O     O_2   0.757897 0.851396 0.682120 -0.206316
O24   O     O_3   0.762346 0.759418 0.889247 -0.415923
H16   H     H_    0.783882 0.839531 0.952490 0.394753
S5    S     S_3+6 0.144932 0.391661 0.865688 0.082111
O25   O     O_2   0.168304 0.264212 0.806971 -0.194737
O26   O     O_2   0.183790 0.501866 0.951045 -0.188849
O27   O     O_3   0.108108 0.381593 0.982626 -0.560222
H17   H     H_    0.129705 0.362663 0.060447 0.404035
S6    S     S_3+6 0.853112 0.568894 0.112164 0.094649
O28   O     O_2   0.813014 0.461247 0.031332 -0.152391
O29   O     O_2   0.830898 0.698339 0.169165 -0.207244
O30   O     O_3   0.889008 0.571862 0.989875 -0.530519
H18   H     H_    0.902381 0.664354 0.025449 0.359532
Br5   Br    Br    0.620000 0.232328 0.261894 -0.286718
Br6   Br    Br    0.375015 0.759527 0.736001 -0.387688

loop_
_geom_bond_atom_site_label_1
_geom_bond_atom_site_label_2
_ccdc_geom_bond_type
C38   C40   A    
O18   H14   S    
S5    O25   D    
C27   C29   D    
C8    C26   A    
C14   C18   A    
S2    O18   S    
C20   H8    S    
C24   O6    A    
C22   H6    S    
C25   H9    S    
C46   N2    S    
C3    C9    A    
C27   S2    S    
C19   C21   A    
S2    O17   D    
C2    O4    A    
C41   Br1   S    
C3    C18   A    
C9    C22   A    
S6    O28   D    
S4    O24   S    
C34   N2    A    
C14   C20   A    
C45   N1    S    
C28   S1    S    
C23   O5    A    
Cu1   O5    S    
C12   C42   A    
C31   C32   S    
C5    C33   A    
C1    O1    A    
C1    C27   S    
S5    O26   D    
S4    O22   D    
C41   C43   A    
C42   C44   A    
N4    Br3   S    
C36   N2    A    
O27   H17   S    
C44   C46   A    
C40   Br5   S    
C10   C21   A    
C32   H1    S    
C35   O12   S    
C13   C19   A    
C31   N3    D    
S2    O16   D    
C32   N4    D    
C4    C6    A    
Cu1   N4    S    
S1    O14   D    
C37   H4    S    
Cu2   N3    S    
C6    C8    A    
C38   H3    S    
C2    O2    A    
C43   S3    S    
C6    C34   A    
S4    O23   D    
C12   C40   A    
C29   C30   S    
C44   S4    S    
C36   O11   S    
C23   O7    A    
S3    O20   D    
C26   H10   S    
Cu1   Cu2   S    
C29   H12   S    
C30   H11   S    
C35   N1    A    
C16   C18   A    
C11   C39   A    
C43   C45   A    
C34   O10   S    
C4    C17   A    
C33   O9    S    
C39   Br6   S    
C20   C22   A    
C42   Br2   S    
S5    O27   S    
C31   H2    S    
C4    C10   A    
Cu1   O4    S    
S3    O19   D    
C24   O8    A    
C5    C7    A    
C19   H7    S    
C16   C25   A    
C15   C17   A    
Cu2   O6    S    
C3    C5    A    
C8    S6    S    
S1    O15   S    
C10   C36   A    
C15   C26   A    
C12   C24   S    
C7    C25   A    
O24   H16   S    
C13   C17   A    
C28   C30   D    
C37   C39   A    
O30   H18   S    
S3    O21   S    
C21   H5    S    
S6    O29   D    
N3    Br4   S    
C11   C23   S    
C1    O3    A    
C11   C41   A    
Cu2   O3    S    
O21   H15   S    
Cu1   O8    S    
C38   C46   A    
S1    O13   D    
C33   N1    A    
O15   H13   S    
C7    S5    S    
C13   C16   A    
C9    C35   A    
C14   C15   A    
C2    C28   S    
Cu2   O7    S    
Cu2   O2    S    
C37   C45   A    
Cu1   O1    S    
S6    O30   S    
