data_mof_unit_51843.cif
_audit_creation_date              2012-12-10T16:36:43-0500
_audit_creation_method            fapswitch 2.2
_symmetry_space_group_name_H-M    P1
_symmetry_Int_Tables_number       1
_space_group_crystal_system       triclinic
_cell_length_a                    14.075701
_cell_length_b                    16.567705
_cell_length_c                    15.126834
_cell_angle_alpha                 89.976294
_cell_angle_beta                  91.630686
_cell_angle_gamma                 90.035602
_cell_volume                      3526.17930095

loop_
_atom_site_label
_atom_site_type_symbol
_atom_type_description
_atom_site_fract_x
_atom_site_fract_y
_atom_site_fract_z
_atom_type_partial_charge
C1    C     C_R   0.680532 0.845748 0.520343 0.839331
C2    C     C_R   0.958498 0.520155 0.109414 -0.259010
C3    C     C_R   0.618304 0.032738 0.127990 0.390530
C4    C     C_R   0.114781 0.460115 0.129054 0.400312
C5    C     C_R   0.622619 0.047557 0.036695 -0.112060
C6    C     C_R   0.125997 0.461007 0.037206 -0.108753
C7    C     C_2   0.241876 0.214660 0.478959 -0.289761
C8    C     C_2   0.241731 0.785463 0.479276 -0.276630
C9    C     C_2   0.747419 0.719503 0.471988 -0.290731
C10   C     C_2   0.741840 0.285346 0.479172 -0.287770
C11   C     C_2   0.753285 0.784835 0.526381 0.313774
C12   C     C_R   0.680486 0.154515 0.519479 0.836691
C13   C     C_2   0.754866 0.214500 0.523058 0.300573
C14   C     C_2   0.254803 0.285428 0.522973 0.294606
C15   C     C_2   0.254534 0.714743 0.523437 0.303933
C16   C     C_R   0.319067 0.155481 0.481212 0.851545
C17   C     C_R   0.318995 0.844584 0.481345 0.842712
C18   C     C_R   0.819528 0.655985 0.480645 0.839031
C19   C     C_R   0.819038 0.344544 0.481293 0.846951
C20   C     C_R   0.521329 0.000932 0.260374 0.892266
C21   C     C_R   0.021234 0.498410 0.260642 0.860847
C22   C     C_R   0.478355 0.999944 0.738170 0.971340
C23   C     C_R   0.180462 0.345425 0.519425 0.832586
C24   C     C_R   0.979644 0.500025 0.738422 0.907729
C25   C     C_R   0.531874 0.007426 0.164273 -0.155793
C26   C     C_R   0.031665 0.492142 0.164954 -0.149905
C27   C     C_R   0.473424 0.000080 0.833668 -0.225200
C28   C     C_R   0.972898 0.500453 0.833981 -0.258962
C29   C     C_R   0.377706 0.984811 0.963064 0.381915
C30   C     C_R   0.887259 0.540634 0.963447 0.414334
C31   C     C_R   0.385559 0.983782 0.871176 0.292230
C32   C     C_R   0.893435 0.537149 0.871670 0.353147
C33   C     C_R   0.555831 0.014117 0.886796 -0.074675
C34   C     C_R   0.180470 0.654535 0.519566 0.822310
C35   C     C_R   0.046600 0.466739 0.887499 -0.095137
C36   C     C_3   0.758635 0.987184 0.186513 0.097782
C37   C     C_3   0.838711 0.005645 0.253100 -0.732097
C38   C     C_3   0.178374 0.350787 0.199094 0.064983
C39   C     C_3   0.264107 0.319883 0.252435 -0.695520
C40   C     C_3   0.239624 0.041136 0.006304 0.118919
C41   C     C_3   0.145250 0.024266 0.049172 -0.815068
C42   C     C_3   0.740578 0.519911 0.018921 0.076465
C43   C     C_3   0.658525 0.560540 0.064650 -0.754239
C44   C     C_2   0.699999 0.101331 0.006351 0.399169
C45   C     C_R   0.546748 0.021007 0.979581 -0.047429
C46   C     C_2   0.224641 0.452597 0.005950 0.427688
C47   C     C_3   0.289540 0.886603 0.810251 0.149973
C48   C     C_3   0.215380 0.871115 0.737070 -0.832585
C49   C     C_3   0.765055 0.515591 0.776621 0.115527
C50   C     C_3   0.665619 0.549922 0.761744 -0.803399
C51   C     C_2   0.652014 0.007873 0.847784 0.482971
C52   C     C_2   0.118366 0.412616 0.847704 0.523605
C53   C     C_2   0.671727 0.708281 0.400979 0.332518
C54   C     C_2   0.651709 0.309057 0.430756 0.350809
C55   C     C_2   0.151879 0.191048 0.430230 0.311194
C56   C     C_R   0.046447 0.479637 0.980150 -0.051601
C57   C     C_2   0.151641 0.809212 0.430818 0.323723
C58   C     C_3   0.343320 0.355800 0.629989 0.134126
C59   C     C_3   0.443441 0.363207 0.669740 -0.762566
C60   C     C_3   0.341236 0.647443 0.633726 0.114616
C61   C     C_3   0.440429 0.642618 0.675987 -0.762596
C62   C     C_3   0.859400 0.868239 0.603633 0.112170
C63   C     C_3   0.950347 0.865156 0.660279 -0.767238
C64   C     C_3   0.843427 0.142543 0.628967 0.121315
C65   C     C_3   0.943133 0.136234 0.669829 -0.769068
C66   C     C_R   0.458837 0.999662 0.017268 -0.033341
C67   C     C_R   0.963691 0.513166 0.017711 -0.046611
C68   C     C_R   0.452669 0.993570 0.108945 -0.263602
H1    H     H_    0.386108 0.976134 0.137796 0.220911
H2    H     H_    0.270061 0.351836 0.316832 0.279555
H3    H     H_    0.256301 0.254175 0.264869 0.200328
H4    H     H_    0.330019 0.330209 0.215349 0.240573
H5    H     H_    0.224607 0.067611 0.939667 0.172929
H6    H     H_    0.279426 0.085913 0.048041 0.130963
H7    H     H_    0.157833 0.998738 0.116385 0.260416
H8    H     H_    0.104241 0.081195 0.054685 0.198296
H9    H     H_    0.103145 0.980592 0.008441 0.263586
H10   H     H_    0.769928 0.472109 0.063738 0.133439
H11   H     H_    0.712096 0.491050 0.957442 0.150331
H12   H     H_    0.896848 0.547405 0.138587 0.211553
H13   H     H_    0.626320 0.607548 0.020840 0.261594
H14   H     H_    0.603389 0.515052 0.079964 0.212826
H15   H     H_    0.684421 0.589045 0.127294 0.252587
H16   H     H_    0.769277 0.100918 0.039593 0.088127
H17   H     H_    0.272538 0.408539 0.036064 0.080082
H18   H     H_    0.262076 0.862548 0.873265 0.191204
H19   H     H_    0.355271 0.853008 0.793537 0.142188
H20   H     H_    0.241530 0.893446 0.672921 0.238767
H21   H     H_    0.200999 0.805381 0.731444 0.210933
H22   H     H_    0.148212 0.902705 0.752190 0.259203
H23   H     H_    0.790167 0.976561 0.120866 0.104605
H24   H     H_    0.759073 0.458154 0.814637 0.098863
H25   H     H_    0.793760 0.501501 0.710784 0.119457
H26   H     H_    0.668686 0.605379 0.720601 0.266298
H27   H     H_    0.619599 0.504797 0.727087 0.195794
H28   H     H_    0.634062 0.565078 0.826110 0.261515
H29   H     H_    0.710475 0.982339 0.886844 0.033311
H30   H     H_    0.137835 0.356657 0.880850 0.002892
H31   H     H_    0.664562 0.650449 0.367820 0.117926
H32   H     H_    0.639826 0.371941 0.413641 0.102617
H33   H     H_    0.140082 0.128251 0.412701 0.105702
H34   H     H_    0.722589 0.930817 0.207972 0.163805
H35   H     H_    0.139997 0.872058 0.413334 0.098872
H36   H     H_    0.297294 0.327752 0.680335 0.151440
H37   H     H_    0.317277 0.417638 0.613936 0.134721
H38   H     H_    0.490938 0.391941 0.621453 0.243054
H39   H     H_    0.442486 0.400965 0.730361 0.208095
H40   H     H_    0.471595 0.302478 0.687292 0.269027
H41   H     H_    0.316409 0.584866 0.619608 0.130569
H42   H     H_    0.293520 0.676550 0.681893 0.125534
H43   H     H_    0.467054 0.704222 0.691829 0.262864
H44   H     H_    0.438520 0.606757 0.737954 0.210509
H45   H     H_    0.809406 0.015184 0.319711 0.276472
H46   H     H_    0.489726 0.613063 0.629974 0.250066
H47   H     H_    0.807872 0.908168 0.636904 0.130173
H48   H     H_    0.877275 0.894299 0.538174 0.137925
H49   H     H_    0.003732 0.826375 0.628192 0.267859
H50   H     H_    0.979979 0.926960 0.668223 0.187179
H51   H     H_    0.935370 0.840251 0.726623 0.265318
H52   H     H_    0.819190 0.080597 0.610960 0.129487
H53   H     H_    0.795948 0.168493 0.679406 0.157607
H54   H     H_    0.969495 0.197105 0.689202 0.263863
H55   H     H_    0.942199 0.097175 0.729486 0.201853
H56   H     H_    0.889415 0.954333 0.256369 0.197820
H57   H     H_    0.992049 0.109485 0.621501 0.246369
H58   H     H_    0.877250 0.060886 0.232924 0.244326
H59   H     H_    0.173917 0.316439 0.135713 0.099232
H60   H     H_    0.113354 0.338781 0.237317 0.167179
O1    O     O_3   0.500000 1.000000 0.500000 -0.506825
O2    O     O_R   0.885830 0.337110 0.539910 -0.565695
O3    O     O_R   0.692160 0.095230 0.468550 -0.639493
O4    O     O_R   0.692160 0.904770 0.468550 -0.667558
O5    O     O_R   0.192160 0.595230 0.468550 -0.620938
O6    O     O_R   0.192160 0.404770 0.468550 -0.646094
O7    O     O_R   0.316720 0.904790 0.427870 -0.671530
O8    O     O_R   0.316720 0.095210 0.427870 -0.681581
O9    O     O_R   0.816720 0.404790 0.427870 -0.674076
O10   O     O_R   0.816720 0.595210 0.427870 -0.682079
O11   O     O_R   0.594900 1.000000 0.310900 -0.589209
O12   O     O_3   1.000000 0.500000 0.500000 -0.511938
O13   O     O_R   0.094900 0.500000 0.310900 -0.574708
O14   O     O_R   0.483090 0.932320 0.697550 -0.672362
O15   O     O_R   0.483090 0.067680 0.697550 -0.616856
O16   O     O_R   0.983090 0.432320 0.697550 -0.659285
O17   O     O_R   0.983090 0.567680 0.697550 -0.609240
O18   O     O_R   0.438930 1.000000 0.294000 -0.650228
O19   O     O_R   0.938930 0.500000 0.294000 -0.654450
O20   O     O_3   0.694885 0.053099 0.183017 -0.597992
O21   O     O_3   0.189187 0.434418 0.183961 -0.593944
O22   O     O_3   0.290876 0.968241 0.999768 -0.609764
O23   O     O_R   0.605310 0.837110 0.563680 -0.620098
O24   O     O_3   0.809826 0.578626 0.999577 -0.574095
O25   O     O_2   0.685261 0.150321 0.947197 -0.554866
O26   O     O_2   0.255065 0.498452 0.950197 -0.541809
O27   O     O_3   0.306002 0.970561 0.817083 -0.621094
O28   O     O_3   0.822956 0.574200 0.820004 -0.553692
O29   O     O_2   0.667690 0.031912 0.773295 -0.613040
O30   O     O_2   0.159018 0.431387 0.780449 -0.595589
O31   O     O_2   0.617957 0.762398 0.377283 -0.571101
O32   O     O_2   0.591530 0.259851 0.407275 -0.551724
O33   O     O_2   0.091746 0.240283 0.406872 -0.574690
O34   O     O_R   0.605310 0.162890 0.563680 -0.623286
O35   O     O_2   0.091152 0.760089 0.407833 -0.568969
O36   O     O_3   0.345936 0.308044 0.552642 -0.585781
O37   O     O_3   0.345201 0.692508 0.554518 -0.581500
O38   O     O_3   0.821898 0.789343 0.594739 -0.582694
O39   O     O_3   0.846006 0.192051 0.552892 -0.583649
O40   O     O_R   0.105310 0.337110 0.563680 -0.617124
O41   O     O_R   0.105310 0.662890 0.563680 -0.648358
O42   O     O_R   0.385830 0.162890 0.539910 -0.561213
O43   O     O_R   0.385830 0.837110 0.539910 -0.570664
O44   O     O_R   0.885830 0.662890 0.539910 -0.542266
Zn1   Zn    Zn3+2 0.493670 0.096680 0.574000 1.050336
Zn2   Zn    Zn3+2 0.493670 0.903320 0.574000 1.018454
Zn3   Zn    Zn3+2 0.993670 0.596680 0.574000 1.039999
Zn4   Zn    Zn3+2 0.993670 0.403320 0.574000 1.017974
Zn5   Zn    Zn3+2 0.617760 0.000000 0.438070 1.034430
Zn6   Zn    Zn3+2 0.117760 0.500000 0.438070 1.055938
Zn7   Zn    Zn3+2 0.394920 1.000000 0.413930 0.985591
Zn8   Zn    Zn3+2 0.894920 0.500000 0.413930 0.974939

loop_
_geom_bond_atom_site_label_1
_geom_bond_atom_site_label_2
_ccdc_geom_bond_type
C51   H29   S    
C66   C68   A    
C21   C26   S    
C12   O3    A    
C43   H15   S    
C49   O28   S    
C1    C11   S    
C7    C55   S    
C1    O4    A    
O10   Zn8   S    
C38   H59   S    
O3    Zn5   S    
O14   Zn2   S    
O34   Zn1   S    
C27   C33   A    
C4    O21   S    
O1    Zn7   S    
O8    Zn7   S    
C47   O27   S    
C44   O25   D    
C21   O19   A    
C20   O11   A    
C36   C37   S    
O5    Zn6   S    
C64   O39   S    
C24   O17   A    
C41   H9    S    
C38   C39   S    
C63   H49   S    
C50   H27   S    
C13   O39   S    
C37   H45   S    
C20   C25   S    
C64   H53   S    
C33   C45   A    
C40   H5    S    
C36   H34   S    
C18   O10   A    
C60   H41   S    
O12   Zn8   S    
C29   O22   S    
C32   O28   S    
O19   Zn8   S    
C36   O20   S    
C7    C14   D    
O17   Zn3   S    
C28   C35   A    
C68   H1    S    
C22   O15   A    
C17   O7    A    
C11   O38   S    
O12   Zn6   S    
C39   H4    S    
C48   H20   S    
C42   O24   S    
C15   C34   S    
C30   C67   A    
O44   Zn3   S    
C19   O9    A    
O4    Zn5   S    
C46   H17   S    
C19   O2    A    
C58   O36   S    
C3    O20   S    
O23   Zn2   S    
C48   H22   S    
O1    Zn1   S    
C25   C68   A    
C57   H35   S    
C52   O30   D    
C46   O26   D    
O43   Zn2   S    
C4    C26   A    
C53   O31   D    
C59   H38   S    
C27   C31   A    
O13   Zn6   S    
C47   H18   S    
C3    C25   A    
C2    H12   S    
C55   O33   D    
C4    C6    A    
C2    C67   A    
C63   H50   S    
C50   H26   S    
C34   O5    A    
C44   H16   S    
C58   C59   S    
C5    C45   A    
C51   O29   D    
C53   H31   S    
C29   C66   A    
C60   C61   S    
C45   C66   A    
C65   H57   S    
C14   C23   S    
C62   H48   S    
C62   C63   S    
O11   Zn5   S    
C8    C57   S    
C41   H7    S    
C37   H56   S    
C63   H51   S    
C30   O24   S    
C47   C48   S    
C57   O35   D    
C28   C32   A    
C10   C19   S    
O12   Zn4   S    
O16   Zn4   S    
O41   Zn3   S    
C40   O22   S    
C2    C26   A    
C65   H54   S    
O6    Zn6   S    
C38   H60   S    
C9    C11   D    
C34   O41   A    
C36   H23   S    
C7    C16   S    
C62   O38   S    
C5    C44   S    
C42   H10   S    
C8    C15   D    
C48   H21   S    
C12   O34   A    
C38   O21   S    
C43   H13   S    
C20   O18   A    
O1    Zn2   S    
C58   H36   S    
C42   C43   S    
O15   Zn1   S    
C49   H24   S    
C16   O8    A    
C35   C52   S    
C37   H58   S    
O40   Zn4   S    
C40   C41   S    
C6    C46   S    
C23   O6    A    
C35   C56   A    
C24   C28   S    
C6    C56   A    
C3    C5    A    
C10   C13   D    
C31   O27   S    
C22   O14   A    
C17   O43   A    
C18   O44   A    
C33   C51   S    
C56   C67   A    
C55   H33   S    
C60   O37   S    
C64   H52   S    
C22   C27   S    
C58   H37   S    
O2    Zn4   S    
C59   H40   S    
C21   O13   A    
C62   H47   S    
C29   C31   A    
C64   C65   S    
C8    C17   S    
C30   C32   A    
C50   H28   S    
O9    Zn8   S    
O1    Zn5   S    
C24   O16   A    
O12   Zn3   S    
C52   H30   S    
C54   H32   S    
C39   H2    S    
C40   H6    S    
O18   Zn7   S    
C1    O23   A    
C65   H55   S    
C14   O36   S    
C10   C54   S    
C59   H39   S    
C60   H42   S    
C54   O32   D    
C23   O40   A    
C16   O42   A    
C9    C18   S    
C42   H11   S    
C9    C53   S    
C12   C13   S    
O7    Zn7   S    
C49   C50   S    
C61   H46   S    
C43   H14   S    
C39   H3    S    
C15   O37   S    
C49   H25   S    
C61   H44   S    
C47   H19   S    
C41   H8    S    
O42   Zn1   S    
C61   H43   S    
