data_mof_unit_5966.cif
_audit_creation_date              2012-12-10T20:27:52-0500
_audit_creation_method            fapswitch 2.2
_symmetry_space_group_name_H-M    P1
_symmetry_Int_Tables_number       1
_space_group_crystal_system       triclinic
_cell_length_a                    12.869518
_cell_length_b                    10.677856
_cell_length_c                    9.86182
_cell_angle_alpha                 90.14472
_cell_angle_beta                  97.340836
_cell_angle_gamma                 90.134571
_cell_volume                      1344.08317587

loop_
_atom_site_label
_atom_site_type_symbol
_atom_type_description
_atom_site_fract_x
_atom_site_fract_y
_atom_site_fract_z
_atom_type_partial_charge
C1    C     C_R   0.498022 0.260024 0.499768 0.894387
C2    C     C_R   0.028503 0.482988 0.559796 0.162618
C3    C     C_R   0.970517 0.532951 0.441258 0.107992
C4    C     C_R   0.863504 0.542820 0.434658 -0.235178
C5    C     C_R   0.871027 0.455285 0.663434 -0.213049
C6    C     C_R   0.978896 0.445843 0.671355 -0.140026
C7    C     C_R   0.510851 0.063986 0.622515 0.161744
C8    C     C_R   0.486273 0.128248 0.500143 -0.111168
C9    C     C_R   0.444802 0.064189 0.381195 -0.193411
C10   C     C_R   0.444787 0.934570 0.381084 -0.193270
C11   C     C_R   0.485567 0.871380 0.500367 -0.115365
C12   C     C_R   0.297983 0.502782 0.472614 0.947450
C13   C     C_R   0.510209 0.936320 0.622645 0.161243
C14   C     C_3   0.606607 0.928869 0.724304 -0.483424
C15   C     C_3   0.607742 0.070781 0.723753 -0.493750
C16   C     C_R   0.420862 0.442880 0.057998 0.154086
C17   C     C_R   0.572611 0.566182 0.084257 -0.124682
C18   C     C_R   0.572667 0.566111 0.940260 -0.135153
C19   C     C_R   0.420580 0.443260 0.915239 0.083748
C20   C     C_3   0.391510 0.308099 0.904063 0.388286
C21   C     C_3   0.392885 0.307480 0.058193 0.397986
C22   C     C_R   0.497814 0.739874 0.499896 0.876658
C23   C     C_R   0.701769 0.500902 0.527041 0.867424
C24   C     C_R   0.813820 0.501469 0.543841 -0.049198
C25   C     C_R   0.185417 0.510103 0.455039 -0.164761
C26   C     C_R   0.019911 0.571158 0.330372 -0.246529
C27   C     C_R   0.127663 0.560830 0.336359 0.417173
C28   C     C_R   0.135210 0.470842 0.565007 -0.278818
H1    H     H_    0.818669 0.580724 0.343301 0.149922
H2    H     H_    0.674115 0.886465 0.681039 0.201336
H3    H     H_    0.592924 0.112187 0.822890 0.201190
H4    H     H_    0.675725 0.111285 0.679704 0.204106
H5    H     H_    0.632431 0.617711 0.148645 0.149811
H6    H     H_    0.632530 0.617485 0.895982 0.152131
H7    H     H_    0.452210 0.248137 0.866666 0.027447
H8    H     H_    0.455474 0.248112 0.112673 -0.005155
H9    H     H_    0.832283 0.423230 0.748315 0.164715
H10   H     H_    0.974955 0.610171 0.239846 0.173314
H11   H     H_    0.023096 0.408116 0.763058 0.187757
H12   H     H_    0.179323 0.431484 0.655893 0.242477
H13   H     H_    0.417205 0.113350 0.287896 0.199883
H14   H     H_    0.417991 0.884610 0.287299 0.197082
H15   H     H_    0.590123 0.888551 0.823202 0.212791
N1    N     N_R   0.499290 0.499140 0.142710 -0.135081
N2    N     N_R   0.499290 0.499180 0.857070 -0.136067
O1    O     O_R   0.500010 0.316790 0.614690 -0.617724
O2    O     O_R   0.500000 0.316760 0.385350 -0.625285
O3    O     O_R   0.346360 0.499990 0.595720 -0.602653
O4    O     O_R   0.346350 0.499960 0.366370 -0.540933
O5    O     O_R   0.500000 0.683240 0.614650 -0.613608
O6    O     O_R   0.499990 0.683210 0.385310 -0.615363
O7    O     O_R   0.653650 0.500040 0.633630 -0.633260
O8    O     O_R   0.653640 0.500010 0.404280 -0.631125
Zn1   Zn    Zn3+2 0.500010 0.500020 0.653130 0.976139
Zn2   Zn    Zn3+2 0.499990 0.499980 0.346870 1.003665
F1    F     F_    0.292194 0.291006 0.834231 -0.603162
F2    F     F_    0.294794 0.289092 0.098442 -0.571008
Cl1   Cl    Cl    0.185179 0.618872 0.195892 -0.556353

loop_
_geom_bond_atom_site_label_1
_geom_bond_atom_site_label_2
_ccdc_geom_bond_type
C23   C24   S    
C19   N2    A    
C15   H3    S    
C16   C21   S    
C26   H10   S    
C5    H9    S    
C10   H14   S    
C1    C8    S    
C11   C13   A    
C9    C10   A    
C16   N1    A    
C11   C22   S    
C9    H13   S    
C19   C20   S    
C22   O5    A    
C12   C25   S    
C12   O3    A    
O4    Zn2   S    
O1    Zn1   S    
C7    C15   S    
C17   C18   A    
C23   O7    A    
C17   N1    A    
C7    C8    A    
C21   H8    S    
C2    C6    A    
C13   C14   S    
C25   C28   A    
O3    Zn1   S    
C18   H6    S    
N1    Zn2   S    
C26   C27   A    
O5    Zn1   S    
C5    C24   A    
C17   H5    S    
C14   H2    S    
C16   C19   A    
O7    Zn1   S    
N2    Zn1   S    
C23   O8    A    
C2    C3    A    
C20   F1    S    
O8    Zn2   S    
C5    C6    A    
C4    C24   A    
C1    O1    A    
C22   O6    A    
C12   O4    A    
C25   C27   A    
C10   C11   A    
C28   H12   S    
C3    C4    A    
C21   F2    S    
C7    C13   A    
C20   C21   S    
O2    Zn2   S    
C18   N2    A    
C6    H11   S    
C8    C9    A    
C2    C28   A    
O6    Zn2   S    
C14   C15   S    
C20   H7    S    
C3    C26   A    
C1    O2    A    
C4    H1    S    
C14   H15   S    
C27   Cl1   S    
C15   H4    S    
