data_mof_unit_38065.cif
_audit_creation_date              2013-03-05T15:46:31-0500
_audit_creation_method            fapswitch 2.2
_symmetry_space_group_name_H-M    P1
_symmetry_Int_Tables_number       1
_space_group_crystal_system       triclinic
_cell_length_a                    6.979169
_cell_length_b                    16.416638
_cell_length_c                    17.461467
_cell_angle_alpha                 100.176407
_cell_angle_beta                  90.040514
_cell_angle_gamma                 90.352704
_cell_volume                      1969.12494995

loop_
_atom_site_label
_atom_site_type_symbol
_atom_site_description
_atom_site_fract_x
_atom_site_fract_y
_atom_site_fract_z
_atom_type_partial_charge
O1    O     O_R   0.506180 0.438940 0.579430 -0.581384
O2    O     O_R   0.170520 0.406230 0.413590 -0.616605
O3    O     O_R   0.005180 0.561060 0.420570 -0.545715
C1    C     C_R   0.340054 0.383516 0.385051 0.977112
O4    O     O_R   0.176140 0.429310 0.578370 -0.554615
O5    O     O_R   0.010830 0.584300 0.586530 -0.555349
C2    C     C_R   0.343950 0.414535 0.605363 0.976207
O6    O     O_R   0.500520 0.415700 0.413470 -0.579770
O7    O     O_3   0.340830 0.550820 0.502480 -0.235504
V1    V     V_3+5 0.064040 0.490570 0.499540 1.296275
O8    O     O_R   0.681400 0.593770 0.586410 -0.574194
C3    C     C_R   0.850918 0.614610 0.617168 1.128732
O9    O     O_R   0.675790 0.570690 0.421630 -0.538411
C4    C     C_R   0.843558 0.584250 0.393056 1.110633
V2    V     V_3+5 0.564650 0.509430 0.500460 1.313649
O10   O     O_3   0.837730 0.449180 0.497520 -0.292111
C5    C     C_R   0.913445 0.862489 0.165261 -0.295877
C6    C     C_R   0.850539 0.633484 0.328149 -0.124924
C7    C     C_R   0.855429 0.638812 0.188249 0.344180
C8    C     C_R   0.842462 0.593757 0.250074 -0.151740
C9    C     C_R   0.868818 0.720139 0.342889 -0.119179
C10   C     C_R   0.887961 0.766062 0.283074 0.075603
C11   C     C_R   0.876347 0.726461 0.204814 0.065210
C12   C     C_R   0.882637 0.776141 0.146352 -0.220680
C13   C     C_R   0.940390 0.900520 0.243942 0.327482
C14   C     C_R   0.921341 0.851691 0.301818 -0.248693
H1    H     H_    0.863722 0.748541 0.085850 0.150803
H2    H     H_    0.934806 0.880667 0.362395 0.166917
H3    H     H_    0.834053 0.526881 0.236936 0.166821
H4    H     H_    0.868833 0.754548 0.400469 0.206778
H5    H     H_    0.677682 0.638183 0.976464 0.189423
C15   C     C_R   0.053631 0.902571 0.740277 -0.169418
C16   C     C_R   0.123157 0.917412 0.670063 -0.196966
C17   C     C_R   0.101873 0.857784 0.604626 -0.158383
C18   C     C_R   0.010044 0.782676 0.608580 0.355250
C19   C     C_R   0.947948 0.761979 0.680683 -0.034132
C20   C     C_R   0.969490 0.825165 0.747487 0.101764
C21   C     C_R   0.869709 0.681580 0.688127 -0.289771
C22   C     C_R   0.828107 0.664867 0.765119 -0.031057
C23   C     C_R   0.832949 0.733439 0.829309 0.125874
C24   C     C_R   0.903470 0.812173 0.820157 -0.233165
C25   C     C_R   0.783788 0.583701 0.783622 0.286803
C26   C     C_R   0.734189 0.577076 0.860497 -0.069929
C27   C     C_R   0.722138 0.645292 0.918652 -0.065687
C28   C     C_R   0.773311 0.722088 0.903976 -0.192422
H6    H     H_    0.067679 0.953312 0.788596 0.141280
H7    H     H_    0.187994 0.976513 0.665860 0.148166
H8    H     H_    0.148102 0.871751 0.549113 0.161378
H9    H     H_    0.702607 0.517490 0.876144 0.203182
H10   H     H_    0.768910 0.772435 0.953035 0.104707
H11   H     H_    0.109202 0.471492 0.142744 0.204340
C29   C     C_R   0.482197 0.221738 0.399665 -0.159455
C30   C     C_R   0.554907 0.145395 0.409422 -0.095772
C31   C     C_R   0.581557 0.083127 0.345358 0.008610
C32   C     C_R   0.536594 0.096753 0.270914 -0.064635
C33   C     C_R   0.463037 0.173621 0.258946 0.112421
C34   C     C_R   0.434601 0.237654 0.324890 0.122079
C35   C     C_R   0.407856 0.185535 0.183518 -0.255690
C36   C     C_R   0.314340 0.260382 0.175598 0.118212
C37   C     C_R   0.308549 0.328238 0.239341 -0.020703
C38   C     C_R   0.358437 0.315510 0.315532 -0.272440
C39   C     C_R   0.226039 0.269633 0.104724 -0.177413
C40   C     C_R   0.136437 0.343039 0.096903 -0.100751
C41   C     C_R   0.156888 0.412388 0.154509 -0.133175
C42   C     C_R   0.253572 0.407208 0.223696 0.269019
H12   H     H_    0.461871 0.267657 0.451560 0.085069
H13   H     H_    0.589469 0.134323 0.467152 0.115233
H14   H     H_    0.635990 0.023624 0.353449 0.124507
H15   H     H_    0.557084 0.045823 0.223162 0.121254
H16   H     H_    0.221814 0.220392 0.054773 0.127014
H17   H     H_    0.061957 0.347651 0.043533 0.181025
C43   C     C_R   0.412390 0.139122 0.834487 -0.112792
C44   C     C_R   0.348228 0.366990 0.670453 -0.143033
C45   C     C_R   0.323039 0.359662 0.809455 0.135847
C46   C     C_R   0.316656 0.406276 0.748296 0.266397
C47   C     C_R   0.387570 0.281965 0.654681 -0.300873
C48   C     C_R   0.395015 0.235146 0.714850 0.199041
C49   C     C_R   0.359913 0.273274 0.792881 0.082852
C50   C     C_R   0.366531 0.223840 0.852047 -0.191209
C51   C     C_R   0.450625 0.103348 0.757216 -0.181062
C52   C     C_R   0.440027 0.150492 0.697925 -0.148799
H18   H     H_    0.337990 0.250113 0.912108 0.132318
H19   H     H_    0.487117 0.038408 0.742653 0.120361
H20   H     H_    0.468587 0.120716 0.638594 0.118768
H21   H     H_    0.413977 0.252249 0.595121 0.119279
O11   O     O_R   0.265840 0.084300 0.086750 -0.566698
O12   O     O_R   0.589750 0.070740 0.921690 -0.586255
O13   O     O_R   0.755020 0.915730 0.913400 -0.594552
C53   C     C_R   0.421003 0.087643 0.896417 0.911035
O14   O     O_R   0.595830 0.093740 0.086480 -0.576181
O15   O     O_R   0.761150 0.938890 0.079360 -0.597096
C54   C     C_R   0.426063 0.116753 0.114773 0.930263
O16   O     O_R   0.259710 0.061140 0.920790 -0.601826
O17   O     O_3   0.425260 0.949200 0.997610 -0.277909
V3    V     V_3+5 0.702060 0.009430 0.000450 1.199847
O18   O     O_R   0.090530 0.929220 0.078150 -0.575304
C55   C     C_R   0.921748 0.911217 0.102093 1.042052
O19   O     O_R   0.084440 0.906220 0.913360 -0.596098
C56   C     C_R   0.914796 0.881488 0.887607 0.905040
V4    V     V_3+5 0.201450 0.990520 0.999290 1.204548
O20   O     O_3   0.928380 0.050800 0.002390 -0.267801
N1    N     N_R   0.964213 0.732814 0.536809 0.172808
O21   O     O_R   0.784361 0.724724 0.517007 -0.495637
O22   O     O_R   0.099341 0.713840 0.485560 -0.429313
N2    N     N_R   0.794084 0.506010 0.729713 0.219549
O23   O     O_R   0.702301 0.441969 0.745384 -0.428085
O24   O     O_R   0.939389 0.489736 0.684238 -0.403497
N3    N     N_R   0.989772 0.987233 0.266701 0.213366
O25   O     O_R   0.061759 0.014331 0.335347 -0.427083
O26   O     O_R   0.961752 0.040230 0.220608 -0.425956
N4    N     N_R   0.329193 0.482123 0.268545 0.229658
O27   O     O_R   0.235892 0.551078 0.273678 -0.413913
O28   O     O_R   0.511234 0.485886 0.284131 -0.429816
I1    I     I_    0.292842 0.422664 0.926944 -0.304684
I2    I     I_    0.295071 0.539106 0.774364 -0.309045
N5    N     N_R   0.856763 0.594004 0.109810 0.209669
O29   O     O_R   0.745035 0.529916 0.090318 -0.385471
O30   O     O_R   0.993838 0.606684 0.062730 -0.400005

loop_
_geom_bond_atom_site_label_1
_geom_bond_atom_site_label_2
_geom_bond_distance
_ccdc_geom_bond_type
C32   C33   1.414439 A    
C6    C9    1.405213 A    
C4    C6    1.504477 S    
O2    C1    1.314518 A    
C7    C8    1.414979 A    
C12   H1    1.081081 S    
C1    O6    1.295728 A    
C18   N1    1.405943 S    
O14   V3    2.000378 S    
C2    C44   1.488491 S    
C30   C31   1.389066 A    
N3    O25   1.301945 A    
N2    O24   1.288347 A    
C28   H10   1.080776 S    
C19   C20   1.424631 A    
C43   C50   1.409126 A    
O5    C3    1.301150 A    
C21   C22   1.448062 A    
C31   H14   1.082467 S    
V2    O10   2.149119 S    
C45   I1    2.139272 S    
N5    O29   1.301466 A    
C39   H16   1.079637 S    
C17   C18   1.398671 A    
C42   N4    1.433678 S    
O8    V2    2.020774 S    
N4    O27   1.298759 A    
N3    O26   1.300886 A    
O12   V3    2.004023 S    
C11   C12   1.415278 A    
C24   C56   1.487772 S    
O1    V2    1.991470 S    
C48   C52   1.406321 A    
O11   V4    2.015974 S    
O7    V1    2.161263 S    
O13   V3    1.998712 S    
C36   C37   1.429662 A    
O9    C4    1.306266 A    
C3    C21   1.509239 S    
C44   C46   1.415788 A    
O17   V3    2.161281 S    
C51   H19   1.083376 S    
C22   C25   1.456970 A    
C8    H3    1.082407 S    
C23   C28   1.411917 A    
C5    C12   1.412598 A    
C45   C46   1.420275 A    
C47   C48   1.408210 A    
H5    C27   1.081927 S    
C22   C23   1.441630 A    
O4    C2    1.302208 A    
C49   C50   1.422938 A    
C26   H9    1.082580 S    
C35   C36   1.422908 A    
C48   C49   1.417500 A    
C1    C38   1.503178 S    
C53   O16   1.302956 A    
C37   C38   1.425957 A    
C18   C19   1.427771 A    
C7    C11   1.423265 A    
C26   C27   1.375430 A    
C39   C40   1.388959 A    
O14   C54   1.315684 A    
O17   V4    1.704977 S    
O18   C55   1.299923 A    
C16   C17   1.374279 A    
N4    O28   1.297943 A    
C15   C20   1.422305 A    
O15   C55   1.299848 A    
N1    O22   1.301361 A    
O16   V4    1.986157 S    
C32   H15   1.081688 S    
O3    C4    1.310438 A    
N5    O30   1.301339 A    
C23   C24   1.415529 A    
C40   H17   1.081266 S    
C37   C42   1.426076 A    
O6    V2    2.009963 S    
O19   V4    2.020919 S    
O9    V2    1.997208 S    
C45   C49   1.421575 A    
C16   H7    1.082266 S    
C44   C47   1.403062 A    
C17   H8    1.083672 S    
C25   C26   1.409018 A    
O2    V1    2.000431 S    
C52   H20   1.083753 S    
C29   H12   1.081498 S    
C27   C28   1.375289 A    
N2    O23   1.297737 A    
C33   C34   1.430204 A    
C31   C32   1.393315 A    
C36   C39   1.414541 A    
O1    C2    1.306433 A    
C15   H6    1.079772 S    
H11   C41   1.081081 S    
C51   C52   1.400025 A    
O5    V1    1.998702 S    
C50   H18   1.080327 S    
O8    C3    1.316971 A    
C34   C38   1.422997 A    
C9    H4    1.062691 S    
C14   H2    1.084200 S    
C5    C13   1.416975 A    
C41   C42   1.399259 A    
C19   C21   1.452236 A    
C13   C14   1.402397 A    
O4    V1    2.003881 S    
C43   C51   1.399671 A    
O3    V1    1.994553 S    
V1    O10   1.713437 S    
C15   C16   1.379453 A    
C43   C53   1.486841 S    
C5    C55   1.473497 S    
C7    N5    1.435716 S    
O18   V4    1.997433 S    
V4    O20   2.149127 S    
C33   C35   1.418632 A    
C6    C8    1.404417 A    
C20   C24   1.401137 A    
N1    O21   1.301486 A    
C30   H13   1.082737 S    
C25   N2    1.447400 S    
O13   C56   1.296633 A    
C29   C34   1.415771 A    
O15   V3    1.994636 S    
C40   C41   1.386165 A    
C46   I2    2.153684 S    
C13   N3    1.448107 S    
O19   C56   1.302949 A    
C10   C14   1.403842 A    
O12   C53   1.305881 A    
C10   C11   1.407809 A    
O11   C54   1.293627 A    
C9    C10   1.397964 A    
C35   C54   1.501708 S    
C47   H21   1.084276 S    
V3    O20   1.713444 S    
O7    V2    1.705200 S    
C29   C30   1.392997 A    
