data_mof_unit_66895.cif
_audit_creation_date              2013-03-05T15:57:25-0500
_audit_creation_method            fapswitch 2.2
_symmetry_space_group_name_H-M    P1
_symmetry_Int_Tables_number       1
_space_group_crystal_system       triclinic
_cell_length_a                    17.359269
_cell_length_b                    18.677821
_cell_length_c                    8.389478
_cell_angle_alpha                 89.999937
_cell_angle_beta                  102.745789
_cell_angle_gamma                 90.000971
_cell_volume                      2653.11986651

loop_
_atom_site_label
_atom_site_type_symbol
_atom_site_description
_atom_site_fract_x
_atom_site_fract_y
_atom_site_fract_z
_atom_type_partial_charge
P1    P     P_3+3 0.834140 0.419320 0.003900 0.463377
P2    P     P_3+3 0.834140 0.580680 0.503900 0.463388
P3    P     P_3+3 0.334140 0.919320 0.003900 0.463326
P4    P     P_3+3 0.334140 0.080680 0.503900 0.463332
O1    O     O_2   0.841960 0.394640 0.833410 -0.343536
O2    O     O_2   0.841960 0.605360 0.333410 -0.343502
O3    O     O_2   0.341960 0.894640 0.833410 -0.343560
O4    O     O_2   0.341960 0.105360 0.333410 -0.343560
O5    O     O_3   0.907950 0.463080 0.102990 -0.381347
O6    O     O_3   0.907950 0.536920 0.602990 -0.381357
O7    O     O_3   0.407950 0.963080 0.102990 -0.381397
O8    O     O_3   0.407950 0.036920 0.602990 -0.381395
O9    O     O_3   0.972780 0.329600 0.629720 -0.344216
O10   O     O_3   0.972780 0.670400 0.129720 -0.344158
O11   O     O_3   0.472780 0.829600 0.629720 -0.344233
O12   O     O_3   0.472780 0.170400 0.129720 -0.344207
O13   O     O_2   0.838059 0.281642 0.691316 -0.352127
O14   O     O_2   0.838036 0.718319 0.191190 -0.352015
O15   O     O_2   0.338038 0.781659 0.691257 -0.352043
O16   O     O_2   0.338031 0.218328 0.191229 -0.352043
O17   O     O_3   0.757401 0.478149 0.930311 -0.602819
O18   O     O_3   0.757402 0.521848 0.430313 -0.602809
O19   O     O_3   0.257375 0.978127 0.930334 -0.602905
O20   O     O_3   0.257375 0.021871 0.430330 -0.602911
O21   O     O_3   0.935719 0.183791 0.662435 -0.503084
O22   O     O_3   0.935739 0.816186 0.162698 -0.502913
O23   O     O_3   0.435687 0.683787 0.662475 -0.503085
O24   O     O_3   0.435689 0.316205 0.162529 -0.503055
C1    C     C_3   0.973601 0.068933 0.589947 -1.008952
C2    C     C_3   0.973738 0.931090 0.090743 -1.008959
C3    C     C_3   0.473644 0.568930 0.590083 -1.009210
C4    C     C_3   0.473689 0.431067 0.090244 -1.009204
H1    H     H_    0.515150 0.560584 0.709849 0.281232
H2    H     H_    0.515230 0.439386 0.209980 0.281239
H3    H     H_    0.015143 0.060566 0.709658 0.281190
H4    H     H_    0.015379 0.939332 0.210385 0.281207
H5    H     H_    0.914644 0.048141 0.597097 0.275410
H6    H     H_    0.914838 0.951896 0.098260 0.275382
H7    H     H_    0.414686 0.548117 0.597155 0.275383
H8    H     H_    0.414746 0.451883 0.097434 0.275385
P5    P     P_3+3 0.165830 0.418670 0.685610 0.449409
P6    P     P_3+3 0.165830 0.581330 0.185610 0.449362
P7    P     P_3+3 0.665830 0.918670 0.685610 0.449547
P8    P     P_3+3 0.665830 0.081330 0.185610 0.449353
P9    P     P_3+3 0.099031 0.264264 0.107841 0.493995
P10   P     P_3+3 0.099047 0.735721 0.607856 0.494141
P11   P     P_3+3 0.599031 0.764263 0.107831 0.493857
P12   P     P_3+3 0.599032 0.235735 0.607838 0.494019
O25   O     O_2   0.157990 0.394030 0.856030 -0.368837
O26   O     O_2   0.157990 0.605970 0.356030 -0.368698
O27   O     O_2   0.657990 0.894030 0.856030 -0.369122
O28   O     O_2   0.657990 0.105970 0.356030 -0.368432
O29   O     O_3   0.027110 0.329490 0.059550 -0.394404
O30   O     O_3   0.027110 0.670510 0.559550 -0.394240
O31   O     O_3   0.527110 0.829490 0.059550 -0.394459
O32   O     O_3   0.527110 0.170510 0.559550 -0.394300
O33   O     O_2   0.154597 0.273991 0.988978 -0.333379
O34   O     O_2   0.154625 0.725988 0.489019 -0.333428
O35   O     O_2   0.654602 0.773999 0.988979 -0.333323
O36   O     O_2   0.654599 0.226003 0.488980 -0.333455
O37   O     O_3   0.247725 0.475782 0.726829 -0.580743
O38   O     O_3   0.247726 0.524222 0.226868 -0.580769
O39   O     O_3   0.747719 0.975788 0.726766 -0.580544
O40   O     O_3   0.747723 0.024221 0.226959 -0.580658
O41   O     O_3   0.051423 0.182776 0.053608 -0.489113
O42   O     O_3   0.051453 0.817205 0.553591 -0.488955
O43   O     O_3   0.551426 0.682776 0.053564 -0.489060
O44   O     O_3   0.551425 0.317219 0.553569 -0.489066
C5    C     C_3   0.977277 0.184854 0.095058 0.523204
C6    C     C_3   0.977395 0.815217 0.595429 0.523244
C7    C     C_3   0.477313 0.684812 0.095147 0.523266
C8    C     C_3   0.477323 0.315190 0.595201 0.523237
H9    H     H_    0.933946 0.212261 0.996573 0.138420
H10   H     H_    0.933931 0.787887 0.497055 0.138161
H11   H     H_    0.433936 0.712193 0.996715 0.138326
H12   H     H_    0.433930 0.287817 0.496781 0.138295
H13   H     H_    0.978862 0.212541 0.213205 -0.015656
H14   H     H_    0.979046 0.787509 0.713579 -0.015617
H15   H     H_    0.478924 0.712502 0.213301 -0.015650
H16   H     H_    0.478942 0.287498 0.713355 -0.015687
C9    C     C_3   0.950107 0.108695 0.110507 -1.081912
C10   C     C_3   0.950407 0.891410 0.611126 -1.082570
C11   C     C_3   0.450212 0.608639 0.110666 -1.082218
C12   C     C_3   0.450244 0.391367 0.610748 -1.082228
H17   H     H_    0.388181 0.607873 0.125388 0.245615
H18   H     H_    0.388211 0.392143 0.625455 0.245630
H19   H     H_    0.888037 0.107965 0.125051 0.245547
H20   H     H_    0.888360 0.892242 0.625749 0.245721
H21   H     H_    0.954899 0.078709 0.999596 0.292161
H22   H     H_    0.955239 0.921415 0.500280 0.292287
H23   H     H_    0.454942 0.578657 0.999716 0.292230
H24   H     H_    0.454992 0.421352 0.499816 0.292250
C13   C     C_3   0.226536 0.457203 0.278955 0.380049
C14   C     C_3   0.226565 0.542769 0.779131 0.380144
C15   C     C_3   0.726405 0.957075 0.278154 0.379863
C16   C     C_3   0.726556 0.042779 0.779051 0.380360
H25   H     H_    0.224809 0.460895 0.409475 0.105435
H26   H     H_    0.224951 0.539024 0.909698 0.105447
H27   H     H_    0.724163 0.960548 0.408463 0.104984
H28   H     H_    0.724943 0.039043 0.909631 0.105033
H29   H     H_    0.169120 0.437229 0.206798 0.126979
H30   H     H_    0.169103 0.562741 0.707193 0.126823
H31   H     H_    0.669201 0.937079 0.205012 0.127622
H32   H     H_    0.669091 0.062748 0.707098 0.126867
C17   C     C_3   0.289052 0.403269 0.258812 -0.919863
C18   C     C_3   0.289024 0.596745 0.758866 -0.919831
C19   C     C_3   0.789187 0.903312 0.258620 -0.919454
C20   C     C_3   0.789012 0.096752 0.758749 -0.919570
H33   H     H_    0.348138 0.426532 0.304897 0.269297
H34   H     H_    0.348135 0.573483 0.804629 0.269334
H35   H     H_    0.848165 0.926570 0.306166 0.269064
H36   H     H_    0.848126 0.073493 0.804531 0.269253
H37   H     H_    0.284033 0.353533 0.327610 0.228266
H38   H     H_    0.284072 0.646432 0.827881 0.228165
H39   H     H_    0.783847 0.853365 0.326462 0.228585
H40   H     H_    0.784056 0.146449 0.827728 0.228131
H41   H     H_    0.282702 0.390169 0.127749 0.269094
H42   H     H_    0.282537 0.609931 0.627816 0.269184
H43   H     H_    0.783473 0.890587 0.127500 0.268714
H44   H     H_    0.782531 0.109918 0.627682 0.269203
Ba1   Ba    Ba6+2 0.000000 0.447380 0.844850 1.579730
Ba2   Ba    Ba6+2 1.000000 0.552620 0.344850 1.579757
Ba3   Ba    Ba6+2 0.500000 0.947380 0.844850 1.579686
Ba4   Ba    Ba6+2 0.500000 0.052620 0.344850 1.579662
C21   C     C_3   0.731385 0.510921 0.056098 0.658487
C22   C     C_3   0.731379 0.489091 0.556112 0.658477
C23   C     C_3   0.231412 0.010929 0.056153 0.658254
C24   C     C_3   0.231405 0.989071 0.556150 0.658228
H45   H     H_    0.776563 0.511990 0.169924 0.147487
H46   H     H_    0.776558 0.488026 0.669938 0.147481
H47   H     H_    0.276619 0.012000 0.169940 0.147530
H48   H     H_    0.276606 0.988006 0.669945 0.147537
C25   C     C_3   0.656601 0.475042 0.077381 -1.014943
C26   C     C_3   0.656602 0.524984 0.577374 -1.014992
C27   C     C_3   0.156644 0.975072 0.077588 -1.014228
C28   C     C_3   0.156630 0.024925 0.577554 -1.014363
H49   H     H_    0.614013 0.473795 0.957639 0.255743
H50   H     H_    0.614009 0.526207 0.457644 0.255758
H51   H     H_    0.170218 0.919430 0.119106 0.243487
H52   H     H_    0.170203 0.080557 0.619099 0.243505
H53   H     H_    0.630981 0.504734 0.167867 0.273756
H54   H     H_    0.630988 0.495326 0.667913 0.273766
H55   H     H_    0.113883 0.974098 0.957992 0.255607
H56   H     H_    0.113893 0.025915 0.457946 0.255638
H57   H     H_    0.670220 0.419504 0.119491 0.243577
H58   H     H_    0.670228 0.580530 0.619401 0.243557
H59   H     H_    0.131250 0.004640 0.168645 0.273739
H60   H     H_    0.131207 0.995352 0.668546 0.273763
O45   O     O_3   0.092100 0.536880 0.086720 -0.404312
O46   O     O_3   0.092100 0.463120 0.586720 -0.404213
O47   O     O_3   0.592100 0.036880 0.086720 -0.404655
O48   O     O_3   0.592100 0.963120 0.586720 -0.404149
P13   P     P_3+3 0.897147 0.734187 0.083389 0.491798
P14   P     P_3+3 0.897128 0.265827 0.583387 0.491770
P15   P     P_3+3 0.397127 0.234173 0.083381 0.491792
P16   P     P_3+3 0.397126 0.765826 0.583382 0.491810
C29   C     C_3   0.967391 0.147943 0.545107 0.524991
C30   C     C_3   0.967416 0.852119 0.045498 0.525021
C31   C     C_3   0.467407 0.647941 0.545210 0.525182
C32   C     C_3   0.467421 0.352064 0.045295 0.525173
H61   H     H_    0.928029 0.150699 0.421948 0.039332
H62   H     H_    0.928008 0.849480 0.922365 0.039265
H63   H     H_    0.428062 0.650678 0.422027 0.039257
H64   H     H_    0.428071 0.349351 0.922111 0.039255
H65   H     H_    0.492657 0.538406 0.492861 0.233579
H66   H     H_    0.492675 0.461606 0.993008 0.233605
H67   H     H_    0.992561 0.038415 0.492654 0.233385
H68   H     H_    0.992628 0.961696 0.993497 0.233560
H69   H     H_    0.488967 0.582341 0.217349 0.261062
H70   H     H_    0.489000 0.417654 0.717444 0.261035
H71   H     H_    0.988791 0.082377 0.217280 0.261067
H72   H     H_    0.989173 0.917637 0.717898 0.260991
C33   C     C_R   0.138489 0.676454 0.920181 -0.499393
C34   C     C_R   0.138495 0.323549 0.420161 -0.499437
C35   C     C_R   0.638496 0.176451 0.920161 -0.499364
C36   C     C_R   0.638517 0.823564 0.420129 -0.499718
C37   C     C_R   0.856942 0.325475 0.270305 -0.406356
C38   C     C_R   0.856985 0.674562 0.770269 -0.406202
C39   C     C_R   0.356963 0.825461 0.270288 -0.406311
C40   C     C_R   0.356967 0.174546 0.770278 -0.406328
C41   C     C_R   0.788719 0.215006 0.302994 -0.214081
C42   C     C_R   0.788750 0.785022 0.802967 -0.214190
C43   C     C_R   0.288733 0.714995 0.302986 -0.214094
C44   C     C_R   0.288737 0.285010 0.802977 -0.214108
C45   C     C_R   0.844084 0.267823 0.366842 0.193973
C46   C     C_R   0.844138 0.732222 0.866804 0.193740
C47   C     C_R   0.344102 0.767810 0.366826 0.193933
C48   C     C_R   0.344109 0.232197 0.866817 0.193904
C49   C     C_R   0.812779 0.334468 0.110924 0.209009
C50   C     C_R   0.812796 0.665547 0.610912 0.209035
C51   C     C_R   0.312792 0.834460 0.110916 0.209110
C52   C     C_R   0.312794 0.165544 0.610908 0.209116
C53   C     C_R   0.754027 0.281327 0.045846 -0.063623
C54   C     C_R   0.754037 0.718681 0.545838 -0.063587
C55   C     C_R   0.254034 0.781323 0.045848 -0.063735
C56   C     C_R   0.254037 0.218681 0.545836 -0.063709
C57   C     C_R   0.242294 0.720217 0.143272 -0.029954
C58   C     C_R   0.242298 0.279786 0.643261 -0.029897
C59   C     C_R   0.742288 0.220223 0.143271 -0.029996
C60   C     C_R   0.742303 0.779791 0.643254 -0.029787
C61   C     C_R   0.183323 0.667185 0.078577 0.270823
C62   C     C_R   0.183325 0.332817 0.578564 0.270892
C63   C     C_R   0.683326 0.167184 0.078566 0.270769
C64   C     C_R   0.683332 0.832822 0.578551 0.271268
C65   C     C_R   0.152631 0.733214 0.822589 0.217437
C66   C     C_R   0.152632 0.266785 0.322569 0.217472
C67   C     C_R   0.652632 0.233215 0.822569 0.217428
C68   C     C_R   0.652634 0.766785 0.322561 0.217131
C69   C     C_R   0.207542 0.786492 0.886393 -0.210060
C70   C     C_R   0.207546 0.213510 0.386378 -0.210112
C71   C     C_R   0.707543 0.286493 0.886382 -0.210055
C72   C     C_R   0.707539 0.713504 0.386385 -0.210187
H73   H     H_    0.282393 0.670460 0.380504 0.169557
H74   H     H_    0.282394 0.329543 0.880498 0.169526
H75   H     H_    0.782381 0.170469 0.380507 0.169584
H76   H     H_    0.782393 0.829549 0.880489 0.169468
H77   H     H_    0.713386 0.331635 0.810287 0.203800
H78   H     H_    0.713375 0.668357 0.310298 0.203825
H79   H     H_    0.213386 0.831631 0.810290 0.203829
H80   H     H_    0.213387 0.168368 0.310281 0.203834
H81   H     H_    0.094430 0.636892 0.868874 0.162986
H82   H     H_    0.094441 0.363113 0.368849 0.163000
H83   H     H_    0.594441 0.136886 0.868852 0.163000
H84   H     H_    0.594494 0.863150 0.368782 0.163010
H85   H     H_    0.900100 0.365588 0.322907 0.169795
H86   H     H_    0.900147 0.634454 0.822867 0.169758
H87   H     H_    0.400122 0.865573 0.322889 0.169791
H88   H     H_    0.400124 0.134435 0.822880 0.169779
N1    N     N_3   0.044357 0.178480 0.540104 -0.204788
H89   H     H_    0.082365 0.172988 0.654842 0.183464
H90   H     H_    0.067983 0.150432 0.454394 0.070999
N2    N     N_3   0.044337 0.821545 0.040255 -0.204801
H91   H     H_    0.082394 0.826950 0.154960 0.183482
H92   H     H_    0.067951 0.849633 0.954598 0.070915
N3    N     N_3   0.544367 0.678511 0.540275 -0.204683
H93   H     H_    0.582382 0.672987 0.654996 0.183501
H94   H     H_    0.567999 0.650519 0.454494 0.070911
N4    N     N_3   0.544372 0.321481 0.040332 -0.204686
H95   H     H_    0.582391 0.326983 0.155053 0.183512
H96   H     H_    0.568013 0.349479 0.954574 0.070880
I1    I     I_    0.704286 0.615090 0.971897 -0.335554
I2    I     I_    0.704272 0.384918 0.471959 -0.335622
I3    I     I_    0.204285 0.115086 0.971887 -0.335601
I4    I     I_    0.204296 0.884908 0.471897 -0.335696

loop_
_geom_bond_atom_site_label_1
_geom_bond_atom_site_label_2
_geom_bond_distance
_ccdc_geom_bond_type
C43   H73   1.076360 S    
P10   C65   1.836677 S    
C67   C71   1.400097 A    
P1    O17   1.732121 S    
P9    C66   1.836741 S    
O10   Ba2   2.818484 S    
O16   P15   1.538892 D    
C13   H25   1.104151 S    
C6    H14   1.112939 S    
O27   Ba3   2.900021 S    
C20   H44   1.107974 S    
P3    O19   1.732141 S    
O7    Ba4   2.834910 S    
C34   H82   1.082118 S    
P5    O37   1.749741 S    
C25   H49   1.108403 S    
C8    H12   1.111817 S    
O6    Ba1   2.834939 S    
C33   H81   1.082118 S    
C7    H15   1.112926 S    
P7    O39   1.749718 S    
Ba3   Ba4   4.632451 S    
P8    O40   1.749719 S    
C27   H51   1.104864 S    
C26   H54   1.109294 S    
P9    O33   1.543473 D    
C43   C57   1.406462 A    
P1    C49   1.897980 S    
O11   Ba3   2.818475 S    
P11   C68   1.836761 S    
C18   H38   1.107183 S    
P1    O1    1.537017 D    
Ba2   O46   2.834900 S    
C17   H37   1.107198 S    
C12   H18   1.110694 S    
C55   C69   1.404932 A    
P3    O3    1.537017 D    
P15   C48   1.847041 S    
C24   C28   1.506152 S    
P4    O20   1.732141 S    
C54   C72   1.404966 A    
O41   C5    1.405921 S    
O18   C22   1.379341 S    
C39   C47   1.394656 A    
P13   C46   1.847150 S    
C14   H26   1.104128 S    
C15   H27   1.104368 S    
O23   C31   1.399417 S    
O1    Ba1   2.896527 S    
O24   C32   1.399428 S    
C37   C45   1.394646 A    
Ba1   O46   2.976574 S    
P4    Ba4   3.469911 S    
C33   C61   1.394704 A    
C42   C46   1.398818 A    
C29   H61   1.107064 S    
P5    O25   1.536334 D    
P6    O45   1.595978 S    
P4    C52   1.898031 S    
C40   C48   1.394659 A    
C13   C17   1.517245 S    
Ba3   O48   2.976574 S    
C5    H13   1.112933 S    
C28   H52   1.104741 S    
C54   C60   1.444183 A    
C36   C68   1.394022 A    
C3    H65   1.103641 S    
C15   H31   1.110506 S    
O26   Ba2   2.899988 S    
C6    H10   1.111838 S    
P8    C63   1.894860 S    
N3    H93   1.045078 S    
C3    H1    1.110653 S    
C5    H9    1.111884 S    
C35   C67   1.394027 A    
P4    O8    1.590868 S    
P6    O38   1.749736 S    
O32   Ba4   2.817853 S    
C49   C53   1.441415 A    
P4    O4    1.537016 D    
C56   C70   1.404950 A    
P8    O28   1.536337 D    
C27   H55   1.108789 S    
C2    C30   1.520983 S    
O30   Ba2   2.817853 S    
P9    O29   1.727413 S    
C9    H21   1.104787 S    
C7    H11   1.111812 S    
P10   O34   1.543457 D    
C42   H76   1.076336 S    
O15   P16   1.538904 D    
N3    H94   1.043947 S    
C17   H41   1.107951 S    
P2    O2    1.537016 D    
C19   H35   1.102628 S    
C59   C63   1.441692 A    
C71   H77   1.075781 S    
O13   P14   1.538910 D    
C24   H48   1.094055 S    
C19   H43   1.108263 S    
C68   C72   1.400115 A    
P3    Ba3   3.469896 S    
P12   O36   1.543460 D    
C50   C54   1.441429 A    
C7    C11   1.513103 S    
P2    Ba2   3.469911 S    
C26   H58   1.104454 S    
P14   C45   1.847033 S    
N4    H96   1.043934 S    
C8    C12   1.513098 S    
P8    O47   1.595978 S    
C37   C49   1.396967 A    
C4    H66   1.103666 S    
C34   C66   1.394023 A    
C29   N1    1.461804 S    
C69   H79   1.075787 S    
Ba2   O45   2.976581 S    
C36   C64   1.394745 A    
C5    C9    1.513152 S    
C56   C58   1.444187 A    
C40   C52   1.396965 A    
C70   H80   1.075787 S    
C30   N2    1.461845 S    
O20   C24   1.379389 S    
C22   H46   1.094039 S    
C41   C45   1.398804 A    
O37   C14   1.401443 S    
O4    Ba4   2.896558 S    
C1    C29   1.520865 S    
P5    O46   1.596000 S    
C51   C55   1.441422 A    
C53   C59   1.444172 A    
P11   O35   1.543467 D    
O39   C16   1.401463 S    
C40   H88   1.082333 S    
C20   H36   1.102445 S    
C44   C48   1.398809 A    
C4    H2    1.110667 S    
C11   H69   1.108711 S    
C23   I3    2.087897 S    
C22   I2    2.087850 S    
N1    H89   1.045080 S    
C43   C47   1.398797 A    
C60   C64   1.441718 A    
O24   P15   1.743683 S    
O9    Ba1   2.818475 S    
C66   C70   1.400100 A    
C44   H74   1.076357 S    
C14   H30   1.110308 S    
C52   C56   1.441434 A    
C34   C62   1.394732 A    
C65   C69   1.400086 A    
O44   C8    1.405838 S    
O25   Ba1   2.900021 S    
P10   O30   1.727383 S    
O12   P15   1.751976 S    
N2    H92   1.043867 S    
O5    Ba2   2.834910 S    
Ba1   Ba2   4.632451 S    
P1    O5    1.590846 S    
P11   O43   1.743730 S    
C9    H19   1.110888 S    
P12   O44   1.743714 S    
C44   C58   1.406486 A    
C21   I1    2.087891 S    
C19   H39   1.107308 S    
O11   P16   1.751965 S    
C28   H60   1.109624 S    
O14   P13   1.538894 D    
C15   C19   1.517186 S    
P6    O26   1.536337 D    
C10   H72   1.108706 S    
C58   C62   1.441714 A    
C11   H17   1.110712 S    
Ba4   O47   2.976581 S    
C27   H59   1.109731 S    
C16   H32   1.110372 S    
O10   P13   1.751911 S    
P9    O41   1.743727 S    
C24   I4    2.087912 S    
C28   H56   1.108665 S    
C31   H63   1.107085 S    
C25   H57   1.104488 S    
O2    Ba2   2.896558 S    
P7    Ba3   3.472194 S    
C13   H29   1.110324 S    
P2    O6    1.590868 S    
O31   Ba3   2.817862 S    
C32   H64   1.107112 S    
C4    H8    1.108604 S    
P6    Ba2   3.472179 S    
P11   O31   1.727423 S    
P5    Ba1   3.472194 S    
C18   H34   1.102406 S    
P16   C47   1.847009 S    
C21   C25   1.506151 S    
O23   P16   1.743685 S    
P12   O32   1.727381 S    
C17   H33   1.102415 S    
N4    H95   1.045062 S    
C14   C18   1.517275 S    
C36   H84   1.082130 S    
O21   P14   1.743665 S    
C31   N3    1.461836 S    
C38   C50   1.397006 A    
Ba1   O45   2.834870 S    
Ba3   O47   2.834870 S    
C3    C31   1.520956 S    
P2    C50   1.898080 S    
O40   C15   1.401576 S    
C23   C27   1.506127 S    
O22   P13   1.743685 S    
C26   H50   1.108356 S    
C41   H75   1.076346 S    
P10   O42   1.743635 S    
C11   H23   1.104746 S    
C1    H3    1.110645 S    
O19   C23   1.379356 S    
C12   H70   1.108695 S    
C10   H22   1.104685 S    
C57   C61   1.441699 A    
C2    H4    1.110651 S    
Ba4   O48   2.834900 S    
C1    H67   1.103643 S    
C23   H47   1.094059 S    
O12   Ba4   2.818484 S    
C35   C63   1.394742 A    
N1    H90   1.043956 S    
O29   Ba1   2.817862 S    
P2    O18   1.732111 S    
O21   C29   1.399388 S    
O28   Ba4   2.899988 S    
C20   H40   1.107191 S    
O42   C6    1.405861 S    
O8    Ba3   2.834939 S    
C72   H78   1.075793 S    
P7    O27   1.536334 D    
C10   H20   1.110722 S    
C42   C60   1.406513 A    
C16   H28   1.104221 S    
P12   C67   1.836759 S    
N2    H91   1.045072 S    
P8    Ba4   3.472179 S    
O22   C30   1.399333 S    
O43   C7    1.405842 S    
C9    H71   1.108860 S    
C39   H87   1.082336 S    
P3    C51   1.898009 S    
C6    C10   1.513049 S    
P1    Ba1   3.469896 S    
O9    P14   1.751934 S    
C38   H86   1.082333 S    
C53   C71   1.404943 A    
P3    O7    1.590846 S    
C30   H62   1.107121 S    
C37   H85   1.082337 S    
C38   C46   1.394697 A    
C21   H45   1.094039 S    
C39   C51   1.396961 A    
C22   C26   1.506155 S    
C8    H16   1.112926 S    
O38   C13   1.401471 S    
C1    H5    1.108581 S    
P7    C64   1.894864 S    
C3    H7    1.108576 S    
C35   H83   1.082117 S    
C16   C20   1.517306 S    
P6    C61   1.894814 S    
C33   C65   1.393997 A    
C25   H53   1.109338 S    
C12   H24   1.104735 S    
C2    H6    1.108551 S    
C4    C32   1.520966 S    
P5    C62   1.894863 S    
C32   N4    1.461851 S    
O17   C21   1.379334 S    
C18   H42   1.107915 S    
P7    O48   1.596000 S    
C2    H68   1.103622 S    
O3    Ba3   2.896527 S    
C55   C57   1.444179 A    
C41   C59   1.406467 A    
