data_mof_unit_26431.cif
_audit_creation_date              2012-12-11T15:37:26-0500
_audit_creation_method            fapswitch 2.2
_symmetry_space_group_name_H-M    P1
_symmetry_Int_Tables_number       1
_space_group_crystal_system       triclinic
_cell_length_a                    17.273399
_cell_length_b                    24.495116
_cell_length_c                    14.85083
_cell_angle_alpha                 90.637479
_cell_angle_beta                  125.553916
_cell_angle_gamma                 89.262266
_cell_volume                      5111.65956305

loop_
_atom_site_label
_atom_site_type_symbol
_atom_type_description
_atom_site_fract_x
_atom_site_fract_y
_atom_site_fract_z
_atom_type_partial_charge
C1    C     C_R   0.808798 0.626796 0.909196 0.164396
C2    C     C_3   0.608847 0.501643 0.531611 0.188857
C3    C     C_3   0.064232 0.026209 0.418676 -0.155007
C4    C     C_3   0.784636 0.685473 0.763503 -0.924501
C5    C     C_3   0.310260 0.324388 0.235126 -0.971479
C6    C     C_3   0.154988 0.680868 0.225949 -0.899143
C7    C     C_3   0.690012 0.336959 0.746682 -0.961596
C8    C     C_3   0.283942 0.184626 0.762150 -0.919150
C9    C     C_3   0.810808 0.824386 0.234039 -0.964297
C10   C     C_3   0.653879 0.181258 0.225136 -0.898184
C11   C     C_3   0.190301 0.836078 0.746656 -0.963298
C12   C     C_3   0.950823 0.336440 0.256484 -0.956047
C13   C     C_3   0.927846 0.001687 0.377851 0.183821
C14   C     C_3   0.007327 0.727898 0.844286 -0.910080
C15   C     C_3   0.068528 0.323359 0.760433 -0.968499
C16   C     C_3   0.965773 0.696602 0.235138 -0.956610
C17   C     C_3   0.451961 0.836311 0.257261 -0.956363
C18   C     C_3   0.506441 0.227992 0.844058 -0.910354
C19   C     C_3   0.568750 0.823324 0.760671 -0.968748
C20   C     C_3   0.465308 0.196644 0.234993 -0.955801
C21   C     C_3   0.108262 0.999492 0.531160 0.185902
C22   C     C_R   0.795852 0.228883 0.899712 -0.170086
C23   C     C_R   0.336342 0.691228 0.097549 -0.177775
C24   C     C_R   0.184520 0.221606 0.097402 -0.187298
C25   C     C_R   0.641931 0.678309 0.901832 -0.165501
C26   C     C_R   0.296732 0.728584 0.900313 -0.170183
C27   C     C_R   0.835749 0.191391 0.097044 -0.174483
C28   C     C_R   0.684538 0.721637 0.097579 -0.187688
C29   C     C_R   0.146959 0.345880 0.089647 0.144342
C30   C     C_R   0.141840 0.178329 0.901593 -0.165997
C31   C     C_R   0.235329 0.692387 0.899341 -0.181359
C32   C     C_R   0.895720 0.228414 0.097226 -0.173519
C33   C     C_R   0.738739 0.678563 0.098943 -0.169190
C34   C     C_R   0.087304 0.220923 0.901340 -0.186210
C35   C     C_R   0.734395 0.192777 0.898803 -0.181307
C36   C     C_R   0.396207 0.728365 0.097785 -0.173425
C37   C     C_R   0.238574 0.178476 0.098688 -0.168885
C38   C     C_R   0.587367 0.720904 0.901524 -0.186873
C39   C     C_R   0.246982 0.680961 0.998655 0.157982
C40   C     C_R   0.177944 0.639038 0.092799 0.141388
C41   C     C_R   0.864183 0.255674 0.998975 0.156653
C42   C     C_R   0.729340 0.664106 0.001254 0.178077
C43   C     C_R   0.123746 0.250879 0.998949 0.163828
C44   C     C_R   0.746274 0.181272 0.998215 0.157319
C45   C     C_R   0.364726 0.755565 0.999498 0.157248
C46   C     C_R   0.229205 0.164063 0.001017 0.178130
C47   C     C_R   0.623795 0.750884 0.999105 0.163879
C48   C     C_R   0.101230 0.451954 0.618916 -0.175430
C49   C     C_R   0.115746 0.550841 0.538883 -0.174081
C50   C     C_R   0.120195 0.452031 0.540544 -0.166456
C51   C     C_R   0.849707 0.347740 0.908756 0.155966
C52   C     C_R   0.097691 0.550772 0.618133 -0.167255
C53   C     C_R   0.601402 0.951948 0.619072 -0.174822
C54   C     C_R   0.615808 0.050838 0.538947 -0.172993
C55   C     C_R   0.620221 0.952027 0.540570 -0.167514
C56   C     C_R   0.597889 0.050766 0.618316 -0.167638
C57   C     C_R   0.115208 0.501330 0.490381 0.136986
C58   C     C_R   0.079647 0.501184 0.648871 0.146675
C59   C     C_R   0.615210 0.001330 0.490397 0.136829
C60   C     C_R   0.579897 0.001178 0.649115 0.146575
C61   C     C_R   0.942907 0.348557 0.091110 0.157152
C62   C     C_R   0.308771 0.126734 0.909119 0.164006
C63   C     C_R   0.082068 0.638623 0.906626 0.129725
C64   C     C_R   0.054578 0.346677 0.908704 0.141365
C65   C     C_R   0.902153 0.624867 0.093209 0.169290
C66   C     C_R   0.443075 0.848577 0.091308 0.157749
C67   C     C_R   0.581631 0.138807 0.906459 0.129526
C68   C     C_R   0.554584 0.846657 0.908776 0.140942
C69   C     C_R   0.402089 0.124879 0.093133 0.169142
C70   C     C_R   0.061465 0.545584 0.309785 -0.147015
C71   C     C_R   0.004682 0.455142 0.732917 -0.154955
C72   C     C_R   0.006780 0.546124 0.737053 -0.127693
C73   C     C_R   0.647097 0.845922 0.089753 0.141739
C74   C     C_R   0.059642 0.455437 0.309381 -0.132941
C75   C     C_R   0.561425 0.045592 0.309772 -0.146794
C76   C     C_R   0.504842 0.955139 0.733076 -0.155134
C77   C     C_R   0.507005 0.046119 0.737280 -0.127679
C78   C     C_R   0.559713 0.955446 0.309409 -0.133521
C79   C     C_R   0.747549 0.455824 0.691899 -0.152214
C80   C     C_R   0.270567 0.545285 0.266792 -0.150872
C81   C     C_R   0.270842 0.455036 0.272672 -0.146102
C82   C     C_R   0.749127 0.545038 0.692431 -0.147250
C83   C     C_R   0.247252 0.955131 0.693133 -0.134013
C84   C     C_R   0.677515 0.139358 0.092580 0.140779
C85   C     C_R   0.769822 0.045943 0.265629 -0.136932
C86   C     C_R   0.771677 0.955658 0.270138 -0.159888
C87   C     C_R   0.248498 0.044358 0.691739 -0.162885
C88   C     C_R   0.808889 0.638046 0.001976 -0.113454
C89   C     C_R   0.110185 0.311747 0.998681 -0.040023
C90   C     C_R   0.170639 0.655787 0.999254 -0.056570
C91   C     C_R   0.883956 0.314604 0.999889 -0.067793
C92   C     C_R   0.308801 0.138020 0.001830 -0.113905
C93   C     C_R   0.610260 0.811751 0.998809 -0.038929
C94   C     C_R   0.669999 0.156171 0.998968 -0.055113
C95   C     C_R   0.349827 0.847648 0.908976 0.156716
C96   C     C_R   0.384214 0.814559 0.000228 -0.068100
C97   C     C_R   0.081763 0.500835 0.374902 0.038065
C98   C     C_R   0.032997 0.500774 0.705009 0.040138
C99   C     C_R   0.581758 0.000845 0.374908 0.037815
C100  C     C_R   0.533255 0.000767 0.705272 0.040232
C101  C     C_R   0.704408 0.500771 0.628841 0.023453
C102  C     C_R   0.326785 0.499847 0.303981 0.033487
C103  C     C_R   0.203428 0.999517 0.629415 0.024670
C104  C     C_R   0.826734 0.001087 0.300903 0.033060
C105  C     C_3   0.535223 0.480242 0.548721 -0.129896
C106  C     C_3   0.427984 0.499753 0.380695 0.187576
C107  C     C_3   0.500293 0.521256 0.361884 -0.143485
C108  C     C_3   0.488399 0.448772 0.439132 -0.171469
C109  C     C_3   0.548447 0.552658 0.472909 -0.174863
C110  C     C_3   0.047253 0.948345 0.478497 -0.163888
C111  C     C_3   0.988515 0.052908 0.429832 -0.169723
C112  C     C_3   0.000753 0.974945 0.363859 -0.144669
C113  C     C_3   0.034096 0.026241 0.543433 -0.132345
C114  C     C_3   0.474199 0.531100 0.489475 -0.159302
C115  C     C_3   0.563284 0.470169 0.422965 -0.150752
C116  C     C_3   0.972710 0.975185 0.490513 -0.148306
H1    H     H_    0.087831 0.586169 0.340357 0.112053
H2    H     H_    0.293886 0.586607 0.289140 0.106550
H3    H     H_    0.042383 0.700586 0.303246 0.258299
H4    H     H_    0.568189 0.844955 0.247873 0.143562
H5    H     H_    0.500870 0.822581 0.344413 0.242841
H6    H     H_    0.387303 0.810620 0.215033 0.268095
H7    H     H_    0.429600 0.879130 0.255955 0.262838
H8    H     H_    0.528517 0.174000 0.753229 0.146266
H9    H     H_    0.571519 0.252464 0.876813 0.254433
H10   H     H_    0.491555 0.226251 0.907399 0.261562
H11   H     H_    0.445645 0.248548 0.769268 0.248064
H12   H     H_    0.443808 0.850659 0.742502 0.146529
H13   H     H_    0.294693 0.415658 0.308219 0.123110
H14   H     H_    0.525288 0.819601 0.669078 0.243239
H15   H     H_    0.614389 0.786632 0.795931 0.274801
H16   H     H_    0.618475 0.858104 0.788487 0.250924
H17   H     H_    0.421626 0.117993 0.245041 0.157263
H18   H     H_    0.424597 0.212650 0.266146 0.248623
H19   H     H_    0.448302 0.221969 0.163824 0.263645
H20   H     H_    0.541882 0.200752 0.303135 0.258314
H21   H     H_    0.741730 0.585599 0.661069 0.116218
H22   H     H_    0.236311 0.914394 0.661280 0.110810
H23   H     H_    0.791729 0.087412 0.288175 0.101070
H24   H     H_    0.797585 0.916369 0.305429 0.130328
H25   H     H_    0.239511 0.084791 0.659095 0.123357
H26   H     H_    0.435406 0.555646 0.514961 0.113674
H27   H     H_    0.602952 0.445682 0.398657 0.114764
H28   H     H_    0.933105 0.954633 0.518300 0.114700
H29   H     H_    0.998713 0.415578 0.700729 0.130539
H30   H     H_    0.104945 0.046687 0.392367 0.114628
H31   H     H_    0.551104 0.463436 0.627045 0.116892
H32   H     H_    0.481909 0.537973 0.282434 0.115010
H33   H     H_    0.463223 0.406025 0.425362 0.116836
H34   H     H_    0.575234 0.595109 0.487980 0.109606
H35   H     H_    0.072599 0.905383 0.498909 0.114441
H36   H     H_    0.962963 0.095817 0.408869 0.103368
H37   H     H_    0.983085 0.954062 0.287399 0.117338
H38   H     H_    0.049405 0.047289 0.618782 0.107938
H39   H     H_    0.783893 0.237982 0.821870 0.153614
H40   H     H_    0.009448 0.587564 0.718028 0.083563
H41   H     H_    0.359479 0.672537 0.174659 0.101058
H42   H     H_    0.196794 0.233724 0.174639 0.153015
H43   H     H_    0.616642 0.659069 0.823977 0.117752
H44   H     H_    0.285029 0.737559 0.822560 0.153578
H45   H     H_    0.858849 0.172699 0.174159 0.100415
H46   H     H_    0.696870 0.733864 0.174807 0.152801
H47   H     H_    0.116527 0.159131 0.823701 0.116768
H48   H     H_    0.178365 0.675367 0.821301 0.107879
H49   H     H_    0.961903 0.237617 0.175004 0.152133
H50   H     H_    0.789125 0.659264 0.176732 0.124748
H51   H     H_    0.084975 0.415233 0.341155 0.105351
H52   H     H_    0.022578 0.232609 0.823674 0.152888
H53   H     H_    0.677164 0.175936 0.820726 0.108005
H54   H     H_    0.462299 0.737646 0.175598 0.152373
H55   H     H_    0.288824 0.159075 0.176409 0.124430
H56   H     H_    0.522648 0.732578 0.823839 0.152752
H57   H     H_    0.095624 0.413039 0.647754 0.116780
H58   H     H_    0.118096 0.589809 0.507137 0.110571
H59   H     H_    0.126748 0.413018 0.510791 0.110252
H60   H     H_    0.089765 0.589752 0.646777 0.100398
H61   H     H_    0.595826 0.913032 0.647934 0.116697
H62   H     H_    0.587738 0.086188 0.340323 0.112264
H63   H     H_    0.618121 0.089807 0.507177 0.110731
H64   H     H_    0.626699 0.913014 0.510755 0.110113
H65   H     H_    0.590007 0.089746 0.646997 0.100541
H66   H     H_    0.687338 0.627061 0.746398 0.149849
H67   H     H_    0.726859 0.702603 0.682020 0.240072
H68   H     H_    0.834719 0.662024 0.753724 0.265006
H69   H     H_    0.822428 0.719911 0.822105 0.264211
H70   H     H_    0.203848 0.348215 0.256833 0.143148
H71   H     H_    0.357537 0.312699 0.323709 0.243926
H72   H     H_    0.335448 0.363029 0.222378 0.255990
H73   H     H_    0.498952 0.915568 0.700950 0.130769
H74   H     H_    0.316721 0.292982 0.185694 0.274038
H75   H     H_    0.285160 0.672059 0.248088 0.144997
H76   H     H_    0.185928 0.712823 0.291387 0.238735
H77   H     H_    0.151541 0.642068 0.261250 0.247145
H78   H     H_    0.082419 0.694221 0.156898 0.270114
H79   H     H_    0.812712 0.344584 0.749660 0.145525
H80   H     H_    0.648732 0.323683 0.658764 0.245797
H81   H     H_    0.671372 0.379993 0.750869 0.256598
H82   H     H_    0.668954 0.311414 0.790284 0.266925
H83   H     H_    0.187154 0.126350 0.746594 0.146478
H84   H     H_    0.509877 0.087562 0.718445 0.083168
H85   H     H_    0.225964 0.201434 0.680429 0.240346
H86   H     H_    0.333948 0.160959 0.752547 0.264220
H87   H     H_    0.321712 0.219305 0.820042 0.263382
H88   H     H_    0.705768 0.849138 0.257320 0.143611
H89   H     H_    0.858889 0.813439 0.322977 0.246117
H90   H     H_    0.835542 0.862649 0.219351 0.254236
H91   H     H_    0.816746 0.792393 0.185196 0.272160
H92   H     H_    0.784283 0.172916 0.247539 0.142921
H93   H     H_    0.684482 0.213326 0.290338 0.238710
H94   H     H_    0.650651 0.142475 0.260651 0.247208
H95   H     H_    0.585226 0.915266 0.341231 0.105414
H96   H     H_    0.581254 0.194412 0.155880 0.269931
H97   H     H_    0.313372 0.843725 0.750001 0.144520
H98   H     H_    0.149444 0.822336 0.659051 0.242796
H99   H     H_    0.170826 0.879051 0.749846 0.260974
H100  H     H_    0.169493 0.810636 0.790629 0.267707
H101  H     H_    0.067556 0.344848 0.248060 0.143265
H102  H     H_    0.999324 0.322626 0.343627 0.242925
H103  H     H_    0.885989 0.310882 0.213821 0.267968
H104  H     H_    0.928725 0.379323 0.255188 0.262674
H105  H     H_    0.029744 0.673932 0.753726 0.146395
H106  H     H_    0.734776 0.415131 0.659181 0.119703
H107  H     H_    0.072545 0.752293 0.877398 0.254627
H108  H     H_    0.992142 0.726151 0.907370 0.261598
H109  H     H_    0.946739 0.748540 0.769448 0.248116
H110  H     H_    0.943658 0.350680 0.742484 0.146556
H111  H     H_    0.024985 0.319664 0.668833 0.243091
H112  H     H_    0.114146 0.286656 0.795598 0.274729
H113  H     H_    0.118275 0.358127 0.788237 0.251063
H114  H     H_    0.921740 0.618048 0.245169 0.157377
H115  H     H_    0.925170 0.712726 0.266344 0.248584
H116  H     H_    0.948879 0.721899 0.163984 0.263529
N1    N     N_R   0.892620 0.603790 0.941800 -0.068109
N2    N     N_R   0.047790 0.602400 0.942090 -0.065579
N3    N     N_R   0.047790 0.397600 0.942090 -0.082629
N4    N     N_R   0.952210 0.602400 0.057910 -0.072621
N5    N     N_R   0.452210 0.897600 0.057910 -0.084367
N6    N     N_R   0.547790 0.102400 0.942090 -0.065480
N7    N     N_R   0.547790 0.897600 0.942090 -0.082561
N8    N     N_R   0.452210 0.102400 0.057910 -0.072753
N9    N     N_R   0.026300 0.529110 0.206760 -0.040802
N10   N     N_R   0.973700 0.470890 0.793240 -0.038021
N11   N     N_R   0.973700 0.529110 0.793240 -0.035545
N12   N     N_R   0.107380 0.396210 0.058200 -0.082730
N13   N     N_R   0.026300 0.470890 0.206760 -0.038574
N14   N     N_R   0.526300 0.029110 0.206760 -0.040911
N15   N     N_R   0.473700 0.970890 0.793240 -0.038449
N16   N     N_R   0.473700 0.029110 0.793240 -0.035417
N17   N     N_R   0.526300 0.970890 0.206760 -0.038357
N18   N     N_R   0.818530 0.472270 0.792960 -0.036655
N19   N     N_R   0.181470 0.527730 0.207040 -0.033398
N20   N     N_R   0.181470 0.472270 0.207040 -0.036754
N21   N     N_R   0.818530 0.527730 0.792960 -0.038346
N22   N     N_R   0.318530 0.972270 0.792960 -0.037207
N23   N     N_R   0.107380 0.603790 0.058200 -0.060170
N24   N     N_R   0.681470 0.027730 0.207040 -0.034150
N25   N     N_R   0.681470 0.972270 0.207040 -0.036495
N26   N     N_R   0.318530 0.027730 0.792960 -0.037706
N27   N     N_2   0.744251 0.650698 0.803853 -0.115451
N28   N     N_2   0.212650 0.329636 0.200956 -0.120528
N29   N     N_2   0.213477 0.674008 0.186356 -0.110552
N30   N     N_2   0.790993 0.331112 0.796801 -0.120583
N31   N     N_2   0.243905 0.150241 0.803462 -0.115172
N32   N     N_2   0.713570 0.829938 0.201128 -0.121047
N33   N     N_2   0.712563 0.174502 0.185792 -0.110708
N34   N     N_R   0.892620 0.396210 0.941800 -0.085700
N35   N     N_2   0.291435 0.830722 0.797198 -0.120765
N36   N     N_2   0.998617 0.331458 0.202545 -0.121850
N37   N     N_2   0.019338 0.673394 0.815164 -0.116325
N38   N     N_2   0.006577 0.330221 0.796713 -0.119697
N39   N     N_2   0.944205 0.639495 0.205128 -0.112259
N40   N     N_2   0.499289 0.831477 0.202745 -0.121865
N41   N     N_2   0.518509 0.173488 0.814992 -0.116191
N42   N     N_2   0.506693 0.830190 0.796804 -0.119769
N43   N     N_2   0.444063 0.139506 0.205043 -0.112372
N44   N     N_R   0.392620 0.103790 0.941800 -0.067721
N45   N     N_R   0.607380 0.896210 0.058200 -0.082425
N46   N     N_R   0.607380 0.103790 0.058200 -0.060503
N47   N     N_R   0.392620 0.896210 0.941800 -0.085835
N48   N     N_R   0.952210 0.397600 0.057910 -0.084419
Ni1   Ni    Ni4+2 0.934150 0.565840 0.869060 0.209776
Ni2   Ni    Ni4+2 0.065850 0.434160 0.130940 0.184263
Ni3   Ni    Ni4+2 0.065850 0.565840 0.130940 0.203317
Ni4   Ni    Ni4+2 0.934150 0.434160 0.869060 0.184784
Ni5   Ni    Ni4+2 0.434150 0.065840 0.869060 0.209850
Ni6   Ni    Ni4+2 0.565850 0.934160 0.130940 0.183925
Ni7   Ni    Ni4+2 0.565850 0.065840 0.130940 0.203614
Ni8   Ni    Ni4+2 0.434150 0.934160 0.869060 0.185173

loop_
_geom_bond_atom_site_label_1
_geom_bond_atom_site_label_2
_ccdc_geom_bond_type
N1    Ni1   S    
N7    Ni8   S    
C9    N32   S    
C28   C47   A    
C7    H81   S    
C72   H40   S    
N8    Ni7   S    
C55   C59   A    
C78   H95   S    
C59   C99   S    
C55   H64   S    
C65   N4    A    
C33   H50   S    
C58   C98   S    
C73   C93   A    
C113  H38   S    
N2    Ni1   S    
C86   C104  A    
C111  H36   S    
C29   C89   A    
C21   C110  S    
H88   N32   S    
C14   N37   S    
C28   H46   S    
N19   N20   A    
C2    C109  S    
C72   C98   A    
H66   N27   S    
C43   C89   S    
C83   C103  A    
C106  C114  S    
N26   Ni5   S    
N9    N13   A    
C33   C42   A    
C114  H26   S    
C108  C115  S    
C14   H108  S    
C8    H85   S    
C10   N33   S    
N48   Ni2   S    
C5    H74   S    
C13   C112  S    
C9    H90   S    
C70   N9    A    
H83   N31   S    
N16   Ni5   S    
C18   H11   S    
C24   H42   S    
C19   N42   S    
C46   C92   S    
C56   H65   S    
N22   N26   A    
C70   H1    S    
H92   N33   S    
C105  H31   S    
C51   N34   A    
C23   H41   S    
C49   C57   A    
C54   H63   S    
C77   C100  A    
C40   N29   S    
C12   H102  S    
N13   Ni2   S    
C75   H62   S    
C74   H51   S    
C76   H73   S    
N21   Ni1   S    
C26   C45   A    
C51   C91   A    
C116  H28   S    
C40   N23   A    
C95   N35   S    
C27   C44   A    
C10   H94   S    
C95   C96   A    
C29   N12   A    
C3    C111  S    
C80   N19   A    
C84   N46   A    
C25   H43   S    
C67   C94   A    
C32   C41   A    
C41   C91   S    
C82   N21   A    
C26   H44   S    
C6    N29   S    
C69   C92   A    
C20   H20   S    
C85   H23   S    
C12   H103  S    
C70   C97   A    
C86   H24   S    
C11   H100  S    
N44   Ni5   S    
C113  C116  S    
H101  N36   S    
C19   H14   S    
C48   C50   A    
C11   H99   S    
C26   C31   A    
C4    H67   S    
C106  C107  S    
C32   H49   S    
C15   H113  S    
C107  C109  S    
C72   N11   A    
N14   Ni7   S    
C27   H45   S    
N4    Ni3   S    
C64   C89   A    
N9    Ni3   S    
C17   N40   S    
C34   H52   S    
N5    Ni6   S    
C44   C94   S    
C87   N26   A    
N10   Ni4   S    
C49   H58   S    
N1    N4    A    
C53   C60   A    
C17   H7    S    
N10   N11   A    
C74   C97   A    
C115  H27   S    
C54   C59   A    
C53   C55   A    
C19   H15   S    
C69   N43   S    
C71   C98   A    
C80   H2    S    
C29   N28   S    
C95   N47   A    
N46   Ni7   S    
C30   C34   A    
C83   N22   A    
C14   H107  S    
C17   H5    S    
H79   N30   S    
C76   C100  A    
C64   N3    A    
C21   C113  S    
C110  H35   S    
C9    H91   S    
C16   H3    S    
H70   N28   S    
C7    H80   S    
C74   N13   A    
C62   N44   A    
C2    C101  S    
N34   N48   A    
C16   H116  S    
C5    N28   S    
C4    H68   S    
C51   N30   S    
C56   C60   A    
N24   Ni7   S    
C15   H111  S    
C50   H59   S    
C13   C104  S    
C21   C103  S    
C4    H69   S    
C67   N41   S    
C30   H47   S    
C12   N36   S    
C61   N36   S    
C22   C35   A    
N20   Ni2   S    
C25   C38   A    
C22   H39   S    
N6    N46   A    
C6    H76   S    
C2    C115  S    
C105  C114  S    
C10   H93   S    
C81   H13   S    
C3    C112  S    
C49   C52   A    
C57   C97   S    
N24   N25   A    
C75   C99   A    
C24   C37   A    
C47   C93   S    
C68   N42   S    
C36   C45   A    
C111  C113  S    
C84   C94   A    
C105  C108  S    
C87   H25   S    
C8    N31   S    
C48   C58   A    
C35   C44   A    
C75   N14   A    
H12   N42   S    
C38   C47   A    
C85   C104  A    
C52   C58   A    
C109  C114  S    
C14   H109  S    
C87   C103  A    
C10   H96   S    
C71   H29   S    
H8    N41   S    
C28   C33   A    
C4    N27   S    
N17   Ni6   S    
C66   N5    A    
C35   H53   S    
C79   N18   A    
C3    C21   S    
C76   N15   A    
C42   C88   S    
C5    H71   S    
C81   N20   A    
N23   Ni3   S    
C15   N38   S    
C110  C116  S    
C6    H78   S    
C16   N39   S    
H105  N37   S    
H110  N38   S    
C79   H106  S    
C66   C96   A    
C48   H57   S    
N34   Ni4   S    
C19   H16   S    
C78   N17   A    
C20   H18   S    
C52   H60   S    
C31   H48   S    
C85   N24   A    
N18   N21   A    
H17   N43   S    
C39   C90   S    
C1    N1    A    
N5    N47   A    
C27   C32   A    
C50   C57   A    
N18   Ni4   S    
H75   N29   S    
C8    H87   S    
C34   C43   A    
N3    Ni4   S    
C71   N10   A    
C81   C102  A    
N15   Ni8   S    
C60   C100  S    
C68   N7    A    
C53   H61   S    
C62   N31   S    
C37   H55   S    
N15   N16   A    
C73   N32   S    
C54   C56   A    
C38   H56   S    
C64   N38   S    
N22   Ni8   S    
C82   H21   S    
N45   Ni6   S    
H97   N35   S    
C2    C105  S    
C36   H54   S    
C68   C93   A    
H4    N40   S    
N3    N12   A    
C30   C46   A    
C15   H112  S    
C112  H37   S    
C77   N16   A    
C73   N45   A    
N47   Ni8   S    
C18   N41   S    
C7    H82   S    
C8    H86   S    
C109  H34   S    
C63   N37   S    
C20   N43   S    
C18   H9    S    
C9    H89   S    
C18   H10   S    
C63   N2    A    
C107  H32   S    
C67   N6    A    
N19   Ni3   S    
C106  C108  S    
C65   C88   A    
C1    C88   A    
C23   C39   A    
N7    N45   A    
C63   C90   A    
N6    Ni5   S    
N12   Ni2   S    
C61   N48   A    
C82   C101  A    
C31   C39   A    
C25   C42   A    
C107  C115  S    
C86   N25   A    
C84   N33   S    
C6    H77   S    
C20   H19   S    
C65   N39   S    
C77   H84   S    
C110  C112  S    
C7    N30   S    
C13   C116  S    
C66   N40   S    
C11   H98   S    
C108  H33   S    
C22   C41   A    
N8    N44   A    
C17   H6    S    
N25   Ni6   S    
C3    H30   S    
C13   C111  S    
C23   C36   A    
H114  N39   S    
C102  C106  S    
C80   C102  A    
C78   C99   A    
C24   C43   A    
C11   N35   S    
C79   C101  A    
C5    H72   S    
C40   C90   A    
C37   C46   A    
C62   C92   A    
C45   C96   S    
C16   H115  S    
N2    N23   A    
C12   H104  S    
C83   H22   S    
N11   Ni1   S    
C61   C91   A    
C69   N8    A    
C1    N27   S    
N14   N17   A    
