data_mof_unit_56124.cif
_audit_creation_date              2012-10-26T18:43:59-0400
_audit_creation_method            fapswitch 2.2
_symmetry_space_group_name_H-M    P1
_symmetry_Int_Tables_number       1
_space_group_crystal_system       monoclinic
_cell_length_a                    15.107238
_cell_length_b                    9.077416
_cell_length_c                    7.796324
_cell_angle_alpha                 90.030799
_cell_angle_beta                  90.0
_cell_angle_gamma                 90.0
_cell_volume                      1069.14627314

loop_
_atom_site_label
_atom_site_type_symbol
_atom_type_description
_atom_site_fract_x
_atom_site_fract_y
_atom_site_fract_z
_atom_type_partial_charge
C1    C     C_R   0.500000 0.220084 0.499963 0.529124
C2    C     C_R   0.232798 0.500000 0.500000 0.040616
C3    C     C_R   0.906239 0.365932 0.521776 0.029965
C4    C     C_R   0.093761 0.634068 0.478224 0.029965
C5    C     C_R   0.906239 0.634068 0.478224 0.029965
C6    C     C_R   0.093761 0.365932 0.521776 0.029965
C7    C     C_R   0.952980 0.500000 0.500000 0.034045
C8    C     C_R   0.047020 0.500000 0.500000 0.034045
C9    C     C_R   0.954246 0.234787 0.544387 -0.130213
C10   C     C_R   0.045754 0.765213 0.455613 -0.130213
C11   C     C_R   0.954246 0.765213 0.455613 -0.130213
C12   C     C_R   0.500000 0.779916 0.500037 0.529124
C13   C     C_R   0.045754 0.234787 0.544387 -0.130213
C14   C     C_1   0.500000 0.065409 0.499955 -0.059496
C15   C     C_1   0.500000 0.934591 0.500045 -0.059496
C16   C     C_3   0.762748 0.779630 0.461244 -0.391807
C17   C     C_3   0.237252 0.220370 0.538756 -0.391807
C18   C     C_3   0.762748 0.220370 0.538756 -0.391807
C19   C     C_3   0.237252 0.779630 0.461244 -0.391807
C20   C     C_R   0.328877 0.500000 0.500000 0.537651
C21   C     C_R   0.671123 0.500000 0.500000 0.537651
C22   C     C_R   0.812822 0.634765 0.479694 -0.021717
C23   C     C_R   0.187178 0.365235 0.520306 -0.021717
C24   C     C_R   0.812822 0.365235 0.520306 -0.021717
C25   C     C_R   0.187178 0.634765 0.479694 -0.021717
C26   C     C_R   0.767201 0.500000 0.500000 0.040616
Cu1   Cu    Cu3+1 0.500000 0.500000 0.669080 1.016367
Cu2   Cu    Cu3+1 0.500000 0.500000 0.330920 1.016367
H1    H     H_    0.922075 0.129667 0.562953 0.106988
H2    H     H_    0.217731 0.144030 0.434017 0.118679
H3    H     H_    0.689956 0.230983 0.531763 0.146761
H4    H     H_    0.782268 0.144030 0.434018 0.118679
H5    H     H_    0.778221 0.169571 0.664766 0.129292
H6    H     H_    0.310044 0.769017 0.468237 0.146761
H7    H     H_    0.221779 0.830429 0.335234 0.129292
H8    H     H_    0.217731 0.855970 0.565982 0.118679
H9    H     H_    0.077925 0.870333 0.437047 0.106988
H10   H     H_    0.922075 0.870333 0.437047 0.106988
H11   H     H_    0.077925 0.129667 0.562953 0.106988
H12   H     H_    0.689956 0.769017 0.468237 0.146761
H13   H     H_    0.782268 0.855970 0.565983 0.118679
H14   H     H_    0.778221 0.830429 0.335234 0.129292
H15   H     H_    0.310044 0.230983 0.531763 0.146761
H16   H     H_    0.221779 0.169571 0.664766 0.129292
N1    N     N_1   0.500000 0.500000 0.076820 -0.075847
N2    N     N_1   0.500000 0.500000 0.923180 -0.075847
O1    O     O_R   0.500000 0.288390 0.642760 -0.500517
O2    O     O_R   0.500000 0.711610 0.357240 -0.500517
O3    O     O_R   0.500000 0.711610 0.642760 -0.496539
O4    O     O_R   0.500000 0.288390 0.357240 -0.496539
O5    O     O_R   0.370260 0.500000 0.642800 -0.500652
O6    O     O_R   0.629740 0.500000 0.357200 -0.500652
O7    O     O_R   0.629740 0.500000 0.642800 -0.500652
O8    O     O_R   0.370260 0.500000 0.357200 -0.500652

loop_
_geom_bond_atom_site_label_1
_geom_bond_atom_site_label_2
_ccdc_geom_bond_type
C11   H10   S    
C16   C22   S    
C21   C26   S    
Cu1   O7    S    
C5    C11   A    
C3    C9    A    
C2    C25   A    
C1    O4    A    
C12   O2    A    
C12   C15   S    
C9    H1    S    
C4    C8    A    
C17   H15   S    
C12   O3    A    
C17   H16   S    
C7    C8    A    
C19   H7    S    
N1    N2    T    
C6    C13   A    
C21   O7    A    
C17   H2    S    
Cu2   O6    S    
C3    C24   A    
C17   C23   S    
C16   H12   S    
C10   H9    S    
C18   C24   S    
C6    C23   A    
Cu1   N2    S    
Cu1   O5    S    
C4    C25   A    
C20   O5    A    
C3    C7    A    
C19   H8    S    
C19   C25   S    
C18   H5    S    
Cu2   N1    S    
C13   H11   S    
C18   H4    S    
C10   C11   A    
C2    C20   S    
C16   H14   S    
C1    C14   S    
Cu1   Cu2   S    
C9    C13   A    
C20   O8    A    
C22   C26   A    
Cu1   O1    S    
C2    C23   A    
C5    C7    A    
Cu2   O8    S    
C14   C15   T    
C1    O1    A    
C6    C8    A    
C18   H3    S    
Cu2   O4    S    
C16   H13   S    
C21   O6    A    
Cu2   O2    S    
C5    C22   A    
Cu1   O3    S    
C4    C10   A    
C24   C26   A    
C19   H6    S    
