data_mof_unit_47729.cif
_audit_creation_date              2012-12-10T19:03:02-0500
_audit_creation_method            fapswitch 2.2
_symmetry_space_group_name_H-M    P1
_symmetry_Int_Tables_number       1
_space_group_crystal_system       triclinic
_cell_length_a                    10.79836
_cell_length_b                    10.829363
_cell_length_c                    9.579098
_cell_angle_alpha                 89.497271
_cell_angle_beta                  89.583035
_cell_angle_gamma                 90.793405
_cell_volume                      1119.99241381

loop_
_atom_site_label
_atom_site_type_symbol
_atom_type_description
_atom_site_fract_x
_atom_site_fract_y
_atom_site_fract_z
_atom_type_partial_charge
C1    C     C_R   0.500715 0.262470 0.500200 0.768836
C2    C     C_3   0.877803 0.498634 0.499776 0.037329
C3    C     C_3   0.927985 0.509147 0.651419 -0.345633
C4    C     C_3   0.931403 0.608443 0.407909 -0.161661
C5    C     C_R   0.543795 0.063222 0.617321 0.068985
C6    C     C_R   0.511276 0.129530 0.498100 -0.088551
C7    C     C_R   0.496440 0.065188 0.372112 -0.208680
C8    C     C_R   0.496405 0.936481 0.372027 -0.234962
C9    C     C_R   0.509976 0.870690 0.498098 -0.086075
C10   C     C_R   0.541031 0.936449 0.618270 0.167932
C11   C     C_3   0.500834 0.930518 0.768957 -0.050520
C12   C     C_R   0.260147 0.501051 0.500407 0.755542
C13   C     C_3   0.503644 0.071527 0.766132 -0.462475
C14   C     C_R   0.563198 0.589525 0.071849 0.252110
C15   C     C_R   0.425370 0.422490 0.078081 -0.026658
C16   C     C_R   0.422059 0.422975 0.929543 0.066495
C17   C     C_R   0.564926 0.587888 0.924831 0.189649
C18   C     C_3   0.700803 0.611796 0.918296 -0.466625
C19   C     C_3   0.698778 0.617716 0.076830 -0.091554
C20   C     C_R   0.500886 0.737486 0.499656 0.844135
C21   C     C_R   0.739806 0.500983 0.499805 0.867637
C22   C     C_3   0.070927 0.367899 0.446796 0.139948
C23   C     C_3   0.924560 0.374958 0.434664 -0.040296
C24   C     C_3   0.069729 0.524359 0.651934 0.004922
C25   C     C_3   0.074727 0.603714 0.403765 -0.467794
C26   C     C_3   0.121954 0.498521 0.500730 0.069102
Cu1   Cu    Cu3+1 0.499990 0.499980 0.640670 0.929268
Cu2   Cu    Cu3+1 0.500010 0.500020 0.359330 0.937689
H1    H     H_    0.884530 0.588020 0.705034 0.223439
H2    H     H_    0.478629 0.113444 0.274933 0.169244
H3    H     H_    0.479250 0.889183 0.274732 0.170126
H4    H     H_    0.572729 0.890834 0.838010 0.166116
H5    H     H_    0.411249 0.114151 0.776980 0.219695
H6    H     H_    0.577118 0.112057 0.833028 0.181397
H7    H     H_    0.368292 0.358586 0.138413 0.186521
H8    H     H_    0.751440 0.529966 0.880664 0.186651
H9    H     H_    0.724404 0.700329 0.864030 0.215950
H10   H     H_    0.752961 0.543161 0.126804 0.187785
H11   H     H_    0.898866 0.380164 0.322472 0.189617
H12   H     H_    0.107407 0.455745 0.726698 0.190445
H13   H     H_    0.901112 0.425857 0.713687 0.148985
H14   H     H_    0.117485 0.693570 0.434015 0.159087
H15   H     H_    0.106427 0.590544 0.294528 0.215459
H16   H     H_    0.899364 0.595105 0.299139 0.128609
N1    N     N_R   0.500800 0.500930 0.147930 -0.232331
N2    N     N_R   0.500800 0.500890 0.852020 -0.236172
O1    O     O_R   0.500000 0.319640 0.618810 -0.607522
O2    O     O_R   0.500010 0.319680 0.381230 -0.594180
O3    O     O_R   0.317690 0.499960 0.618790 -0.616622
O4    O     O_R   0.317700 0.500000 0.381210 -0.582050
O5    O     O_R   0.499990 0.680320 0.618770 -0.571580
O6    O     O_R   0.500000 0.680360 0.381190 -0.586481
O7    O     O_R   0.682300 0.500000 0.618790 -0.571982
O8    O     O_R   0.682310 0.500040 0.381210 -0.604642
C27   C     C_3   0.112288 0.262424 0.547669 -0.939540
H17   H     H_    0.067803 0.267642 0.651930 0.260550
H18   H     H_    0.089601 0.170020 0.504603 0.239502
H19   H     H_    0.214120 0.264284 0.561380 0.201472
C28   C     C_2   0.888815 0.736711 0.447549 0.303062
H20   H     H_    0.922882 0.815602 0.387289 0.085297
O9    O     O_2   0.816289 0.754166 0.543479 -0.582018
C29   C     C_3   0.106096 0.652108 0.712699 -0.846218
H21   H     H_    0.205945 0.673101 0.701024 0.245120
H22   H     H_    0.055000 0.728341 0.662415 0.257171
H23   H     H_    0.083461 0.653351 0.826020 0.237996
C30   C     C_3   0.370616 0.877075 0.796019 -0.823033
H24   H     H_    0.306340 0.901398 0.710244 0.237441
H25   H     H_    0.374795 0.775404 0.807577 0.246174
H26   H     H_    0.333543 0.913810 0.895556 0.243509
C31   C     C_2   0.126280 0.335410 0.304120 0.373462
H27   H     H_    0.202399 0.271023 0.297522 0.093259
O10   O     O_2   0.090443 0.383139 0.195931 -0.560134
C32   C     C_2   0.330618 0.337945 0.864653 0.317036
H28   H     H_    0.326057 0.324522 0.754772 0.140814
O11   O     O_2   0.255825 0.279425 0.936143 -0.568801
C33   C     C_3   0.726252 0.746899 0.133244 -0.841715
H29   H     H_    0.669927 0.817967 0.079660 0.229343
H30   H     H_    0.704664 0.749223 0.246407 0.262018
H31   H     H_    0.825906 0.769929 0.117567 0.229424
C34   C     C_3   0.853002 0.257857 0.486298 -0.864119
H32   H     H_    0.858138 0.245205 0.601001 0.246525
H33   H     H_    0.754164 0.262748 0.457308 0.225993
H34   H     H_    0.889003 0.174604 0.433836 0.246751

loop_
_geom_bond_atom_site_label_1
_geom_bond_atom_site_label_2
_ccdc_geom_bond_type
C30   H25   S    
C27   H17   S    
C11   C13   S    
C32   H28   S    
C33   H31   S    
C25   H15   S    
C12   O3    A    
C7    C8    A    
C19   C33   S    
C18   H9    S    
C33   H30   S    
C20   O5    A    
C21   O8    A    
C30   H26   S    
C15   C16   A    
C18   C19   S    
C3    H1    S    
C29   H22   S    
Cu2   O4    S    
C3    H13   S    
C8    C9    A    
C31   H27   S    
C23   C34   S    
C9    C10   A    
C5    C13   S    
C11   C30   S    
C30   H24   S    
C28   H20   S    
C7    H2    S    
C32   O11   D    
C14   C17   A    
C3    C24   S    
C34   H34   S    
C15   H7    S    
Cu1   O5    S    
C4    C25   S    
C14   N1    A    
Cu2   N1    S    
C28   O9    D    
C16   C32   S    
C17   N2    A    
C34   H33   S    
C16   N2    A    
Cu2   O8    S    
C1    O1    A    
C4    H16   S    
C25   C26   S    
C1    C6    S    
C12   C26   S    
C2    C4    S    
C13   H5    S    
C29   H21   S    
C19   H10   S    
C9    C20   S    
C2    C21   S    
C17   C18   S    
C33   H29   S    
C22   C27   S    
Cu1   N2    S    
C11   H4    S    
C27   H18   S    
C15   N1    A    
C2    C23   S    
Cu1   O1    S    
Cu2   O2    S    
C24   C29   S    
C29   H23   S    
C8    H3    S    
C14   C19   S    
C24   C26   S    
C34   H32   S    
C25   H14   S    
C12   O4    A    
Cu1   O7    S    
C1    O2    A    
C6    C7    A    
C2    C3    S    
C5    C10   A    
C20   O6    A    
C21   O7    A    
Cu2   O6    S    
C5    C6    A    
C23   H11   S    
C4    C28   S    
C24   H12   S    
C10   C11   S    
C13   H6    S    
C22   C26   S    
C27   H19   S    
Cu1   Cu2   S    
C22   C23   S    
C31   O10   D    
C18   H8    S    
C22   C31   S    
Cu1   O3    S    
