data_mof_unit_24663.cif
_audit_creation_date              2013-03-05T16:18:08-0500
_audit_creation_method            fapswitch 2.2
_symmetry_space_group_name_H-M    P1
_symmetry_Int_Tables_number       1
_space_group_crystal_system       triclinic
_cell_length_a                    11.028479
_cell_length_b                    10.057411
_cell_length_c                    15.682223
_cell_angle_alpha                 89.471561
_cell_angle_beta                  90.665763
_cell_angle_gamma                 91.15688
_cell_volume                      1738.89771127

loop_
_atom_site_label
_atom_site_type_symbol
_atom_site_description
_atom_site_fract_x
_atom_site_fract_y
_atom_site_fract_z
_atom_type_partial_charge
O1    O     O_R   0.314910 0.616040 0.499980 -0.578541
O2    O     O_R   0.314910 0.383960 0.499980 -0.520852
C1    C     C_R   0.257720 0.498810 0.494124 1.028184
O3    O     O_R   0.500120 0.616090 0.377110 -0.577426
O4    O     O_R   0.500120 0.383910 0.377110 -0.601015
C2    C     C_R   0.499531 0.500470 0.339086 0.950731
Zn1   Zn    Zn3+2 0.500150 0.654960 0.499960 1.122714
Zn2   Zn    Zn3+2 0.500150 0.345040 0.499960 1.153342
O5    O     O_R   0.685320 0.616040 0.499960 -0.607404
O6    O     O_R   0.685320 0.383960 0.499960 -0.571400
O7    O     O_R   0.500110 0.615990 0.622830 -0.554235
O8    O     O_R   0.500110 0.384010 0.622830 -0.533238
C3    C     C_R   0.740724 0.501971 0.498252 1.034287
C4    C     C_R   0.499501 0.499556 0.660801 0.990938
C5    C     C_3   0.401570 0.611954 0.045340 0.477023
C6    C     C_3   0.433662 0.357877 0.047751 0.461859
C7    C     C_3   0.426894 0.369862 0.948084 -0.407732
C8    C     C_3   0.426465 0.622370 0.947503 -0.413383
H1    H     H_    0.342535 0.638047 0.909227 0.250008
H2    H     H_    0.332009 0.374555 0.923881 0.255525
H3    H     H_    0.466223 0.280946 0.917894 0.253550
H4    H     H_    0.484767 0.711456 0.933638 0.251893
C9    C     C_1   0.498444 0.498623 0.749743 0.057528
C10   C     C_3   0.486568 0.497578 0.082682 -0.286357
C11   C     C_3   0.493662 0.497641 0.916713 -0.065371
C12   C     C_3   0.624611 0.499709 0.952656 -0.390495
C13   C     C_3   0.622652 0.520556 0.050189 0.630298
C14   C     C_1   0.496833 0.498198 0.825145 0.096706
C15   C     C_1   0.489189 0.499946 0.174599 0.196131
C16   C     C_1   0.494146 0.501079 0.250062 0.152255
H5    H     H_    0.679728 0.579217 0.920683 0.247052
H6    H     H_    0.668077 0.404000 0.937306 0.250005
C17   C     C_3   0.070746 0.644402 0.470748 -0.040921
C18   C     C_3   0.067720 0.463183 0.579784 0.002260
H7    H     H_    0.117676 0.708638 0.518119 0.236056
H8    H     H_    0.081357 0.556675 0.616459 0.189900
C19   C     C_3   0.931253 0.653089 0.489249 -0.010551
C20   C     C_3   0.928790 0.435322 0.576111 0.061232
H9    H     H_    0.884701 0.705699 0.436265 0.217287
H10   H     H_    0.906570 0.329194 0.570245 0.252587
C21   C     C_3   0.058824 0.401302 0.412762 0.294154
C22   C     C_3   0.118536 0.496729 0.487133 -0.403386
C23   C     C_3   0.875832 0.505848 0.493792 -0.397106
C24   C     C_3   0.915648 0.436437 0.404891 0.220490
C25   C     C_3   0.403515 0.072008 0.554558 0.576928
C26   C     C_3   0.386481 0.918358 0.534544 0.555563
C27   C     C_3   0.500648 0.082428 0.409065 -0.057037
C28   C     C_3   0.523570 0.926037 0.410243 -0.034769
C29   C     C_3   0.615391 0.078810 0.536064 0.139973
C30   C     C_3   0.604672 0.919718 0.549752 0.116857
N1    N     N_3   0.499750 0.138610 0.498180 -0.248980
N2    N     N_3   0.499750 0.861390 0.498180 -0.252045
H11   H     H_    0.688333 0.089463 0.490017 0.171104
H12   H     H_    0.690072 0.876519 0.526413 0.181733
H13   H     H_    0.580301 0.129450 0.376353 0.183931
H14   H     H_    0.623513 0.921016 0.399377 0.125477
N3    N     N_R   0.119606 0.419429 0.329351 0.271379
O9    O     O_R   0.237016 0.430032 0.327080 -0.332997
O10   O     O_R   0.067387 0.368742 0.261666 -0.143109
N4    N     N_R   0.071691 0.257142 0.432998 0.270664
O11   O     O_R   0.040363 0.206698 0.505786 -0.261250
O12   O     O_R   0.079257 0.172636 0.370830 -0.135256
N5    N     N_R   0.882689 0.531529 0.334119 0.216198
O13   O     O_R   0.769296 0.561709 0.323297 -0.374413
O14   O     O_R   0.958012 0.580245 0.278390 -0.186835
N6    N     N_R   0.845814 0.312686 0.385150 0.228878
O15   O     O_R   0.836677 0.216124 0.439732 -0.362470
O16   O     O_R   0.803373 0.291781 0.308442 -0.225988
Cl1   Cl    Cl    0.263184 0.144157 0.553906 -0.280170
Cl2   Cl    Cl    0.262631 0.897078 0.462718 -0.359616
Cl3   Cl    Cl    0.428804 0.103062 0.667243 -0.316003
Cl4   Cl    Cl    0.332688 0.826905 0.626296 -0.384167
N7    N     N_R   0.398415 0.120843 0.354661 0.306913
O17   O     O_R   0.313815 0.194217 0.383484 -0.230866
O18   O     O_R   0.409636 0.113113 0.272336 -0.189150
N8    N     N_R   0.476385 0.856357 0.333850 0.304487
O19   O     O_R   0.363180 0.857565 0.310573 -0.158845
O20   O     O_R   0.554082 0.820936 0.276722 -0.257229
Cl5   Cl    Cl    0.685885 0.165892 0.623457 -0.305409
Cl6   Cl    Cl    0.609552 0.868430 0.659926 -0.301848
N9    N     N_R   0.272260 0.582275 0.062826 0.239249
O21   O     O_R   0.193166 0.560635 0.001962 -0.278246
O22   O     O_R   0.233520 0.586646 0.140867 -0.192009
N10   N     N_R   0.313601 0.321787 0.083468 0.262950
O23   O     O_R   0.301617 0.309997 0.165596 -0.209498
O24   O     O_R   0.227595 0.271179 0.035465 -0.221997
Cl7   Cl    Cl    0.526788 0.218345 0.074844 -0.336715
Cl8   Cl    Cl    0.429080 0.773764 0.091412 -0.293464
Cl9   Cl    Cl    0.685625 0.682623 0.073275 -0.315511
Cl10  Cl    Cl    0.732731 0.415377 0.101075 -0.292057
N11   N     N_R   0.098867 0.702513 0.386380 0.287106
O25   O     O_R   0.043915 0.809685 0.361095 -0.186699
O26   O     O_R   0.198546 0.673908 0.348163 -0.228381
N12   N     N_R   0.132762 0.364955 0.632419 0.295748
O27   O     O_R   0.073689 0.266578 0.668656 -0.181840
O28   O     O_R   0.236588 0.400226 0.666292 -0.368647
N13   N     N_R   0.912365 0.739369 0.563606 0.218713
O29   O     O_R   0.828611 0.714011 0.619142 -0.268500
O30   O     O_R   0.959578 0.859085 0.562371 -0.232828
N14   N     N_R   0.872207 0.471954 0.657673 0.271172
O31   O     O_R   0.759408 0.440580 0.671654 -0.346411
O32   O     O_R   0.937168 0.514365 0.722220 -0.248350

loop_
_geom_bond_atom_site_label_1
_geom_bond_atom_site_label_2
_geom_bond_distance
_ccdc_geom_bond_type
C5    C8    1.564000 S    
N6    O16   1.303066 A    
N5    O14   1.298633 A    
C1    C22   1.537365 S    
C12   H6    1.113500 S    
C25   Cl3   1.814771 S    
C21   C22   1.640827 S    
C28   N8    1.477637 S    
C24   N6    1.483550 S    
C18   C22   1.594151 S    
C10   C13   1.602207 S    
C19   N13   1.479104 S    
N13   O29   1.296849 A    
C5    N9    1.479332 S    
C25   C26   1.586712 S    
C11   C14   1.436777 S    
Zn1   O7    1.962788 S    
C12   C13   1.546207 S    
C30   H12   1.112310 S    
C17   C22   1.603451 S    
N10   O24   1.302465 A    
Zn1   N2    2.076176 S    
C17   N11   1.475215 S    
O4    C2    1.310425 A    
O7    C4    1.308750 A    
N3    O10   1.304658 A    
C25   N1    1.529363 S    
C26   N2    1.505133 S    
C6    N10   1.480808 S    
C7    H2    1.110744 S    
C13   Cl10  1.800948 S    
N4    O12   1.303779 A    
C8    H1    1.110487 S    
N7    O17   1.289633 A    
O5    C3    1.311289 A    
C10   C15   1.441819 S    
N13   O30   1.302183 A    
C6    C7    1.567559 S    
C29   N1    1.532304 S    
C6    Cl7   1.800482 S    
C30   N2    1.515515 S    
C26   Cl4   1.800485 S    
N6    O15   1.291792 A    
C12   H5    1.113724 S    
C6    C10   1.608817 S    
C18   C20   1.552529 S    
N7    O18   1.301577 A    
C8    C11   1.553391 S    
O3    Zn1   1.969349 S    
N9    O22   1.302392 A    
N9    O21   1.302350 A    
C24   N5    1.504552 S    
C25   Cl1   1.722405 S    
N10   O23   1.300325 A    
C27   N7    1.462027 S    
C20   N14   1.482465 S    
N11   O25   1.303541 A    
C27   N1    1.512468 S    
C11   C12   1.543974 S    
C17   C19   1.573126 S    
C29   Cl5   1.794355 S    
N4    O11   1.292721 A    
O1    C1    1.329276 A    
C4    C9    1.394940 S    
C19   C23   1.591885 S    
C23   C24   1.633531 S    
C15   C16   1.184202 T    
N11   O26   1.296806 A    
C27   C28   1.598012 S    
Zn2   O8    1.969876 S    
N14   O32   1.303296 A    
C9    C14   1.182779 T    
N8    O19   1.296932 A    
N12   O28   1.300802 A    
Zn2   N1    2.076512 S    
O3    C2    1.311560 A    
C5    C10   1.601015 S    
C2    C16   1.396640 S    
O8    C4    1.310830 A    
C21   C24   1.628053 S    
C3    C23   1.492193 S    
C27   H13   1.117018 S    
C28   H14   1.119477 S    
O1    Zn1   2.072303 S    
O2    Zn2   2.087828 S    
C18   N12   1.473654 S    
C21   N4    1.490563 S    
N8    O20   1.303766 A    
O6    C3    1.324113 A    
C30   Cl6   1.799080 S    
O4    Zn2   1.962285 S    
C7    C11   1.547367 S    
C8    H4    1.113488 S    
O2    C1    1.329134 A    
C21   N3    1.484810 S    
C20   C23   1.578946 S    
C19   H9    1.107668 S    
C20   H10   1.094766 S    
N3    O9    1.297963 A    
C29   H11   1.090251 S    
N14   O31   1.297846 A    
C17   H7    1.106138 S    
C13   Cl9   1.797092 S    
C18   H8    1.113462 S    
N12   O27   1.303279 A    
C7    H3    1.113654 S    
C26   Cl2   1.771171 S    
N5    O13   1.301638 A    
Zn1   O5    2.087068 S    
C28   N2    1.542243 S    
Zn2   O6    2.071544 S    
C29   C30   1.614571 S    
C5    Cl8   1.805312 S    
