data_mof_unit_60125.cif
_audit_creation_date              2012-12-10T20:53:50-0500
_audit_creation_method            fapswitch 2.2
_symmetry_space_group_name_H-M    P1
_symmetry_Int_Tables_number       1
_space_group_crystal_system       triclinic
_cell_length_a                    10.434873
_cell_length_b                    15.86717
_cell_length_c                    15.070474
_cell_angle_alpha                 89.996698
_cell_angle_beta                  102.199599
_cell_angle_gamma                 89.950073
_cell_volume                      2438.89683787

loop_
_atom_site_label
_atom_site_type_symbol
_atom_type_description
_atom_site_fract_x
_atom_site_fract_y
_atom_site_fract_z
_atom_type_partial_charge
C1    C     C_R   0.500042 0.338908 0.499992 0.920184
C2    C     C_R   0.500007 0.661078 0.500016 0.942953
C3    C     C_R   0.381660 0.499304 0.935794 -0.121232
C4    C     C_R   0.618338 0.500868 0.064205 -0.121300
C5    C     C_R   0.500006 0.500066 0.905042 0.052096
C6    C     C_R   0.499992 0.500088 0.094957 0.052083
C7    C     C_R   0.618342 0.500856 0.970448 -0.150099
C8    C     C_R   0.381656 0.499314 0.029552 -0.150101
C9    C     C_1   0.500018 0.500019 0.807178 0.115273
C10   C     C_1   0.499982 0.500055 0.192822 0.115002
C11   C     C_R   0.256293 0.503676 0.463817 0.918561
C12   C     C_R   0.743696 0.503664 0.536179 0.916899
C13   C     C_2   0.116123 0.518966 0.446952 0.114953
C14   C     C_2   0.883809 0.519007 0.553025 0.114728
C15   C     C_2   0.068909 0.576020 0.498478 0.314410
C16   C     C_2   0.930812 0.576012 0.501387 0.315458
C17   C     C_R   0.386316 0.954875 0.504058 -0.202711
C18   C     C_R   0.614333 0.044995 0.496158 -0.211879
C19   C     C_R   0.502652 0.912943 0.500125 0.089489
C20   C     C_R   0.497976 0.086941 0.500069 0.096748
C21   C     C_R   0.617498 0.957496 0.496164 -0.010457
C22   C     C_R   0.383153 0.042363 0.504060 -0.003570
C23   C     C_1   0.501741 0.824003 0.500144 -0.016695
C24   C     C_1   0.498780 0.175910 0.499975 -0.028845
C25   C     C_1   0.499466 0.250647 0.499947 -0.133415
C26   C     C_1   0.500842 0.749290 0.500108 -0.084491
H1    H     H_    0.298480 0.919357 0.507095 0.176682
H2    H     H_    0.702171 0.080505 0.493126 0.165662
H3    H     H_    0.288904 0.498703 0.050977 0.153007
H4    H     H_    0.711094 0.501456 0.949023 0.152954
H5    H     H_    0.288916 0.498689 0.887211 0.170651
H6    H     H_    0.711082 0.501477 0.112789 0.170558
N1    N     N_1   0.499960 0.500020 0.270540 -0.060079
N2    N     N_1   0.500040 0.499980 0.729460 -0.060000
O1    O     O_R   0.500000 0.378020 0.573650 -0.602990
O2    O     O_R   0.500000 0.621980 0.426350 -0.592013
O3    O     O_R   0.500060 0.378020 0.426320 -0.603568
O4    O     O_R   0.499940 0.621980 0.573680 -0.592044
O5    O     O_R   0.317790 0.500010 0.546150 -0.570674
O6    O     O_R   0.682210 0.499990 0.453850 -0.571209
O7    O     O_R   0.317850 0.500010 0.398830 -0.594396
O8    O     O_R   0.682150 0.499990 0.601170 -0.594399
Zn1   Zn    Zn3+2 0.499960 0.500000 0.598370 1.059940
Zn2   Zn    Zn3+2 0.500040 0.500000 0.401630 1.059435
Cl1   Cl    Cl    0.830707 0.650652 0.431780 -0.559512
Cl2   Cl    Cl    0.168737 0.650772 0.567917 -0.562925
Cl3   Cl    Cl    0.987873 0.454946 0.633273 -0.570079
Cl4   Cl    Cl    0.012303 0.454766 0.366853 -0.570237
C27   C     C_1   0.262027 0.084933 0.508158 0.199953
N3    N     N_1   0.165053 0.119033 0.511438 -0.152457
C28   C     C_1   0.738624 0.914877 0.492122 0.212261
N4    N     N_1   0.835589 0.880737 0.488899 -0.108566

loop_
_geom_bond_atom_site_label_1
_geom_bond_atom_site_label_2
_ccdc_geom_bond_type
C16   Cl1   S    
C12   O6    A    
C13   Cl4   S    
C19   C23   S    
C1    C25   S    
C6    C10   S    
C14   Cl3   S    
C18   C21   A    
O1    Zn1   S    
C2    O4    A    
C17   C22   A    
C1    O3    A    
O3    Zn2   S    
O4    Zn1   S    
C2    C26   S    
C7    H4    S    
C3    H5    S    
C11   C13   S    
C5    C9    S    
C4    H6    S    
C12   O8    A    
C4    C7    A    
C8    H3    S    
C17   C19   A    
C12   C14   S    
C11   O7    A    
C10   N1    T    
C18   C20   A    
C13   C15   D    
C3    C8    A    
O5    Zn1   S    
C9    N2    T    
C11   O5    A    
O7    Zn2   S    
C14   C16   D    
O2    Zn2   S    
C21   C28   S    
O8    Zn1   S    
C2    O2    A    
C28   N4    T    
C17   H1    S    
C20   C24   S    
O6    Zn2   S    
C18   H2    S    
C24   C25   T    
C1    O1    A    
C4    C6    A    
C27   N3    T    
C23   C26   T    
C22   C27   S    
C5    C7    A    
C6    C8    A    
C15   Cl2   S    
C19   C21   A    
N1    Zn2   S    
N2    Zn1   S    
C15   C16   S    
C20   C22   A    
C3    C5    A    
