data_mof_unit_65287.cif
_audit_creation_date              2012-12-10T17:05:06-0500
_audit_creation_method            fapswitch 2.2
_symmetry_space_group_name_H-M    P1
_symmetry_Int_Tables_number       1
_space_group_crystal_system       triclinic
_cell_length_a                    15.077713
_cell_length_b                    15.0681
_cell_length_c                    19.496632
_cell_angle_alpha                 89.305059
_cell_angle_beta                  91.108576
_cell_angle_gamma                 90.177293
_cell_volume                      4428.31536975

loop_
_atom_site_label
_atom_site_type_symbol
_atom_type_description
_atom_site_fract_x
_atom_site_fract_y
_atom_site_fract_z
_atom_type_partial_charge
C1    C     C_R   0.485376 0.259995 0.509628 0.503751
C2    C     C_2   0.493972 0.457200 0.020251 -0.133522
C3    C     C_2   0.488921 0.529639 0.979893 -0.132990
C4    C     C_R   0.514983 0.739604 0.489617 0.498422
C5    C     C_R   0.487163 0.516277 0.761999 0.038986
C6    C     C_R   0.476175 0.163617 0.509875 0.027395
C7    C     C_R   0.522315 0.835364 0.486123 0.036299
C8    C     C_R   0.614231 0.966574 0.477418 -0.129654
C9    C     C_R   0.605387 0.874696 0.476185 -0.118372
C10   C     C_R   0.447856 0.887398 0.498132 -0.118346
C11   C     C_R   0.456724 0.979423 0.502037 0.046612
C12   C     C_R   0.496973 0.464808 0.095137 0.040466
C13   C     C_R   0.540440 0.019322 0.490827 0.041919
C14   C     C_R   0.549227 0.111246 0.493938 -0.119596
C15   C     C_R   0.393838 0.123802 0.522838 -0.127269
C16   C     C_R   0.259923 0.513588 0.489038 0.503625
C17   C     C_R   0.383902 0.032102 0.518243 -0.133067
C18   C     C_R   0.163401 0.522209 0.487043 0.003471
C19   C     C_R   0.835226 0.479015 0.516737 0.064130
C20   C     C_R   0.967941 0.395911 0.545256 -0.109983
C21   C     C_R   0.875447 0.402203 0.544489 0.099594
C22   C     C_R   0.886166 0.548124 0.489772 -0.130443
C23   C     C_R   0.547789 0.404697 0.134447 -0.112925
C24   C     C_R   0.978535 0.541133 0.488404 0.047753
C25   C     C_R   0.019352 0.464171 0.516994 0.002103
C26   C     C_R   0.111263 0.455803 0.516615 -0.129740
C27   C     C_R   0.123250 0.597721 0.457662 -0.099302
C28   C     C_R   0.739478 0.485982 0.511930 0.530909
C29   C     C_R   0.031400 0.608097 0.458546 0.084822
C30   C     C_R   0.490363 0.511046 0.687330 0.507213
C31   C     C_R   0.508937 0.488925 0.312565 0.506869
C32   C     C_R   0.507032 0.481201 0.237800 0.037339
C33   C     C_R   0.454882 0.540156 0.198241 -0.121184
C34   C     C_R   0.553349 0.413140 0.205530 -0.120389
C35   C     C_R   0.449509 0.531781 0.127580 -0.109564
C36   C     C_R   0.443571 0.454091 0.871218 -0.108552
C37   C     C_R   0.443516 0.450356 0.799979 -0.123596
C38   C     C_R   0.528874 0.587132 0.795924 -0.118688
C39   C     C_R   0.527884 0.591435 0.867040 -0.114043
C40   C     C_R   0.486867 0.524167 0.905027 0.040413
H1    H     H_    0.417488 0.592493 0.221846 0.141896
H2    H     H_    0.163436 0.649678 0.435064 0.160436
H3    H     H_    0.999730 0.337207 0.566878 0.105552
H4    H     H_    0.410460 0.395432 0.774744 0.134223
H5    H     H_    0.852521 0.605675 0.468289 0.146685
H6    H     H_    0.562142 0.639280 0.767527 0.137711
H7    H     H_    0.492121 0.595321 0.002257 0.122250
H8    H     H_    0.584104 0.352205 0.110038 0.111311
H9    H     H_    0.409196 0.402780 0.899662 0.111522
H10   H     H_    0.593207 0.366242 0.235128 0.137577
H11   H     H_    0.501213 0.391877 0.998059 0.121916
H12   H     H_    0.560618 0.646393 0.892529 0.110911
H13   H     H_    0.407398 0.577212 0.098511 0.112930
H14   H     H_    0.862254 0.284102 0.596891 0.223940
H15   H     H_    0.790342 0.300059 0.531385 0.240137
H16   H     H_    0.613060 0.142049 0.484582 0.121667
H17   H     H_    0.336723 0.163809 0.534764 0.132331
H18   H     H_    0.678805 0.996196 0.469196 0.117550
H19   H     H_    0.319590 0.002451 0.527473 0.115746
H20   H     H_    0.663233 0.834133 0.467524 0.131384
H21   H     H_    0.384229 0.855950 0.507087 0.109576
H22   H     H_    0.142247 0.397020 0.538892 0.130907
I1    I     I_    0.979237 0.726654 0.413567 -0.419701
N1    N     N_3   0.822092 0.331814 0.572469 -0.621209
O1    O     O_3   0.500000 0.500000 0.500000 -0.443701
O2    O     O_R   0.437070 0.459640 0.654640 -0.545317
O3    O     O_R   0.556790 0.436390 0.349710 -0.545805
O4    O     O_R   0.547170 0.557950 0.655150 -0.543036
O5    O     O_R   0.458970 0.546010 0.340500 -0.545916
O6    O     O_R   0.306870 0.560460 0.447950 -0.544030
O7    O     O_R   0.697260 0.434930 0.470830 -0.541987
O8    O     O_R   0.434240 0.306870 0.546470 -0.545481
O9    O     O_R   0.561630 0.697750 0.534750 -0.541060
O10   O     O_R   0.542340 0.296600 0.470110 -0.545731
O11   O     O_R   0.461800 0.698790 0.448670 -0.539451
O12   O     O_R   0.296600 0.461110 0.533510 -0.546418
O13   O     O_R   0.699270 0.543500 0.547710 -0.533440
Zn1   Zn    Zn3+2 0.433070 0.575010 0.435400 0.941550
Zn2   Zn    Zn3+2 0.418400 0.433070 0.557650 0.937159
Zn3   Zn    Zn3+2 0.575700 0.573520 0.558390 0.952518
Zn4   Zn    Zn3+2 0.572830 0.418400 0.448560 0.942029

loop_
_geom_bond_atom_site_label_1
_geom_bond_atom_site_label_2
_ccdc_geom_bond_type
O4    Zn3   S    
C7    C10   A    
C14   H16   S    
C29   I1    S    
C8    C13   A    
O1    Zn2   S    
C5    C37   A    
C35   H13   S    
C18   C26   A    
O12   Zn2   S    
C2    C12   S    
C31   O3    A    
O2    Zn2   S    
C12   C23   A    
C1    O10   A    
C36   C37   A    
C19   C21   A    
O8    Zn2   S    
C38   C39   A    
O6    Zn1   S    
C20   C25   A    
C27   C29   A    
C15   C17   A    
C24   C29   A    
C21   N1    S    
C8    H18   S    
C6    C15   A    
C8    C9    A    
C4    O11   A    
C23   H8    S    
C39   H12   S    
O1    Zn3   S    
C5    C38   A    
C15   H17   S    
O5    Zn1   S    
C4    C7    S    
C34   H10   S    
C1    O8    A    
C1    C6    S    
C36   C40   A    
C19   C22   A    
C16   O6    A    
C24   C25   A    
C2    H11   S    
C39   C40   A    
C25   C26   A    
C32   C34   A    
C28   O13   A    
C6    C14   A    
O1    Zn4   S    
C31   C32   S    
C23   C34   A    
H15   N1    S    
C12   C35   A    
C19   C28   S    
C4    O9    A    
C30   O2    A    
C17   H19   S    
C3    C40   S    
O3    Zn4   S    
C22   C24   A    
C10   H21   S    
O10   Zn4   S    
C20   H3    S    
C5    C30   S    
O13   Zn3   S    
C7    C9    A    
C11   C17   A    
O1    Zn1   S    
C16   O12   A    
C18   C27   A    
C9    H20   S    
C33   H1    S    
C32   C33   A    
C37   H4    S    
C2    C3    D    
C26   H22   S    
C11   C13   A    
C27   H2    S    
H14   N1    S    
C3    H7    S    
C33   C35   A    
O9    Zn3   S    
O11   Zn1   S    
C38   H6    S    
C10   C11   A    
C28   O7    A    
C31   O5    A    
C22   H5    S    
C20   C21   A    
C16   C18   S    
C13   C14   A    
C30   O4    A    
C36   H9    S    
O7    Zn4   S    
