data_mof_unit_42388.cif
_audit_creation_date              2013-03-05T16:41:26-0500
_audit_creation_method            fapswitch 2.2
_symmetry_space_group_name_H-M    P1
_symmetry_Int_Tables_number       1
_space_group_crystal_system       triclinic
_cell_length_a                    10.734427
_cell_length_b                    10.688817
_cell_length_c                    9.897895
_cell_angle_alpha                 90.450826
_cell_angle_beta                  102.868685
_cell_angle_gamma                 90.045565
_cell_volume                      1107.1053524

loop_
_atom_site_label
_atom_site_type_symbol
_atom_site_description
_atom_site_fract_x
_atom_site_fract_y
_atom_site_fract_z
_atom_type_partial_charge
O1    O     O_R   0.500020 0.316790 0.614700 -0.645497
O2    O     O_R   0.500000 0.316760 0.385350 -0.547511
C1    C     C_R   0.500322 0.260483 0.499535 0.913280
O3    O     O_R   0.317820 0.500020 0.571850 -0.590463
O4    O     O_R   0.317800 0.499980 0.342510 -0.611162
C2    C     C_R   0.258897 0.496396 0.442564 0.955714
Zn1   Zn    Zn3+2 0.500010 0.500020 0.653140 1.012518
Zn2   Zn    Zn3+2 0.499990 0.499980 0.346860 1.055959
O5    O     O_R   0.500000 0.683240 0.614650 -0.594928
O6    O     O_R   0.499980 0.683210 0.385300 -0.575205
O7    O     O_R   0.682200 0.500020 0.657490 -0.594428
O8    O     O_R   0.682180 0.499980 0.428150 -0.635497
C3    C     C_R   0.504069 0.739626 0.501226 0.968916
C4    C     C_R   0.741044 0.496347 0.556834 0.851824
H1    H     H_    0.873257 0.409023 0.385985 0.172250
H2    H     H_    0.123030 0.393244 0.599303 0.176159
C5    C     C_2   0.121809 0.481938 0.409641 -0.260580
C6    C     C_2   0.067187 0.430689 0.503666 -0.071386
C7    C     C_2   0.878355 0.483969 0.586611 0.194996
C8    C     C_2   0.931070 0.437269 0.486338 -0.273983
H3    H     H_    0.065607 0.515827 0.311545 0.164888
C9    C     C_R   0.431738 0.063729 0.578642 0.066671
C10   C     C_R   0.497173 0.128784 0.495400 -0.125054
C11   C     C_R   0.556447 0.065783 0.402803 -0.165431
H4    H     H_    0.605839 0.117149 0.336375 0.214027
C12   C     C_R   0.565080 0.936674 0.406934 0.314977
C13   C     C_R   0.506060 0.871902 0.500328 -0.289621
C14   C     C_R   0.433069 0.935819 0.578778 0.038382
C15   C     C_3   0.439379 0.931767 0.731630 0.317809
C16   C     C_3   0.440532 0.073856 0.731027 -0.502292
H5    H     H_    0.528966 0.889580 0.792346 0.121376
H6    H     H_    0.354782 0.119078 0.755010 0.252722
H7    H     H_    0.533115 0.114229 0.787838 0.187112
C17   C     C_R   0.388376 0.505530 0.043840 0.089001
N1    N     N_R   0.499160 0.499140 0.142600 -0.089302
C18   C     C_R   0.611437 0.503280 0.098725 -0.028432
H8    H     H_    0.701523 0.504246 0.173809 0.158808
C19   C     C_R   0.611430 0.502478 0.955100 -0.115656
H9    H     H_    0.701442 0.502420 0.923449 0.203466
N2    N     N_R   0.499160 0.499180 0.856960 -0.114269
C20   C     C_R   0.388798 0.509382 0.902303 0.238220
C21   C     C_3   0.276098 0.425826 0.864113 -0.548894
C22   C     C_3   0.276073 0.417496 0.017316 0.198360
H10   H     H_    0.193080 0.477941 0.806319 0.250163
H11   H     H_    0.297898 0.337795 0.813573 0.209265
H12   H     H_    0.189617 0.459643 0.043356 0.147176
S1    S     S_3+6 0.307168 0.260832 0.080347 0.082564
O9    O     O_2   0.270142 0.249373 0.217344 -0.251400
O10   O     O_2   0.227546 0.170156 0.980102 -0.226733
O11   O     O_3   0.462378 0.224292 0.098845 -0.518589
H13   H     H_    0.478200 0.228116 0.004158 0.341033
N3    N     N_R   0.953540 0.532617 0.714443 0.187770
O12   O     O_R   0.932170 0.494678 0.831785 -0.414683
O13   O     O_R   0.021783 0.632937 0.712454 -0.319684
N4    N     N_R   0.643001 0.874902 0.325954 0.226583
O14   O     O_R   0.728822 0.794141 0.383596 -0.370025
O15   O     O_R   0.642765 0.913701 0.201589 -0.338111
S2    S     S_3+6 0.296937 0.867880 0.770280 0.094414
O16   O     O_2   0.181860 0.941576 0.699599 -0.223277
O17   O     O_2   0.281120 0.734434 0.721014 -0.273981
O18   O     O_3   0.310343 0.873377 0.942740 -0.480487
H14   H     H_    0.241829 0.817611 0.959943 0.390158

loop_
_geom_bond_atom_site_label_1
_geom_bond_atom_site_label_2
_geom_bond_distance
_ccdc_geom_bond_type
O4    Zn2   1.946569 S    
C16   H6    1.110630 S    
C10   C11   1.396079 A    
N2    C20   1.361254 A    
C15   C16   1.518875 S    
C20   C21   1.481002 S    
C1    C10   1.408134 S    
C7    C8    1.340609 D    
Zn2   O8    1.941970 S    
N4    O14   1.301643 A    
C12   N4    1.438485 S    
N3    O13   1.300911 A    
S2    O18   1.681360 S    
C18   C19   1.421528 A    
C5    C6    1.326857 D    
S1    O10   1.503388 D    
H2    C6    1.081282 S    
C9    C14   1.367300 A    
N3    O12   1.300746 A    
C15   S2    1.792649 S    
Zn1   O7    1.946568 S    
C14   C15   1.500263 S    
C12   C13   1.416150 A    
O4    C2    1.288982 A    
C17   C20   1.402866 A    
C21   H10   1.100183 S    
O3    Zn1   1.941969 S    
C4    C7    1.443724 S    
O3    C2    1.295275 A    
C18   H8    1.080407 S    
C19   N2    1.369367 A    
O8    C4    1.290509 A    
O2    C1    1.283803 A    
S1    O11   1.681729 S    
C6    C8    1.434571 S    
N4    O15   1.301487 A    
O18   H14   0.990893 S    
O7    C4    1.293387 A    
C5    H3    1.087607 S    
C22   H12   1.111773 S    
C21   C22   1.519760 S    
C21   H11   1.111515 S    
S2    O17   1.500988 D    
S1    O9    1.501416 D    
C19   H9    1.080075 S    
C11   H4    1.084132 S    
C15   H5    1.112124 S    
C17   N1    1.363004 A    
C13   C14   1.395379 A    
Zn1   O5    1.998051 S    
C2    C5    1.442505 S    
O5    C3    1.287622 A    
C9    C10   1.386279 A    
C3    C13   1.414145 S    
C9    C16   1.493174 S    
C16   H7    1.112070 S    
O11   H13   0.990123 S    
S2    O16   1.503712 D    
O1    Zn1   1.992190 S    
Zn1   N2    2.019531 S    
C22   S1    1.797034 S    
C7    N3    1.434140 S    
Zn2   N1    2.019727 S    
Zn2   O6    1.992189 S    
O2    Zn2   1.998053 S    
C17   C22   1.503645 S    
N1    C18   1.369854 A    
C11   C12   1.383522 A    
H1    C8    1.087800 S    
O1    C1    1.285477 A    
O6    C3    1.284050 A    
