data_mof_unit_17234.cif
_audit_creation_date              2012-12-10T20:31:57-0500
_audit_creation_method            fapswitch 2.2
_symmetry_space_group_name_H-M    P1
_symmetry_Int_Tables_number       1
_space_group_crystal_system       triclinic
_cell_length_a                    9.887826
_cell_length_b                    10.739845
_cell_length_c                    15.661066
_cell_angle_alpha                 91.806035
_cell_angle_beta                  68.79702
_cell_angle_gamma                 90.180714
_cell_volume                      1549.69192009

loop_
_atom_site_label
_atom_site_type_symbol
_atom_type_description
_atom_site_fract_x
_atom_site_fract_y
_atom_site_fract_z
_atom_type_partial_charge
C1    C     C_R   0.500279 0.739955 0.499513 0.904668
C2    C     C_R   0.419123 0.453353 0.908788 0.017499
C3    C     C_R   0.269117 0.444996 0.961875 0.009763
C4    C     C_R   0.522624 0.468778 0.951864 0.024168
C5    C     C_R   0.473151 0.478325 0.048868 -0.094298
C6    C     C_R   0.320982 0.477800 0.100011 0.238615
C7    C     C_R   0.222636 0.446528 0.057435 0.402555
C8    C     C_R   0.672597 0.487368 0.901221 -0.112563
C9    C     C_R   0.765997 0.529543 0.943672 -0.225217
C10   C     C_R   0.719596 0.535474 0.038456 0.120385
C11   C     C_R   0.577838 0.496352 0.090595 0.153772
C12   C     C_R   0.410274 0.493379 0.674708 0.884353
C13   C     C_R   0.814662 0.574078 0.082207 -0.180034
C14   C     C_R   0.774198 0.562857 0.176568 -0.136278
C15   C     C_R   0.547979 0.470178 0.181975 -0.181280
C16   C     C_R   0.366987 0.937613 0.535777 -0.039098
C17   C     C_R   0.498547 0.872398 0.504239 -0.056131
C18   C     C_R   0.629638 0.936237 0.481395 -0.129430
C19   C     C_R   0.629015 0.064335 0.485414 -0.183719
C20   C     C_R   0.497430 0.128985 0.507668 -0.085111
C21   C     C_R   0.366098 0.065389 0.536837 -0.052467
C22   C     C_3   0.242276 0.071699 0.501871 0.927284
C23   C     C_R   0.499545 0.260315 0.500806 0.867519
C24   C     C_3   0.245244 0.930139 0.500796 -0.510553
C25   C     C_R   0.885409 0.535154 0.577310 0.113993
C26   C     C_R   0.970132 0.455390 0.426334 -0.083510
C27   C     C_R   0.113903 0.455952 0.426283 -0.023052
C28   C     C_R   0.026899 0.527113 0.578998 0.042636
C29   C     C_3   0.011291 0.642056 0.636323 -0.539581
C30   C     C_3   0.868578 0.662745 0.623079 0.671912
C31   C     C_R   0.589751 0.500468 0.325017 0.876005
C32   C     C_R   0.357583 0.471754 0.772735 -0.044796
C33   C     C_R   0.641797 0.507785 0.225992 -0.107604
C34   C     C_R   0.166600 0.445779 0.918497 -0.161383
C35   C     C_R   0.210211 0.463448 0.824908 -0.244505
C36   C     C_R   0.459775 0.455954 0.813768 -0.136422
H1    H     H_    0.919848 0.612189 0.043613 0.174223
H2    H     H_    0.732715 0.887931 0.454757 0.216013
H3    H     H_    0.731923 0.112086 0.464936 0.171877
H4    H     H_    0.145784 0.892679 0.551857 0.221189
H5    H     H_    0.279548 0.883749 0.431771 0.205732
H6    H     H_    0.950415 0.420713 0.366366 0.145230
H7    H     H_    0.201901 0.420652 0.366729 0.166456
H8    H     H_    0.999402 0.620040 0.707583 0.187676
H9    H     H_    0.451760 0.418712 0.219575 0.180794
H10   H     H_    0.097784 0.709285 0.604106 0.227731
H11   H     H_    0.846265 0.595516 0.210476 0.205487
H12   H     H_    0.876650 0.552347 0.902078 0.140744
H13   H     H_    0.051892 0.439598 0.957038 0.166579
H14   H     H_    0.129241 0.470180 0.793602 0.152374
H15   H     H_    0.571505 0.449785 0.769769 0.169081
H16   H     H_    0.721907 0.475395 0.828138 0.157174
N1    N     N_R   0.856900 0.500860 0.500610 -0.099133
N2    N     N_R   0.142540 0.500820 0.500610 -0.086488
O1    O     O_R   0.385310 0.683210 0.499990 -0.614194
O2    O     O_R   0.614650 0.683240 0.500000 -0.563918
O3    O     O_R   0.319830 0.499970 0.632240 -0.634818
O4    O     O_R   0.549170 0.500000 0.632250 -0.591756
O5    O     O_R   0.385350 0.316760 0.500000 -0.610531
O6    O     O_R   0.614690 0.316790 0.500010 -0.637360
O7    O     O_R   0.450830 0.500000 0.367750 -0.596450
O8    O     O_R   0.680170 0.500030 0.367760 -0.627423
Zn1   Zn    Zn3+2 0.346870 0.499980 0.499990 0.972322
Zn2   Zn    Zn3+2 0.653130 0.500020 0.500010 0.997508
O9    O     O_3   0.076213 0.439688 0.109590 -0.627989
C37   C     C_3   0.040463 0.316652 0.139866 0.104891
H17   H     H_    0.968132 0.323651 0.213090 0.171811
H18   H     H_    0.135691 0.258404 0.136696 0.107706
C38   C     C_3   0.958079 0.251564 0.085027 -0.389645
H19   H     H_    0.868137 0.312669 0.084397 0.245211
H20   H     H_    0.032870 0.233636 0.013297 0.222496
C39   C     C_3   0.894330 0.127674 0.125212 -0.927874
H21   H     H_    0.982531 0.059978 0.118114 0.273742
H22   H     H_    0.827492 0.088822 0.087177 0.272994
H23   H     H_    0.824131 0.140720 0.198540 0.268698
O10   O     O_3   0.104272 0.119962 0.561980 -0.673999
C40   C     C_3   0.102533 0.182829 0.643313 0.063658
H24   H     H_    0.018482 0.257411 0.659980 0.166542
H25   H     H_    0.204690 0.231249 0.636700 0.147953
C41   C     C_3   0.059414 0.093333 0.722833 -0.342813
H26   H     H_    0.951704 0.052869 0.731790 0.260867
H27   H     H_    0.139642 0.015884 0.707402 0.225713
C42   C     C_3   0.051642 0.159972 0.812044 -0.955626
H28   H     H_    0.160194 0.195834 0.805735 0.272495
H29   H     H_    0.016120 0.093644 0.868782 0.277688
H30   H     H_    0.972704 0.238718 0.829111 0.259760
O11   O     O_3   0.290073 0.119254 0.411976 -0.662158
C43   C     C_3   0.176527 0.138400 0.378511 0.097748
H31   H     H_    0.222473 0.194498 0.316261 0.150130
H32   H     H_    0.085676 0.195006 0.426957 0.169588
C44   C     C_3   0.120259 0.015917 0.351273 -0.346367
H33   H     H_    0.213116 0.954134 0.311587 0.247806
H34   H     H_    0.051450 0.968369 0.413828 0.269578
C45   C     C_3   0.030024 0.039092 0.292452 -0.960178
H35   H     H_    0.943008 0.108784 0.326422 0.249418
H36   H     H_    0.979817 0.950719 0.280758 0.289870
H37   H     H_    0.101229 0.073799 0.225282 0.262899
Cl1   Cl    Cl    0.717034 0.682426 0.727140 -0.626825
Cl2   Cl    Cl    0.881057 0.785786 0.547266 -0.642902
Cl3   Cl    Cl    0.243420 0.552178 0.209390 -0.647101

loop_
_geom_bond_atom_site_label_1
_geom_bond_atom_site_label_2
_ccdc_geom_bond_type
C8    C9    A    
C37   H18   S    
O11   C43   S    
C16   C21   A    
C31   O7    A    
C19   C20   A    
C22   O10   S    
C4    C8    A    
C14   C33   A    
C27   N2    A    
C40   H24   S    
C25   C28   A    
C23   O5    A    
C26   C27   A    
C32   C36   A    
C28   C29   S    
C1    O2    A    
C25   N1    A    
C5    C11   A    
C3    C7    A    
C41   C42   S    
C5    C6    A    
C41   H26   S    
N1    Zn2   S    
C37   C38   S    
C7    O9    S    
N2    Zn1   S    
C38   H20   S    
C34   C35   A    
O7    Zn1   S    
O8    Zn2   S    
C11   C15   A    
C16   C17   A    
O1    Zn1   S    
O2    Zn2   S    
C9    C10   A    
C8    H16   S    
C13   H1    S    
C12   O4    A    
C37   H17   S    
C16   C24   S    
C21   C22   S    
C12   C32   S    
C24   H5    S    
C31   O8    A    
C45   H35   S    
C39   H23   S    
O3    Zn1   S    
C40   H25   S    
O4    Zn2   S    
C23   O6    A    
C32   C35   A    
O10   C40   S    
C39   H22   S    
C44   H33   S    
C28   N2    A    
C18   C19   A    
C3    C34   A    
C30   Cl2   S    
C6    Cl3   S    
C38   C39   S    
C2    C4    A    
C29   C30   S    
C44   H34   S    
C42   H28   S    
C20   C23   S    
C35   H14   S    
C31   C33   S    
C17   C18   A    
C22   O11   S    
C20   C21   A    
C45   H36   S    
C6    C7    A    
C36   H15   S    
C19   H3    S    
C12   O3    A    
C41   H27   S    
C42   H29   S    
C43   H32   S    
C29   H8    S    
C22   C24   S    
C15   H9    S    
C26   N1    A    
C26   H6    S    
C40   C41   S    
C2    C36   A    
C25   C30   S    
C34   H13   S    
C1    C17   S    
C39   H21   S    
C10   C13   A    
C14   H11   S    
C30   Cl1   S    
O5    Zn1   S    
C45   H37   S    
C29   H10   S    
O6    Zn2   S    
C2    C3    A    
C18   H2    S    
C44   C45   S    
C43   C44   S    
C24   H4    S    
C1    O1    A    
C38   H19   S    
C10   C11   A    
C27   H7    S    
C4    C5    A    
C42   H30   S    
C43   H31   S    
C9    H12   S    
O9    C37   S    
C13   C14   A    
C15   C33   A    
