data_mof_unit_53178.cif
_audit_creation_date              2012-12-10T20:25:43-0500
_audit_creation_method            fapswitch 2.2
_symmetry_space_group_name_H-M    P1
_symmetry_Int_Tables_number       1
_space_group_crystal_system       triclinic
_cell_length_a                    8.604127
_cell_length_b                    10.73272
_cell_length_c                    9.932201
_cell_angle_alpha                 91.123213
_cell_angle_beta                  99.124501
_cell_angle_gamma                 93.645934
_cell_volume                      903.346676596

loop_
_atom_site_label
_atom_site_type_symbol
_atom_type_description
_atom_site_fract_x
_atom_site_fract_y
_atom_site_fract_z
_atom_type_partial_charge
C1    C     C_R   0.517257 0.262091 0.500533 0.954159
C2    C     C_R   0.565325 0.935152 0.389115 -0.278785
C3    C     C_R   0.532450 0.874599 0.505952 -0.115654
C4    C     C_R   0.536552 0.943251 0.627255 0.017040
C5    C     C_3   0.667727 0.947594 0.746905 -0.436321
C6    C     C_3   0.668906 0.087177 0.747006 0.313688
C7    C     C_R   0.372422 0.449242 0.053030 0.055543
C8    C     C_R   0.617954 0.559540 0.092013 -0.131873
C9    C     C_R   0.621250 0.559308 0.949921 0.473931
C10   C     C_R   0.371610 0.450400 0.910305 -0.027580
C11   C     C_3   0.301675 0.317796 0.894358 0.714583
C12   C     C_R   0.201270 0.500469 0.463948 0.997497
C13   C     C_3   0.307022 0.316488 0.049295 0.038463
C14   C     C_R   0.508690 0.740636 0.502198 0.900134
C15   C     C_R   0.798847 0.501274 0.535987 0.976949
C16   C     C_2   0.035662 0.501059 0.444905 -0.268996
C17   C     C_2   0.964647 0.504812 0.554753 -0.355482
C18   C     C_R   0.541178 0.072657 0.624421 0.011284
C19   C     C_R   0.549043 0.132493 0.502115 -0.228916
C20   C     C_R   0.585984 0.064261 0.388890 0.344543
H1    H     H_    0.972301 0.497182 0.341087 0.236596
H2    H     H_    0.394863 0.255763 0.102060 0.179140
H3    H     H_    0.028082 0.511256 0.658369 0.205551
H4    H     H_    0.584281 0.881678 0.300137 0.192578
H5    H     H_    0.629559 0.906572 0.839271 0.214600
H6    H     H_    0.778965 0.915549 0.719796 0.238276
H7    H     H_    0.632840 0.126581 0.839918 0.236701
H8    H     H_    0.714705 0.602834 0.163921 0.194732
N1    N     N_R   0.498950 0.499140 0.142680 -0.132926
N2    N     N_R   0.498950 0.499180 0.857030 -0.143896
O1    O     O_R   0.500020 0.316790 0.614690 -0.549572
O2    O     O_R   0.500000 0.316760 0.385350 -0.584052
O3    O     O_R   0.271760 0.500010 0.587850 -0.624752
O4    O     O_R   0.271740 0.499970 0.358500 -0.559573
O5    O     O_R   0.500000 0.683240 0.614650 -0.580247
O6    O     O_R   0.499980 0.683210 0.385310 -0.644291
O7    O     O_R   0.728260 0.500030 0.641500 -0.531099
O8    O     O_R   0.728240 0.499990 0.412150 -0.618694
Zn1   Zn    Zn3+2 0.500010 0.500020 0.653130 1.088124
Zn2   Zn    Zn3+2 0.499990 0.499980 0.346870 1.045794
S1    S     S_3+6 0.802153 0.621735 0.908002 0.042050
O9    O     O_2   0.889495 0.704712 0.022860 -0.308100
O10   O     O_2   0.900027 0.514630 0.887737 -0.280498
O11   O     O_3   0.780862 0.705072 0.767325 -0.580777
H9    H     H_    0.889125 0.719491 0.745918 0.355552
O12   O     O_3   0.151199 0.304339 0.813854 -0.670048
H10   H     H_    0.091446 0.375482 0.835919 0.372979
O13   O     O_3   0.403488 0.235901 0.849831 -0.744168
H11   H     H_    0.353251 0.150686 0.855456 0.345367
S2    S     S_3+6 0.121938 0.294744 0.110935 0.112526
O14   O     O_2   0.045500 0.416312 0.113786 -0.221393
O15   O     O_2   0.012320 0.200989 0.022189 -0.170727
O16   O     O_3   0.154799 0.241606 0.270353 -0.499673
H12   H     H_    0.202927 0.160983 0.261777 0.353658
S3    S     S_3+6 0.692416 0.125346 0.262427 0.062768
O17   O     O_2   0.740617 0.262105 0.282402 -0.204732
O18   O     O_2   0.840075 0.056510 0.268138 -0.250901
O19   O     O_3   0.584195 0.098185 0.107114 -0.580470
H13   H     H_    0.591707 0.008397 0.086051 0.350605
O20   O     O_3   0.811725 0.146727 0.720861 -0.655809
H14   H     H_    0.842274 0.106918 0.638659 0.354597

loop_
_geom_bond_atom_site_label_1
_geom_bond_atom_site_label_2
_ccdc_geom_bond_type
N2    Zn1   S    
C7    C10   A    
S2    O15   D    
S3    O17   D    
C15   O8    A    
C16   H1    S    
C7    N1    A    
C11   C13   S    
S1    O9    D    
C10   N2    A    
O5    Zn1   S    
C19   C20   A    
C6    H7    S    
C1    O1    A    
C4    C18   A    
O2    Zn2   S    
C2    C3    A    
O19   H13   S    
O7    Zn1   S    
O3    Zn1   S    
O16   H12   S    
O8    Zn2   S    
C4    C5    S    
S1    O10   D    
C11   O13   S    
C17   H3    S    
C3    C14   S    
C9    N2    A    
C20   S3    S    
O4    Zn2   S    
C8    N1    A    
N1    Zn2   S    
O13   H11   S    
O1    Zn1   S    
C13   H2    S    
S2    O14   D    
S3    O18   D    
C2    H4    S    
C5    C6    S    
C6    C18   S    
S1    O11   S    
C5    H5    S    
C1    C19   S    
S2    O16   S    
C16   C17   D    
C10   C11   S    
C12   O4    A    
C5    H6    S    
C6    O20   S    
O6    Zn2   S    
O11   H9    S    
C8    H8    S    
C18   C19   A    
S3    O19   S    
C14   O5    A    
C15   C17   S    
C2    C20   A    
O12   H10   S    
C8    C9    A    
C14   O6    A    
C7    C13   S    
C12   C16   S    
C12   O3    A    
C9    S1    S    
C1    O2    A    
C15   O7    A    
C3    C4    A    
C13   S2    S    
O20   H14   S    
C11   O12   S    
