data_mof_unit_34415.cif
_audit_creation_date              2012-12-11T15:15:44-0500
_audit_creation_method            fapswitch 2.2
_symmetry_space_group_name_H-M    P1
_symmetry_Int_Tables_number       1
_space_group_crystal_system       triclinic
_cell_length_a                    20.679571
_cell_length_b                    22.855774
_cell_length_c                    6.943355
_cell_angle_alpha                 90.000021
_cell_angle_beta                  87.293042
_cell_angle_gamma                 90.000114
_cell_volume                      3278.0981231

loop_
_atom_site_label
_atom_site_type_symbol
_atom_type_description
_atom_site_fract_x
_atom_site_fract_y
_atom_site_fract_z
_atom_type_partial_charge
O1    O     O_R   0.387100 0.552640 0.378490 -0.541556
O2    O     O_R   0.612900 0.052640 0.621510 -0.541556
O3    O     O_R   0.249610 0.559600 0.072250 -0.508672
O4    O     O_R   0.750390 0.059600 0.927750 -0.508677
O5    O     O_R   0.249120 0.447360 0.902040 -0.515121
O6    O     O_R   0.750880 0.947360 0.097960 -0.515122
C1    C     C_R   0.226206 0.572550 0.243918 0.845473
C2    C     C_R   0.773796 0.072548 0.756081 0.845466
O7    O     O_R   0.386610 0.559560 0.048860 -0.543543
O8    O     O_R   0.613390 0.059560 0.951140 -0.543547
O9    O     O_R   0.387100 0.447320 0.878470 -0.534033
O10   O     O_R   0.612900 0.947320 0.121530 -0.534049
C3    C     C_R   0.405863 0.576586 0.216285 0.872807
C4    C     C_R   0.594137 0.076587 0.783716 0.872811
O11   O     O_R   0.249120 0.552680 0.402050 -0.518983
O12   O     O_R   0.750880 0.052680 0.597950 -0.518988
O13   O     O_3   0.318110 0.463180 0.223790 -0.389654
O14   O     O_3   0.681890 0.963180 0.776210 -0.389669
V1    V     V_3+5 0.318110 0.506830 0.948930 1.609179
V2    V     V_3+5 0.681890 0.006830 0.051070 1.609152
O15   O     O_R   0.386610 0.440400 0.548840 -0.553656
O16   O     O_R   0.613390 0.940400 0.451160 -0.553582
C5    C     C_R   0.407081 0.424824 0.715533 0.738386
C6    C     C_R   0.592919 0.924823 0.284467 0.738403
O17   O     O_R   0.249610 0.440440 0.572240 -0.514374
O18   O     O_R   0.750390 0.940440 0.427760 -0.514372
C7    C     C_R   0.227793 0.425827 0.743882 0.831024
C8    C     C_R   0.772211 0.925830 0.256118 0.831006
V3    V     V_3+5 0.318110 0.493170 0.448930 1.586107
V4    V     V_3+5 0.681890 0.993170 0.551070 1.586189
O19   O     O_3   0.318110 0.536820 0.723940 -0.382377
O20   O     O_3   0.681890 0.036820 0.276060 -0.382384
C9    C     C_R   0.174382 0.382506 0.758303 -0.388922
C10   C     C_R   0.825631 0.882517 0.241696 -0.389047
C11   C     C_R   0.160765 0.346439 0.599122 0.297357
C12   C     C_R   0.839270 0.846465 0.400892 0.297266
C13   C     C_R   0.105584 0.310840 0.606685 0.561963
C14   C     C_R   0.894458 0.810876 0.393314 0.562061
C15   C     C_R   0.066257 0.306884 0.777334 -0.141669
C16   C     C_R   0.933770 0.806913 0.222642 -0.141745
C17   C     C_R   0.081536 0.340654 0.937061 -0.252770
C18   C     C_R   0.918475 0.840672 0.062907 -0.252761
C19   C     C_R   0.134653 0.378244 0.928373 0.610857
C20   C     C_R   0.865351 0.878253 0.071607 0.610818
C21   C     C_R   0.903769 0.180756 0.886858 -0.199976
C22   C     C_R   0.096251 0.680773 0.113127 -0.199949
C23   C     C_R   0.849059 0.145143 0.900685 0.589435
C24   C     C_R   0.150955 0.645153 0.099306 0.589443
C25   C     C_R   0.868273 0.116346 0.566088 0.578570
C26   C     C_R   0.131735 0.616361 0.433904 0.578557
C27   C     C_R   0.923244 0.151765 0.554170 -0.195829
C28   C     C_R   0.076770 0.651787 0.445816 -0.195845
C29   C     C_R   0.941156 0.184432 0.713429 -0.074916
C30   C     C_R   0.058863 0.684456 0.286552 -0.074904
C31   C     C_2   0.007065 0.270519 0.792609 -0.069762
C32   C     C_2   0.992960 0.770546 0.207351 -0.069756
C33   C     C_2   0.000734 0.219920 0.696917 -0.060449
C34   C     C_2   0.999290 0.719949 0.303058 -0.060440
C35   C     C_R   0.830253 0.112521 0.739975 -0.324315
C36   C     C_R   0.169755 0.612529 0.260019 -0.324308
H1    H     H_    0.039763 0.203790 0.601546 0.187436
H2    H     H_    0.960261 0.703824 0.398439 0.187422
H3    H     H_    0.051414 0.338605 0.068937 0.213366
H4    H     H_    0.948588 0.838618 0.931014 0.213423
H5    H     H_    0.917771 0.203984 0.014214 0.155808
H6    H     H_    0.082253 0.704003 0.985767 0.155800
H7    H     H_    0.967924 0.285595 0.890030 0.124153
H8    H     H_    0.032099 0.785617 0.109912 0.124161
H9    H     H_    0.952098 0.153592 0.419880 0.169617
H10   H     H_    0.047916 0.653619 0.580105 0.169619
C37   C     C_R   0.574700 0.364750 0.756520 -0.226292
C38   C     C_R   0.425304 0.864743 0.243435 -0.226299
H11   H     H_    0.621787 0.382412 0.785799 0.172861
H12   H     H_    0.378219 0.882402 0.214112 0.172860
C39   C     C_R   0.460984 0.382735 0.720913 -0.155837
C40   C     C_R   0.539017 0.882732 0.279087 -0.155855
C41   C     C_R   0.477999 0.098368 0.813308 0.523654
C42   C     C_R   0.522001 0.598365 0.186737 0.523587
C43   C     C_R   0.423933 0.134539 0.800027 0.388363
C44   C     C_R   0.576068 0.634530 0.200124 0.388361
C45   C     C_R   0.432149 0.194406 0.769554 -0.305225
C46   C     C_R   0.567854 0.694396 0.230625 -0.305150
C47   C     C_R   0.494171 0.219483 0.737563 -0.013648
C48   C     C_R   0.505830 0.719478 0.262519 -0.013657
C49   C     C_R   0.549522 0.181548 0.733456 -0.151097
C50   C     C_R   0.450478 0.681545 0.266574 -0.151113
C51   C     C_R   0.502644 0.281512 0.719612 0.083463
C52   C     C_R   0.497357 0.781509 0.280436 0.083478
C53   C     C_R   0.566194 0.304673 0.719922 -0.113365
C54   C     C_R   0.433807 0.804669 0.280081 -0.113398
C55   C     C_R   0.620186 0.267718 0.684779 0.316561
C56   C     C_R   0.379814 0.767715 0.315223 0.316555
C57   C     C_R   0.611375 0.205980 0.684975 0.333126
C58   C     C_R   0.388625 0.705978 0.315033 0.333137
C59   C     C_R   0.450323 0.321989 0.709786 -0.293148
C60   C     C_R   0.549678 0.821987 0.290258 -0.293120
C61   C     C_R   0.522891 0.403405 0.754608 0.641273
C62   C     C_R   0.477113 0.903399 0.245346 0.641307
C63   C     C_R   0.540678 0.120263 0.777212 -0.241430
C64   C     C_R   0.459322 0.620262 0.222800 -0.241397
H13   H     H_    0.401153 0.307843 0.693044 0.111668
H14   H     H_    0.598847 0.807843 0.307021 0.111588
H15   H     H_    0.388574 0.220316 0.775142 0.151363
H16   H     H_    0.611432 0.720300 0.225148 0.151312
O21   O     O_3   0.198621 0.348896 0.429625 -0.501246
C65   C     C_3   0.243647 0.302366 0.427887 0.147916
H17   H     H_    0.218224 0.259806 0.411672 0.146611
H18   H     H_    0.270883 0.301636 0.562953 0.041039
C66   C     C_3   0.292296 0.310553 0.257242 -0.258575
H19   H     H_    0.266088 0.314080 0.121500 0.197497
H20   H     H_    0.319713 0.351653 0.277339 0.205282
C67   C     C_3   0.340232 0.259891 0.239648 -0.876167
H21   H     H_    0.366478 0.255081 0.374686 0.232449
H22   H     H_    0.376147 0.268567 0.119096 0.244955
H23   H     H_    0.314444 0.218557 0.209250 0.250571
O22   O     O_3   0.801434 0.848921 0.570426 -0.501179
C68   C     C_3   0.756363 0.802429 0.572085 0.148316
H24   H     H_    0.781759 0.759818 0.587456 0.146099
H25   H     H_    0.728959 0.801898 0.437331 0.041040
C69   C     C_3   0.707932 0.810453 0.743356 -0.258407
H26   H     H_    0.734322 0.813740 0.878831 0.197421
H27   H     H_    0.680563 0.851627 0.724222 0.205319
C70   C     C_3   0.659919 0.759846 0.760695 -0.876138
H28   H     H_    0.633519 0.755246 0.625860 0.232471
H29   H     H_    0.624141 0.768426 0.881680 0.244897
H30   H     H_    0.685672 0.718434 0.790285 0.250550
F1    F     F_    0.533508 0.461427 0.781130 -0.653075
F2    F     F_    0.466497 0.961419 0.218778 -0.652993
O23   O     O_3   0.682671 0.290537 0.672203 -0.566812
C71   C     C_3   0.693579 0.322610 0.498105 0.052555
H31   H     H_    0.667763 0.365044 0.501099 0.134625
H32   H     H_    0.677214 0.298174 0.371191 0.127628
C72   C     C_3   0.765941 0.335704 0.469106 -0.291130
H33   H     H_    0.781422 0.363937 0.588897 0.204992
H34   H     H_    0.794219 0.294421 0.471909 0.201167
C73   C     C_3   0.781047 0.366729 0.277531 -0.808341
H35   H     H_    0.767173 0.338697 0.155413 0.239641
H36   H     H_    0.833765 0.375846 0.261405 0.239070
H37   H     H_    0.754399 0.408874 0.272680 0.233026
O24   O     O_3   0.317328 0.790532 0.327802 -0.566814
C74   C     C_3   0.306425 0.822619 0.501872 0.052573
H38   H     H_    0.332218 0.865065 0.498784 0.134721
H39   H     H_    0.322818 0.798205 0.628799 0.127559
C75   C     C_3   0.234060 0.835688 0.530949 -0.291155
H40   H     H_    0.218520 0.863818 0.410977 0.205093
H41   H     H_    0.205808 0.794384 0.528577 0.201072
C76   C     C_3   0.218990 0.866853 0.722291 -0.808348
H42   H     H_    0.232998 0.838957 0.844590 0.239661
H43   H     H_    0.166257 0.875883 0.738599 0.239075
H44   H     H_    0.245547 0.909055 0.726591 0.233003
F3    F     F_    0.469220 0.041051 0.860091 -0.648169
F4    F     F_    0.530779 0.541052 0.139906 -0.648225
O25   O     O_3   0.361944 0.112799 0.833809 -0.559438
C77   C     C_3   0.343745 0.078804 0.674470 0.139447
H45   H     H_    0.302300 0.050891 0.724567 0.146817
H46   H     H_    0.382614 0.048337 0.620715 0.170570
C78   C     C_3   0.321938 0.117772 0.509571 -0.411374
H47   H     H_    0.282868 0.147674 0.564419 0.206960
H48   H     H_    0.363371 0.144617 0.452971 0.206692
C79   C     C_3   0.297244 0.081168 0.344483 -0.728299
H49   H     H_    0.336224 0.052011 0.284674 0.275114
H50   H     H_    0.281723 0.110457 0.227751 0.245653
H51   H     H_    0.255167 0.054223 0.395755 0.218597
O26   O     O_3   0.638059 0.612786 0.166429 -0.559462
C80   C     C_3   0.656216 0.578759 0.325742 0.139446
H52   H     H_    0.697665 0.550847 0.275671 0.146804
H53   H     H_    0.617331 0.548287 0.379362 0.170628
C81   C     C_3   0.677992 0.617691 0.490768 -0.411412
H54   H     H_    0.717090 0.647586 0.436067 0.206956
H55   H     H_    0.636558 0.644546 0.547314 0.206717
C82   C     C_3   0.702623 0.581049 0.655856 -0.728252
H56   H     H_    0.663615 0.551897 0.715518 0.275210
H57   H     H_    0.718125 0.610309 0.772686 0.245729
H58   H     H_    0.744699 0.554096 0.604635 0.218573
O27   O     O_3   0.663244 0.168497 0.646176 -0.600779
C83   C     C_3   0.692328 0.176754 0.458797 0.112688
H59   H     H_    0.722669 0.138245 0.422693 0.205484
H60   H     H_    0.727611 0.212802 0.460579 0.150351
C84   C     C_3   0.644593 0.182870 0.295512 -0.407936
H61   H     H_    0.617830 0.141212 0.277919 0.213322
H62   H     H_    0.607984 0.217409 0.327922 0.169332
C85   C     C_3   0.680330 0.199530 0.106695 -0.651479
H63   H     H_    0.648337 0.227932 0.025507 0.212654
H64   H     H_    0.692874 0.159851 0.021374 0.267444
H65   H     H_    0.724983 0.225109 0.129512 0.238727
O28   O     O_3   0.336756 0.668495 0.353840 -0.600779
C86   C     C_3   0.307675 0.676754 0.541221 0.112724
H66   H     H_    0.277332 0.638247 0.577332 0.205492
H67   H     H_    0.272397 0.712805 0.539437 0.150343
C87   C     C_3   0.355412 0.682873 0.704500 -0.407938
H68   H     H_    0.382172 0.641214 0.722106 0.213319
H69   H     H_    0.392022 0.717410 0.672076 0.169340
C88   C     C_3   0.319678 0.699542 0.893312 -0.651473
H70   H     H_    0.351677 0.727939 0.974493 0.212642
H71   H     H_    0.307125 0.659866 0.978641 0.267447
H72   H     H_    0.275031 0.725130 0.870489 0.238738
F5    F     F_    0.815645 0.142071 0.073162 -0.660213
F6    F     F_    0.184369 0.642076 0.926830 -0.660218
F7    F     F_    0.854109 0.084239 0.409126 -0.625475
F8    F     F_    0.145893 0.584253 0.590869 -0.625476
F9    F     F_    0.145461 0.411835 0.084887 -0.623845
F10   F     F_    0.854528 0.911835 0.915082 -0.623813
F11   F     F_    0.089259 0.283122 0.442995 -0.689914
F12   F     F_    0.910799 0.783169 0.557009 -0.689847

loop_
_geom_bond_atom_site_label_1
_geom_bond_atom_site_label_2
_ccdc_geom_bond_type
C34   H2    S    
C47   C51   A    
C82   H56   S    
C52   C60   A    
C78   H47   S    
O11   V3    S    
C60   H14   S    
O13   V3    S    
C76   H42   S    
O4    C2    A    
V1    O19   S    
C41   F3    S    
C67   H22   S    
C39   C59   A    
C4    C63   S    
C15   C17   A    
C38   C62   A    
C7    C9    S    
C82   H57   S    
O9    V1    S    
C80   H52   S    
C49   C63   A    
O26   C80   S    
C76   H43   S    
C48   C50   A    
C22   H6    S    
O3    C1    A    
C68   H25   S    
C2    C35   S    
C25   F7    S    
C42   C44   A    
C62   F2    S    
C70   H29   S    
C43   O25   S    
C65   H17   S    
C40   C62   A    
C39   C61   A    
C38   C54   A    
O22   C68   S    
C21   C23   A    
O7    C3    A    
C85   H63   S    
C44   O26   S    
C86   C87   S    
C50   C58   A    
C87   C88   S    
O13   V1    S    
O5    C7    A    
C21   H5    S    
C49   C57   A    
O7    V1    S    
C83   C84   S    
C15   C31   S    
O8    V2    S    
C25   C27   A    
C51   C59   A    
C19   F9    S    
C72   C73   S    
C26   C28   A    
O3    V1    S    
O14   V4    S    
V4    O20   S    
C50   C64   A    
C77   H46   S    
C69   C70   S    
C61   F1    S    
C84   C85   S    
C81   H55   S    
C8    C10   S    
C80   H53   S    
C14   F12   S    
C20   F10   S    
C17   C19   A    
O10   V2    S    
C74   H38   S    
C18   C20   A    
C75   C76   S    
C56   C58   A    
C67   H21   S    
C45   C47   A    
C28   C30   A    
C24   C36   A    
C81   C82   S    
O15   C5    A    
O17   V3    S    
C82   H58   S    
C22   C24   A    
C23   C35   A    
C42   F4    S    
C9    C19   A    
C79   H51   S    
C58   O28   S    
C70   H28   S    
C76   H44   S    
C10   C20   A    
O24   C74   S    
C77   C78   S    
C38   H12   S    
O8    C4    A    
C68   C69   S    
C37   H11   S    
C26   F8    S    
C6    C40   S    
C70   H30   S    
C1    O11   A    
C88   H71   S    
C32   H8    S    
O15   V3    S    
C57   O27   S    
C74   C75   S    
C45   H15   S    
C24   F6    S    
C27   C29   A    
C85   H65   S    
C73   H37   S    
C78   H48   S    
C71   H32   S    
C87   H68   S    
C11   O21   S    
C55   C57   A    
C37   C61   A    
C54   C56   A    
O27   C83   S    
C37   C53   A    
V3    O19   S    
C88   H72   S    
C22   C30   A    
O1    V3    S    
C13   F11   S    
C41   C43   A    
C16   C32   S    
C77   H45   S    
O5    V1    S    
C75   H41   S    
C81   H54   S    
C47   C49   A    
C52   C54   A    
O18   V4    S    
C78   C79   S    
C46   C48   A    
C31   C33   D    
C42   C64   A    
C72   H33   S    
C30   C34   S    
O16   C6    A    
C66   C67   S    
C71   C72   S    
C53   C55   A    
C17   H3    S    
C12   C14   A    
C56   O24   S    
C18   H4    S    
C1    C36   S    
C69   H26   S    
C69   H27   S    
C73   H36   S    
C43   C45   A    
O23   C71   S    
V2    O20   S    
C83   H59   S    
C29   C33   S    
O16   V4    S    
C11   C13   A    
C87   H69   S    
C23   F5    S    
C48   C52   A    
C5    C39   S    
C16   C18   A    
C31   H7    S    
C33   H1    S    
C80   C81   S    
C55   O23   S    
O17   C7    A    
O6    V2    S    
O21   C65   S    
O10   C6    A    
O18   C8    A    
C25   C35   A    
O2    V4    S    
C26   C36   A    
C79   H49   S    
C3    C64   S    
C74   H39   S    
C71   H31   S    
O28   C86   S    
C86   H66   S    
C13   C15   A    
C68   H24   S    
C40   C60   A    
C14   C16   A    
C65   H18   S    
C66   H20   S    
O9    C5    A    
C9    C11   A    
C44   C46   A    
C32   C34   D    
C41   C63   A    
O14   V2    S    
O2    C4    A    
C85   H64   S    
C86   H67   S    
C28   H10   S    
C21   C29   A    
C84   H61   S    
O4    V2    S    
O6    C8    A    
C75   H40   S    
O1    C3    A    
C10   C12   A    
C2    O12   A    
C88   H70   S    
C72   H34   S    
C51   C53   A    
C46   H16   S    
C73   H35   S    
C27   H9    S    
O25   C77   S    
C66   H19   S    
O12   V4    S    
C67   H23   S    
C59   H13   S    
C79   H50   S    
C83   H60   S    
C84   H62   S    
C65   C66   S    
C12   O22   S    
