data_mof_unit_18567.cif
_audit_creation_date              2013-03-05T15:40:35-0500
_audit_creation_method            fapswitch 2.2
_symmetry_space_group_name_H-M    P1
_symmetry_Int_Tables_number       1
_space_group_crystal_system       triclinic
_cell_length_a                    7.918841
_cell_length_b                    8.556294
_cell_length_c                    10.560827
_cell_angle_alpha                 91.688968
_cell_angle_beta                  83.940019
_cell_angle_gamma                 93.954019
_cell_volume                      709.688686692

loop_
_atom_site_label
_atom_site_type_symbol
_atom_site_description
_atom_site_fract_x
_atom_site_fract_y
_atom_site_fract_z
_atom_type_partial_charge
O1    O     O_R   0.389250 0.738570 0.508280 -0.607431
O2    O     O_R   0.610750 0.261430 0.491720 -0.597031
O3    O     O_R   0.678390 0.711630 0.486650 -0.656841
O4    O     O_R   0.321610 0.288370 0.513350 -0.655896
C1    C     C_R   0.545466 0.794179 0.496822 0.938334
C2    C     C_R   0.454523 0.205830 0.503485 0.997903
O5    O     O_R   0.355430 0.513480 0.694040 -0.621042
O6    O     O_R   0.644570 0.486520 0.305960 -0.614779
O7    O     O_R   0.644570 0.486540 0.672410 -0.635225
O8    O     O_R   0.355430 0.513460 0.327590 -0.645073
C3    C     C_R   0.504117 0.522561 0.739575 0.868300
C4    C     C_R   0.495930 0.477976 0.260313 0.920243
Zn1   Zn    Zn3+2 0.306940 0.517990 0.514440 0.952208
Zn2   Zn    Zn3+2 0.693060 0.482010 0.485560 0.952746
H1    H     H_    0.041532 0.447982 0.834002 0.186768
H2    H     H_    0.958041 0.554832 0.166224 0.181087
C5    C     C_R   0.226269 0.652325 0.925806 -0.025048
C6    C     C_R   0.774636 0.349231 0.074185 -0.020825
C7    C     C_R   0.059061 0.612213 0.981824 -0.101591
C8    C     C_R   0.941233 0.390653 0.018422 -0.211882
C9    C     C_R   0.034485 0.507212 0.083717 -0.150820
C10   C     C_R   0.965406 0.495666 0.916636 -0.106148
C11   C     C_R   0.177330 0.456859 0.133210 -0.177359
C12   C     C_R   0.822295 0.545640 0.867254 -0.179780
C13   C     C_R   0.340988 0.486677 0.070826 0.081621
C14   C     C_R   0.658635 0.514210 0.929111 0.064276
C15   C     C_R   0.359228 0.562520 0.954777 -0.016195
C16   C     C_R   0.640306 0.437482 0.044795 0.065970
C17   C     C_R   0.487731 0.448192 0.123662 -0.144681
C18   C     C_R   0.512063 0.552632 0.876184 -0.244112
H3    H     H_    0.992038 0.718642 0.002511 0.187236
H4    H     H_    0.008382 0.284074 0.997950 0.169176
H5    H     H_    0.156205 0.379623 0.213321 0.202617
H6    H     H_    0.842858 0.623002 0.787207 0.209091
C19   C     C_2   0.568850 0.958250 0.495853 -0.337174
C20   C     C_2   0.431113 0.041769 0.504947 -0.312603
H7    H     H_    0.698842 0.009640 0.487849 0.203233
H8    H     H_    0.301117 0.990382 0.512983 0.201867
N1    N     N_2   0.950330 0.457950 0.466250 -0.202701
N2    N     N_2   0.049670 0.542050 0.533750 -0.204589
C21   C     C_2   0.265774 0.798830 0.852778 0.503792
H9    H     H_    0.392416 0.825333 0.805372 0.037355
O9    O     O_2   0.159097 0.894446 0.848447 -0.558218
C22   C     C_2   0.743100 0.201542 0.146476 0.458642
H10   H     H_    0.849431 0.134366 0.163327 0.113561
O10   O     O_2   0.599287 0.149881 0.183286 -0.595246
C23   C     C_2   0.981391 0.297225 0.466348 0.647831
H11   H     H_    0.017322 0.245243 0.551297 0.051937
O11   O     O_2   0.958193 0.213681 0.373652 -0.662019
C24   C     C_2   0.018672 0.702709 0.533048 0.647368
H12   H     H_    0.983743 0.754423 0.447622 0.037155
O12   O     O_2   0.040217 0.786387 0.625953 -0.596007

loop_
_geom_bond_atom_site_label_1
_geom_bond_atom_site_label_2
_geom_bond_distance
_ccdc_geom_bond_type
C24   O12   1.217152 D    
O7    Zn2   1.969869 S    
H2    C9    1.092429 S    
C6    C22   1.488345 S    
C4    C17   1.465483 S    
C13   C15   1.393057 A    
C21   O9    1.220939 D    
C21   H9    1.084950 S    
C14   C16   1.393322 A    
C19   C20   1.338239 D    
O6    C4    1.314936 A    
C7    H3    1.090471 S    
C20   H8    1.086996 S    
C24   H12   1.085964 S    
C23   O11   1.217240 D    
C22   H10   1.084185 S    
C15   C18   1.399544 A    
O5    C3    1.314674 A    
O7    C3    1.304982 A    
O2    C2    1.289233 A    
O3    Zn2   1.975733 S    
O8    C4    1.304544 A    
N2    C24   1.413323 S    
C1    C19   1.403478 S    
C10   C12   1.394233 A    
N1    C23   1.413681 S    
C16   C17   1.400079 A    
C19   H7    1.086981 S    
C2    C20   1.403540 S    
C14   C18   1.402901 A    
C6    C8    1.413024 A    
C11   C13   1.400976 A    
C9    C11   1.394152 A    
C13   C17   1.403786 A    
O2    Zn2   1.954426 S    
O1    C1    1.289168 A    
C5    C21   1.488625 S    
O1    Zn1   1.954426 S    
C8    C10   1.410415 A    
C5    C15   1.409268 A    
O5    Zn1   1.976521 S    
C7    C10   1.408463 A    
C6    C16   1.411503 A    
C8    C9    1.407436 A    
C11   H5    1.080893 S    
O4    C2    1.300940 A    
C8    H4    1.091817 S    
N1    N2    1.286425 D    
Zn1   N2    2.049909 S    
O6    Zn2   1.976521 S    
C22   O10   1.220940 D    
O4    Zn1   1.975733 S    
C5    C7    1.415945 A    
Zn2   N1    2.049909 S    
C7    C9    1.411255 A    
H1    C10   1.092378 S    
C12   H6    1.080904 S    
C23   H11   1.085582 S    
C3    C18   1.465130 S    
C12   C14   1.400792 A    
O3    C1    1.300990 A    
O8    Zn1   1.969869 S    
