data_mof_unit_68445.cif
_audit_creation_date              2012-12-10T19:46:25-0500
_audit_creation_method            fapswitch 2.2
_symmetry_space_group_name_H-M    P1
_symmetry_Int_Tables_number       1
_space_group_crystal_system       triclinic
_cell_length_a                    10.867402
_cell_length_b                    10.933879
_cell_length_c                    10.413915
_cell_angle_alpha                 90.964854
_cell_angle_beta                  91.640566
_cell_angle_gamma                 90.099286
_cell_volume                      1236.72551396

loop_
_atom_site_label
_atom_site_type_symbol
_atom_type_description
_atom_site_fract_x
_atom_site_fract_y
_atom_site_fract_z
_atom_type_partial_charge
C1    C     C_R   0.504123 0.261464 0.498807 0.892188
C2    C     C_R   0.690844 0.855513 0.782089 0.043518
C3    C     C_R   0.431199 0.119006 0.262673 0.128596
C4    C     C_R   0.568800 0.880994 0.737327 0.128597
C5    C     C_R   0.530269 0.137740 0.181394 -0.114230
C6    C     C_R   0.469729 0.862260 0.818605 -0.114233
C7    C     C_R   0.510184 0.180428 0.057405 -0.097670
C8    C     C_R   0.489813 0.819571 0.942594 -0.097671
C9    C     C_R   0.390726 0.201802 0.011357 -0.123033
C10   C     C_R   0.609271 0.798199 0.988644 -0.123027
C11   C     C_R   0.448665 0.934100 0.394112 0.358189
C12   C     C_R   0.495877 0.738536 0.501193 0.892195
C13   C     C_R   0.551337 0.065900 0.605888 0.358178
C14   C     C_R   0.492813 0.872218 0.503719 -0.201147
C15   C     C_R   0.507188 0.127782 0.496281 -0.201152
C16   C     C_R   0.261391 0.501241 0.497920 0.824872
C17   C     C_R   0.738609 0.498760 0.502080 0.824876
C18   C     C_R   0.540260 0.939069 0.611877 -0.071573
C19   C     C_R   0.459741 0.060931 0.388123 -0.071570
C20   C     C_1   0.500033 0.500035 0.071911 0.083376
C21   C     C_1   0.499967 0.499965 0.928089 0.083373
C22   C     C_R   0.131581 0.707701 0.083853 -0.120798
C23   C     C_R   0.872093 0.499615 0.505301 -0.037591
C24   C     C_R   0.868430 0.292301 0.916147 -0.120803
C25   C     C_R   0.099190 0.685536 0.211424 0.015459
C26   C     C_R   0.900817 0.314466 0.788576 0.015452
C27   C     C_R   0.107636 0.564637 0.258650 0.040233
C28   C     C_R   0.892366 0.435365 0.741350 0.040237
C29   C     C_R   0.146109 0.469938 0.176407 -0.098809
C30   C     C_R   0.853892 0.530062 0.823595 -0.098805
C31   C     C_R   0.178298 0.493933 0.050436 -0.128480
C32   C     C_R   0.821709 0.506067 0.949567 -0.128483
C33   C     C_R   0.171247 0.612591 0.004342 -0.146418
C34   C     C_R   0.127907 0.500388 0.494699 -0.037591
C35   C     C_R   0.828765 0.387410 0.995660 -0.146415
C36   C     C_R   0.929564 0.530002 0.391491 -0.205605
C37   C     C_R   0.070436 0.470002 0.608509 -0.205607
C38   C     C_2   0.056561 0.789642 0.292006 0.886489
C39   C     C_2   0.943439 0.210362 0.707990 0.886509
C40   C     C_2   0.199540 0.131103 0.299451 0.850943
C41   C     C_2   0.800460 0.868897 0.700551 0.850944
C42   C     C_R   0.943467 0.468950 0.615796 0.043212
C43   C     C_R   0.056533 0.531054 0.384204 0.043212
C44   C     C_R   0.291043 0.183637 0.090557 -0.207394
C45   C     C_R   0.708955 0.816364 0.909445 -0.207394
C46   C     C_R   0.309155 0.144488 0.217912 0.043515
Cl1   Cl    Cl    0.371016 0.855643 0.264668 -0.661649
Cl2   Cl    Cl    0.628987 0.144357 0.735332 -0.661646
Cu1   Cu    Cu3+1 0.500000 0.500000 0.625300 1.012944
Cu2   Cu    Cu3+1 0.500000 0.500000 0.374700 1.012945
H1    H     H_    0.195959 0.630857 0.906510 0.146736
H2    H     H_    0.851430 0.623075 0.790320 0.147318
H3    H     H_    0.207391 0.420356 0.987673 0.125456
H4    H     H_    0.792615 0.579643 0.012330 0.125457
H5    H     H_    0.875289 0.553902 0.306502 0.145198
H6    H     H_    0.124712 0.446102 0.693499 0.145198
H7    H     H_    0.375274 0.233331 0.914243 0.169294
H8    H     H_    0.624722 0.766669 0.085758 0.169296
H9    H     H_    0.199389 0.201248 0.051855 0.181485
H10   H     H_    0.800608 0.798752 0.948147 0.181485
H11   H     H_    0.044067 0.866592 0.468250 0.351141
H12   H     H_    0.804055 0.369143 0.093492 0.146739
H13   H     H_    0.955928 0.133409 0.531751 0.351138
H14   H     H_    0.014033 0.133022 0.308611 0.354866
H15   H     H_    0.985965 0.866990 0.691392 0.354866
H16   H     H_    0.623577 0.118099 0.214197 0.145127
H17   H     H_    0.376422 0.881900 0.785802 0.145127
H18   H     H_    0.587616 0.196086 0.996950 0.191273
H19   H     H_    0.412380 0.803912 0.003048 0.191270
H20   H     H_    0.126811 0.799188 0.045689 0.190526
H21   H     H_    0.873203 0.200814 0.954310 0.190533
H22   H     H_    0.148567 0.376926 0.209681 0.147329
N1    N     N_1   0.500010 0.499990 0.186410 -0.135396
N2    N     N_1   0.499990 0.500010 0.813590 -0.135397
O1    O     O_R   0.499990 0.319650 0.605810 -0.524375
O2    O     O_R   0.074615 0.788921 0.425421 -0.750533
O3    O     O_2   0.992592 0.122280 0.758792 -0.576131
O4    O     O_R   0.925389 0.211085 0.574580 -0.750543
O5    O     O_2   0.211439 0.113022 0.414668 -0.602423
O6    O     O_R   0.081308 0.141775 0.244019 -0.753100
O7    O     O_2   0.788562 0.886960 0.585330 -0.602435
O8    O     O_R   0.918691 0.858242 0.755986 -0.753082
O9    O     O_R   0.500010 0.680350 0.394190 -0.524375
O10   O     O_R   0.499990 0.319640 0.394190 -0.602778
O11   O     O_R   0.500010 0.680360 0.605810 -0.602778
O12   O     O_R   0.319640 0.500010 0.605810 -0.597838
O13   O     O_R   0.680360 0.499990 0.394190 -0.597837
O14   O     O_R   0.319650 0.500010 0.394190 -0.571482
O15   O     O_R   0.680350 0.499990 0.605810 -0.571482
O16   O     O_2   0.007399 0.877720 0.241200 -0.576130

loop_
_geom_bond_atom_site_label_1
_geom_bond_atom_site_label_2
_ccdc_geom_bond_type
C45   H10   S    
C27   C29   A    
C34   C37   A    
C14   C18   A    
C11   Cl1   S    
Cu2   O10   S    
C38   O2    S    
C1    O10   A    
C15   C19   A    
C11   C19   A    
C8    H19   S    
C17   C23   S    
C23   C42   A    
C12   O11   A    
C39   O3    D    
C10   H8    S    
C24   C26   A    
C11   C14   A    
C26   C39   S    
C40   O6    S    
C41   O8    S    
C44   H9    S    
C37   C42   A    
C16   C34   S    
C7    H18   S    
C37   H6    S    
C22   C25   A    
Cu1   O1    S    
C3    C19   S    
C1    C15   S    
Cu2   O14   S    
C29   H22   S    
C4    C18   S    
C2    C45   A    
C16   O12   A    
H14   O6    S    
C32   H4    S    
C44   C46   A    
Cu2   O9    S    
H11   O2    S    
C24   C35   A    
C1    O1    A    
C39   O4    S    
Cu1   O11   S    
C17   O15   A    
C4    C6    A    
Cu2   N1    S    
C5    C7    A    
C6    C8    A    
C21   N2    T    
C12   O9    A    
C40   C46   S    
C32   C35   A    
C25   C38   S    
C41   O7    D    
C10   C45   A    
C31   C33   A    
C40   O5    D    
C31   H3    S    
Cu2   O13   S    
C13   C18   A    
C6    H17   S    
C12   C14   S    
C23   C36   A    
C13   C15   A    
C25   C27   A    
C7    C9    A    
C22   C33   A    
C30   H2    S    
C9    C44   A    
C17   O13   A    
Cu1   O12   S    
C34   C43   A    
Cu1   O15   S    
C5    H16   S    
C3    C5    A    
C13   Cl2   S    
C33   H1    S    
C38   O16   D    
C3    C46   A    
C26   C28   A    
C28   C30   A    
C29   C31   A    
C36   H5    S    
C30   C32   A    
H15   O8    S    
C2    C4    A    
C28   C42   S    
C20   N1    T    
C35   H12   S    
C9    H7    S    
C27   C43   S    
C20   C21   S    
C8    C10   A    
Cu1   Cu2   S    
C16   O14   A    
Cu1   N2    S    
C36   C43   A    
C2    C41   S    
C22   H20   S    
C24   H21   S    
H13   O4    S    
