data_mof_unit_39790.cif
_audit_creation_date              2012-12-10T19:44:28-0500
_audit_creation_method            fapswitch 2.2
_symmetry_space_group_name_H-M    P1
_symmetry_Int_Tables_number       1
_space_group_crystal_system       triclinic
_cell_length_a                    10.766427
_cell_length_b                    12.340029
_cell_length_c                    13.153458
_cell_angle_alpha                 117.327941
_cell_angle_beta                  77.378207
_cell_angle_gamma                 101.355846
_cell_volume                      1505.55514437

loop_
_atom_site_label
_atom_site_type_symbol
_atom_type_description
_atom_site_fract_x
_atom_site_fract_y
_atom_site_fract_z
_atom_type_partial_charge
C1    C     C_R   0.513044 0.854396 0.286049 0.780170
C2    C     C_R   0.623739 0.987891 0.871302 -0.105468
C3    C     C_R   0.039336 0.979094 0.583345 -0.240336
C4    C     C_R   0.129161 0.999739 0.497722 -0.073072
C5    C     C_R   0.090441 0.025659 0.416149 -0.003733
C6    C     C_R   0.960852 0.025067 0.418806 -0.246985
C7    C     C_R   0.871004 0.001857 0.502858 -0.071059
C8    C     C_R   0.910151 0.982865 0.588254 0.003164
C9    C     C_R   0.216634 0.177756 0.346981 -0.129370
C10   C     C_R   0.311495 0.207139 0.269423 -0.137056
C11   C     C_R   0.371667 0.114261 0.172429 -0.105338
C12   C     C_R   0.737093 0.000710 0.501255 0.797177
C13   C     C_R   0.337709 0.991642 0.153061 -0.125009
C14   C     C_R   0.244263 0.961908 0.231416 -0.140049
C15   C     C_R   0.183161 0.054972 0.328776 0.124444
C16   C     C_R   0.294337 0.282225 0.011775 -0.200129
C17   C     C_R   0.446813 0.227699 0.835987 -0.046054
C18   C     C_R   0.609312 0.808526 0.084477 -0.254685
C19   C     C_R   0.626223 0.731075 0.967041 -0.166782
C20   C     C_R   0.562481 0.612136 0.924356 0.196616
C21   C     C_R   0.486728 0.567396 0.004011 0.063431
C22   C     C_R   0.452663 0.653326 0.119656 -0.008970
C23   C     C_R   0.480445 0.145322 0.713944 0.805271
C24   C     C_R   0.442836 0.441660 0.974149 0.038058
C25   C     C_R   0.341245 0.407478 0.047144 0.140718
C26   C     C_R   0.289381 0.499251 0.152827 0.147033
C27   C     C_R   0.347828 0.620017 0.189069 -0.196788
C28   C     C_R   0.502215 0.348542 0.876131 -0.249062
C29   C     C_R   0.344703 0.193499 0.905475 -0.212706
C30   C     C_R   0.521885 0.771723 0.161675 -0.089885
C31   C     C_R   0.703410 0.344037 0.326258 -0.310474
C32   C     C_R   0.326947 0.760959 0.646403 0.078599
C33   C     C_R   0.288166 0.664481 0.677511 -0.263576
C34   C     C_R   0.262900 0.999648 0.498939 0.784545
C35   C     C_R   0.352174 0.559798 0.621238 -0.210108
C36   C     C_R   0.457258 0.550860 0.533360 -0.014347
C37   C     C_R   0.493173 0.652090 0.504148 0.285663
C38   C     C_R   0.528258 0.446125 0.473875 -0.041492
C39   C     C_R   0.632176 0.444632 0.386060 0.172856
C40   C     C_R   0.665010 0.543682 0.358566 -0.291242
C41   C     C_R   0.597479 0.645175 0.416576 -0.193957
C42   C     C_R   0.501590 0.342143 0.497496 0.034720
C43   C     C_R   0.672505 0.245222 0.353928 0.079428
C44   C     C_R   0.699581 0.096177 0.878341 -0.143399
C45   C     C_R   0.796543 0.093642 0.787377 -0.172707
C46   C     C_R   0.819406 0.982138 0.689933 0.103804
C47   C     C_R   0.745674 0.873167 0.685142 -0.093991
C48   C     C_R   0.646109 0.877015 0.774463 -0.126502
Cu1   Cu    Cu3+1 0.529370 0.098270 0.475420 0.938787
Cu2   Cu    Cu3+1 0.470630 0.901730 0.524580 0.924302
H1    H     H_    0.546759 0.989667 0.940014 0.114612
H2    H     H_    0.445003 0.137848 0.112933 0.123325
H3    H     H_    0.384676 0.919736 0.078088 0.132266
H4    H     H_    0.220555 0.866972 0.217063 0.109212
H5    H     H_    0.300849 0.099335 0.875842 0.143584
H6    H     H_    0.216235 0.252178 0.063713 0.153810
H7    H     H_    0.590572 0.368606 0.827392 0.165380
H8    H     H_    0.663314 0.898687 0.114749 0.157988
H9    H     H_    0.688495 0.764764 0.908600 0.153812
H10   H     H_    0.681317 0.182329 0.952937 0.131834
H11   H     H_    0.307295 0.688974 0.270649 0.170318
H12   H     H_    0.726984 0.167148 0.308079 0.115493
H13   H     H_    0.744635 0.543216 0.291697 0.153761
H14   H     H_    0.782741 0.342047 0.258766 0.134380
H15   H     H_    0.424139 0.335020 0.562299 0.120653
H16   H     H_    0.276634 0.841831 0.690424 0.119281
H17   H     H_    0.317822 0.487805 0.648603 0.139010
H18   H     H_    0.631239 0.716670 0.390059 0.208230
H19   H     H_    0.851732 0.178675 0.791504 0.126371
H20   H     H_    0.760817 0.786819 0.609734 0.128866
H21   H     H_    0.070478 0.965336 0.649253 0.142456
H22   H     H_    0.929880 0.042237 0.354863 0.144451
H23   H     H_    0.171843 0.250701 0.422762 0.122861
H24   H     H_    0.339717 0.302004 0.285217 0.137217
N1    N     N_R   0.573890 0.246290 0.438210 -0.173875
N2    N     N_R   0.426890 0.754320 0.561170 -0.202142
O1    O     O_R   0.536940 0.972510 0.318130 -0.572070
O2    O     O_R   0.487330 0.806530 0.359650 -0.599655
O3    O     O_R   0.705160 0.082990 0.479250 -0.585077
O4    O     O_R   0.655550 0.917010 0.520760 -0.593622
O5    O     O_R   0.512670 0.193470 0.640350 -0.585201
O6    O     O_R   0.463060 0.027490 0.681870 -0.576269
O7    O     O_R   0.344450 0.082990 0.479240 -0.569707
O8    O     O_R   0.294840 0.917010 0.520750 -0.595317
C49   C     C_3   0.173911 0.470964 0.229161 -0.895815
H25   H     H_    0.195187 0.406667 0.258752 0.229599
H26   H     H_    0.145095 0.554838 0.307300 0.238455
H27   H     H_    0.091390 0.429191 0.180311 0.227025
C50   C     C_3   0.563048 0.545998 0.794931 -0.907486
H28   H     H_    0.655724 0.508204 0.750607 0.235043
H29   H     H_    0.481573 0.473118 0.770698 0.241586
H30   H     H_    0.550486 0.610107 0.761762 0.231615
H31   H     H_    0.208124 0.670794 0.745370 0.144852
H32   H     H_    0.584374 0.794685 0.767703 0.124433

loop_
_geom_bond_atom_site_label_1
_geom_bond_atom_site_label_2
_ccdc_geom_bond_type
C23   O6    A    
C1    O1    A    
C35   C36   A    
Cu2   O8    S    
C7    C8    A    
C45   C46   A    
C6    H22   S    
C42   N1    A    
C17   C23   S    
C40   H13   S    
C31   C43   A    
C36   C37   A    
C38   C42   A    
C49   H25   S    
C38   C39   A    
C34   O8    A    
C12   O3    A    
C11   C13   A    
C17   C29   A    
C18   C19   A    
Cu1   O5    S    
C11   H2    S    
C27   H11   S    
C18   H8    S    
C19   C20   A    
C2    C44   A    
C42   H15   S    
Cu1   N1    S    
C18   C30   A    
C50   H29   S    
C23   O5    A    
C9    C10   A    
C21   C22   A    
C37   C41   A    
C1    O2    A    
C9    H23   S    
Cu2   O2    S    
C41   H18   S    
C13   H3    S    
C49   H26   S    
C43   N1    A    
C7    C12   S    
C4    C34   S    
C45   H19   S    
C24   C25   A    
C3    C8    A    
C10   C11   A    
C39   C40   A    
C29   H5    S    
C2    C48   A    
C16   C29   A    
C28   H7    S    
Cu1   O3    S    
Cu2   O4    S    
C3    H21   S    
C16   H6    S    
C47   H20   S    
Cu2   N2    S    
C47   C48   A    
C35   H17   S    
C26   C27   A    
C50   H30   S    
C48   H32   S    
C40   C41   A    
C14   H4    S    
C37   N2    A    
C22   C27   A    
C34   O7    A    
C3    C4    A    
C44   C45   A    
Cu2   O6    S    
C32   H16   S    
C49   H27   S    
C16   C25   A    
C46   C47   A    
C22   C30   A    
C17   C28   A    
C31   H14   S    
C24   C28   A    
C4    C5    A    
C33   H31   S    
C32   N2    A    
C6    C7    A    
C20   C50   S    
C19   H9    S    
C32   C33   A    
Cu1   O7    S    
C36   C38   A    
C25   C26   A    
C10   H24   S    
C5    C6    A    
C44   H10   S    
C26   C49   S    
C12   O4    A    
C1    C30   S    
C33   C35   A    
Cu1   O1    S    
C9    C15   A    
C8    C46   S    
C5    C15   S    
C2    H1    S    
C20   C21   A    
Cu1   Cu2   S    
C21   C24   A    
C31   C39   A    
C14   C15   A    
C50   H28   S    
C13   C14   A    
C43   H12   S    
