data_mof_unit_14695.cif
_audit_creation_date              2012-12-11T17:41:42-0500
_audit_creation_method            fapswitch 2.2
_symmetry_space_group_name_H-M    P1
_symmetry_Int_Tables_number       1
_space_group_crystal_system       triclinic
_cell_length_a                    15.624973
_cell_length_b                    15.073649
_cell_length_c                    14.972938
_cell_angle_alpha                 109.174145
_cell_angle_beta                  121.655993
_cell_angle_gamma                 59.654099
_cell_volume                      2580.90478279

loop_
_atom_site_label
_atom_site_type_symbol
_atom_type_description
_atom_site_fract_x
_atom_site_fract_y
_atom_site_fract_z
_atom_type_partial_charge
C1    C     C_R   0.800332 0.944948 0.777388 -0.159421
C2    C     C_R   0.193761 0.403519 0.102895 -0.105132
C3    C     C_R   0.743927 0.853665 0.012125 -0.154915
C4    C     C_R   0.296446 0.324751 0.111768 -0.165085
C5    C     C_R   0.720406 0.959433 0.033686 0.100567
C6    C     C_R   0.302001 0.236471 0.040226 0.119018
C7    C     C_R   0.802737 0.991878 0.065375 -0.174228
C8    C     C_R   0.203729 0.226521 0.962246 -0.179258
C9    C     C_R   0.906469 0.919554 0.071898 -0.132469
C10   C     C_R   0.101500 0.304891 0.954391 -0.129607
C11   C     C_R   0.928840 0.814446 0.047256 -0.138300
C12   C     C_R   0.249450 0.005206 0.208444 -0.131469
C13   C     C_R   0.096534 0.393972 0.023522 -0.092261
C14   C     C_R   0.605680 0.060960 0.122833 -0.250284
C15   C     C_R   0.415727 0.144307 0.944307 -0.238172
C16   C     C_R   0.206553 0.277875 0.450617 0.014708
C17   C     C_R   0.786729 0.717198 0.538109 0.009230
C18   C     C_R   0.503680 0.108770 0.125214 0.044108
C19   C     C_R   0.513474 0.073144 0.935737 0.069240
C20   C     C_R   0.408566 0.161500 0.037992 0.030287
C21   C     C_R   0.611683 0.035889 0.028754 0.032345
C22   C     C_2   0.043861 0.357670 0.489164 -0.231910
C23   C     C_R   0.150602 0.278402 0.498774 0.096620
C24   C     C_2   0.923952 0.627835 0.463696 -0.213389
C25   C     C_2   0.033589 0.453051 0.501929 -0.065208
C26   C     C_2   0.928106 0.534925 0.451671 -0.080679
C27   C     C_2   0.976142 0.969090 0.849268 -0.227487
C28   C     C_2   0.168703 0.873778 0.097980 -0.235093
C29   C     C_R   0.176083 0.747912 0.519880 -0.127079
C30   C     C_R   0.797495 0.163958 0.346620 -0.125222
C31   C     C_R   0.275702 0.673500 0.517100 -0.160442
C32   C     C_R   0.697277 0.240831 0.346555 -0.152297
C33   C     C_R   0.285632 0.645357 0.422673 0.116878
C34   C     C_R   0.828788 0.713102 0.473634 0.091837
C35   C     C_R   0.696428 0.310233 0.436051 0.115888
C36   C     C_R   0.194156 0.690930 0.330644 -0.210937
C37   C     C_R   0.797279 0.300235 0.525858 -0.181791
C38   C     C_R   0.095140 0.766278 0.334257 -0.146190
C39   C     C_R   0.896949 0.222657 0.525813 -0.127865
C40   C     C_R   0.592183 0.215675 0.486110 -0.127778
C41   C     C_R   0.405016 0.774464 0.484019 -0.139898
C42   C     C_R   0.086050 0.794599 0.428668 -0.102834
C43   C     C_R   0.897083 0.154735 0.436127 -0.099535
C44   C     C_R   0.393708 0.469527 0.376217 -0.251470
C45   C     C_R   0.500696 0.294208 0.424794 0.059874
C46   C     C_R   0.586669 0.495297 0.468114 -0.235401
C47   C     C_R   0.495143 0.383109 0.399416 0.041551
C48   C     C_R   0.490104 0.579495 0.469971 0.070743
C49   C     C_R   0.591247 0.396228 0.434246 0.033005
C50   C     C_R   0.390843 0.566317 0.419910 0.032850
C51   C     C_2   0.040943 0.894732 0.915234 -0.129535
C52   C     C_2   0.140687 0.900031 0.006255 -0.098986
C53   C     C_R   0.411606 0.046169 0.734539 -0.121912
C54   C     C_R   0.591176 0.018598 0.287442 -0.115796
C55   C     C_R   0.409767 0.283129 0.404621 -0.135277
C56   C     C_R   0.493876 0.680448 0.509867 0.055472
C57   C     C_R   0.588214 0.698800 0.557831 -0.144129
C58   C     C_R   0.595699 0.976344 0.805910 -0.132519
C59   C     C_R   0.408428 0.090403 0.210895 -0.153389
C60   C     C_R   0.204987 0.185518 0.540148 -0.168222
C61   C     C_R   0.779823 0.808982 0.440085 -0.158037
C62   C     C_R   0.798790 0.037578 0.686714 -0.149513
C63   C     C_R   0.245701 0.914056 0.296744 -0.156894
C64   C     C_R   0.860786 0.987795 0.777512 0.149559
C65   C     C_R   0.221105 0.927567 0.197190 0.151597
C66   C     C_R   0.154110 0.341315 0.364214 0.129257
C67   C     C_R   0.507260 0.035094 0.829840 0.049676
C68   C     C_R   0.082824 0.314952 0.263265 -0.143694
C69   C     C_R   0.013673 0.385566 0.186713 -0.093338
C70   C     C_R   0.015152 0.482735 0.210780 -0.083659
C71   C     C_R   0.088731 0.507818 0.309883 -0.122394
C72   C     C_R   0.158522 0.437334 0.386370 -0.194407
C73   C     C_R   0.856450 0.656246 0.631094 0.130823
C74   C     C_R   0.864748 0.556904 0.623234 -0.171698
C75   C     C_R   0.939059 0.496712 0.708973 -0.094733
C76   C     C_R   0.007989 0.533968 0.802495 -0.095363
C77   C     C_R   0.003651 0.630738 0.809894 -0.125021
C78   C     C_R   0.499789 0.075926 0.204624 0.068735
C79   C     C_R   0.929489 0.690794 0.724060 -0.152409
C80   C     C_R   0.847792 0.781495 0.017983 -0.106035
H1    H     H_    0.830231 0.889497 0.829026 0.112344
H2    H     H_    0.371182 0.334385 0.171124 0.117953
H3    H     H_    0.786217 0.073031 0.084261 0.118633
H4    H     H_    0.206364 0.159165 0.906051 0.108020
H5    H     H_    0.968865 0.945866 0.096333 0.130989
H6    H     H_    0.026073 0.297687 0.893090 0.104084
H7    H     H_    0.681452 0.027222 0.190669 0.123849
H8    H     H_    0.342731 0.183047 0.876585 0.127776
H9    H     H_    0.853218 0.523966 0.420275 0.125655
H10   H     H_    0.106906 0.468754 0.542452 0.128126
H11   H     H_    0.996965 0.640096 0.490160 0.136387
H12   H     H_    0.240386 0.037353 0.147898 0.095207
H13   H     H_    0.973387 0.338812 0.454250 0.147086
H14   H     H_    0.009098 0.852417 0.431025 0.102052
H15   H     H_    0.974387 0.095245 0.435790 0.103449
H16   H     H_    0.168730 0.769549 0.592793 0.112088
H17   H     H_    0.798513 0.112171 0.276979 0.111641
H18   H     H_    0.345092 0.638003 0.588269 0.115410
H19   H     H_    0.620802 0.247863 0.276233 0.118669
H20   H     H_    0.200178 0.669254 0.256980 0.116661
H21   H     H_    0.798583 0.352285 0.596031 0.107525
H22   H     H_    0.025125 0.802267 0.263904 0.138857
H23   H     H_    0.137650 0.824696 0.099909 0.122930
H24   H     H_    0.974136 0.215654 0.595097 0.103192
H25   H     H_    0.317136 0.461699 0.341148 0.131744
H26   H     H_    0.659816 0.505636 0.493680 0.118789
H27   H     H_    0.678005 0.193982 0.510314 0.112539
H28   H     H_    0.319791 0.796027 0.459340 0.125348
H29   H     H_    0.326990 0.085741 0.722837 0.091044
H30   H     H_    0.676265 0.004502 0.317714 0.086037
H31   H     H_    0.327742 0.316423 0.343143 0.117896
H32   H     H_    0.671154 0.646844 0.601434 0.109930
H33   H     H_    0.681339 0.956231 0.855803 0.133296
H34   H     H_    0.006010 0.022131 0.852834 0.130025
H35   H     H_    0.323563 0.140584 0.167072 0.116049
H36   H     H_    0.174710 0.155551 0.568849 0.100176
H37   H     H_    0.802374 0.834951 0.399396 0.106512
H38   H     H_    0.827264 0.066921 0.655273 0.097062
H39   H     H_    0.228237 0.862305 0.313122 0.108757
H40   H     H_    0.173511 0.946946 0.003299 0.127502
H41   H     H_    0.011950 0.841911 0.913125 0.129007
H42   H     H_    0.077203 0.241845 0.245516 0.110130
H43   H     H_    0.957107 0.365932 0.109562 0.104097
H44   H     H_    0.959421 0.538665 0.152673 0.091413
H45   H     H_    0.009176 0.758230 0.052055 0.095937
H46   H     H_    0.089488 0.582902 0.328421 0.144369
H47   H     H_    0.212583 0.459184 0.464067 0.116842
H48   H     H_    0.814836 0.525425 0.550376 0.095177
H49   H     H_    0.944666 0.420487 0.702367 0.101161
H50   H     H_    0.066754 0.486878 0.868254 0.121726
H51   H     H_    0.059822 0.657881 0.881223 0.105225
H52   H     H_    0.932613 0.761938 0.728059 0.119124
H53   H     H_    0.017092 0.456134 0.014437 0.092525
H54   H     H_    0.865579 0.700106 0.000123 0.105594
H55   H     H_    0.189246 0.473082 0.155785 0.107906
H56   H     H_    0.681488 0.827672 0.989584 0.117098
N1    N     N_R   0.705410 0.966550 0.689210 -0.045064
N2    N     N_R   0.556610 0.796750 0.548620 -0.038306
N3    N     N_R   0.556610 0.951620 0.703500 -0.042560
N4    N     N_R   0.443390 0.048380 0.296500 -0.039055
N5    N     N_R   0.294590 0.131500 0.522480 -0.047581
N6    N     N_R   0.705410 0.868500 0.477520 -0.049257
N7    N     N_R   0.705410 0.023370 0.632390 -0.040610
N8    N     N_R   0.294590 0.976630 0.367610 -0.042766
N9    N     N_R   0.294590 0.033450 0.310790 -0.049198
N10   N     N_R   0.294590 0.188320 0.465660 -0.063820
N11   N     N_R   0.705410 0.811680 0.534340 -0.061373
N12   N     N_R   0.556610 0.157790 0.497330 -0.040679
N13   N     N_R   0.443390 0.842210 0.502670 -0.039268
N14   N     N_R   0.443390 0.997080 0.657540 -0.039482
N15   N     N_R   0.556610 0.002920 0.342460 -0.037696
N16   N     N_R   0.443390 0.203250 0.451380 -0.041824
Ni1   Ni    Ni4+2 0.629830 0.882720 0.617850 0.218796
Ni2   Ni    Ni4+2 0.370170 0.117280 0.382150 0.211023
Ni3   Ni    Ni4+2 0.629830 0.013030 0.487540 0.205902
Ni4   Ni    Ni4+2 0.370170 0.986970 0.512460 0.210392

loop_
_geom_bond_atom_site_label_1
_geom_bond_atom_site_label_2
_ccdc_geom_bond_type
C58   N3    A    
C66   C68   A    
C63   C65   A    
C41   H28   S    
C29   C42   A    
C73   C74   A    
C14   C18   A    
C7    H3    S    
C62   N7    A    
C39   H24   S    
C47   C49   A    
C44   H25   S    
C26   H9    S    
C15   C19   A    
C30   H17   S    
C25   H10   S    
C14   C21   A    
C19   C21   A    
N13   Ni4   S    
C24   C26   D    
C14   H7    S    
C38   C42   A    
C31   H18   S    
C57   H32   S    
C41   N13   A    
N3    Ni1   S    
C1    H1    S    
C33   C36   A    
C80   H54   S    
C56   C57   A    
C54   H30   S    
C16   N10   A    
C3    H56   S    
C77   H51   S    
C45   C47   S    
C2    C13   A    
C62   C64   A    
C37   H21   S    
C9    H5    S    
C76   H50   S    
C66   C72   A    
C68   C69   A    
C22   C25   D    
C35   C49   S    
C58   H33   S    
C43   H15   S    
C63   N8    A    
C31   C33   A    
C71   H46   S    
C19   C67   S    
C70   C71   A    
N12   Ni3   S    
N15   Ni3   S    
N6    Ni3   S    
C44   C47   A    
C48   C50   A    
N1    N7    A    
C8    H4    S    
C17   C73   S    
C23   C60   A    
N11   Ni1   S    
C3    C80   A    
C59   C78   A    
C27   C51   D    
C77   C79   A    
N2    N13   A    
C15   C20   A    
C37   C39   A    
C46   C48   A    
C74   C75   A    
C40   N12   A    
C72   H47   S    
C61   H37   S    
C51   C52   S    
C32   C35   A    
C55   N16   A    
C76   C77   A    
C4    C6    A    
C27   C64   S    
C68   H42   S    
C5    C7    A    
C39   C43   A    
C25   C26   S    
C34   C61   A    
C24   C34   S    
C12   N9    A    
N8    Ni4   S    
C2    C4    A    
C75   C76   A    
C41   C56   A    
C70   H44   S    
C60   N5    A    
C63   H39   S    
C61   N6    A    
N7    Ni3   S    
N10   Ni2   S    
C18   C78   S    
C73   C79   A    
C5    C21   S    
C36   H20   S    
C17   N11   A    
C9    C11   A    
N4    N15   A    
N5    N10   A    
C40   H27   S    
N9    Ni2   S    
C52   H40   S    
N2    Ni1   S    
C59   H35   S    
N16   Ni2   S    
C16   C23   A    
C53   N14   A    
C51   H41   S    
C22   H13   S    
C46   C49   A    
C30   C43   A    
C60   H36   S    
C16   C66   S    
C17   C34   A    
C1    C64   A    
C74   H48   S    
C1    N1    A    
C35   C37   A    
C53   H29   S    
C48   C56   S    
N1    Ni1   S    
C55   H31   S    
C42   H14   S    
C13   H53   S    
N6    N11   A    
C12   H12   S    
C8    C10   A    
N12   N16   A    
N8    N9    A    
C3    C5    A    
C10   C13   A    
C29   H16   S    
C6    C8    A    
N5    Ni4   S    
C54   N15   A    
C6    C20   S    
C12   C65   A    
N3    N14   A    
C2    H55   S    
C32   H19   S    
C36   C38   A    
C28   C65   S    
C33   C50   S    
C71   C72   A    
C38   H22   S    
C30   C32   A    
C28   C52   D    
C28   H23   S    
C10   H6    S    
C59   N4    A    
C79   H52   S    
C46   H26   S    
C57   N2    A    
C18   C20   A    
C69   C70   A    
C53   C67   A    
C62   H38   S    
C11   C80   A    
C24   H11   S    
C27   H34   S    
C7    C9    A    
C58   C67   A    
C11   H45   S    
C40   C45   A    
C45   C55   A    
C44   C50   A    
C29   C31   A    
C69   H43   S    
C22   C23   S    
N14   Ni4   S    
C4    H2    S    
C75   H49   S    
N4    Ni2   S    
C15   H8    S    
C54   C78   A    
