data_mof_unit_24669.cif
_audit_creation_date              2012-12-11T16:53:50-0500
_audit_creation_method            fapswitch 2.2
_symmetry_space_group_name_H-M    P1
_symmetry_Int_Tables_number       1
_space_group_crystal_system       triclinic
_cell_length_a                    14.991195
_cell_length_b                    14.748291
_cell_length_c                    17.033225
_cell_angle_alpha                 108.71715
_cell_angle_beta                  106.86706
_cell_angle_gamma                 108.0523
_cell_volume                      3057.39328133

loop_
_atom_site_label
_atom_site_type_symbol
_atom_type_description
_atom_site_fract_x
_atom_site_fract_y
_atom_site_fract_z
_atom_type_partial_charge
C1    C     C_R   0.088573 0.283196 0.071263 -0.075166
C2    C     C_R   0.065378 0.539791 0.265953 -0.105642
C3    C     C_R   0.277289 0.787264 0.177668 -0.149592
C4    C     C_R   0.935511 0.522144 0.748237 -0.146266
C5    C     C_R   0.736986 0.464007 0.046216 -0.108329
C6    C     C_R   0.332244 0.785868 0.257790 0.060471
C7    C     C_R   0.718086 0.547884 0.038759 0.111094
C8    C     C_R   0.973730 0.516397 0.276491 0.054804
C9    C     C_R   0.999728 0.816033 0.963883 0.078039
C10   C     C_R   0.521464 0.645281 0.043519 -0.066129
C11   C     C_R   0.463274 0.570463 0.065565 -0.021770
C12   C     C_R   0.026403 0.583401 0.747452 0.096265
C13   C     C_R   0.512701 0.518094 0.105690 0.555377
C14   C     C_R   0.617352 0.547615 0.127895 -0.322989
C15   C     C_R   0.660386 0.594635 0.079926 0.034309
C16   C     C_R   0.776595 0.200964 0.812569 -0.106171
C17   C     C_R   0.618688 0.656541 0.049477 0.083757
C18   C     C_3   0.601447 0.673402 0.965214 -0.563611
C19   C     C_3   0.494841 0.659697 0.957372 0.380715
C20   C     C_R   0.964281 0.558865 0.362392 0.098618
C21   C     C_R   0.034037 0.625978 0.681711 0.053441
C22   C     C_R   0.139383 0.695534 0.611295 0.461194
C23   C     C_R   0.760505 0.195310 0.726105 0.058298
C24   C     C_R   0.131615 0.683637 0.687099 -0.245500
C25   C     C_R   0.943501 0.596385 0.605935 -0.259409
C26   C     C_R   0.949910 0.601457 0.527852 0.135596
C27   C     C_R   0.048618 0.645496 0.528535 0.020752
C28   C     C_R   0.297004 0.584227 0.995474 -0.112026
C29   C     C_R   0.054229 0.626765 0.445112 -0.187294
C30   C     C_R   0.866206 0.527810 0.363275 -0.155356
C31   C     C_R   0.859091 0.550377 0.446078 -0.164144
C32   C     C_R   0.719052 0.099013 0.639576 0.123380
C33   C     C_R   0.440452 0.859723 0.324777 0.123581
C34   C     C_R   0.353923 0.544665 0.042742 0.012783
C35   C     C_R   0.586155 0.034826 0.396749 -0.205430
C36   C     C_R   0.492816 0.955509 0.322695 -0.171458
C37   C     C_R   0.488931 0.839228 0.396524 -0.222974
C38   C     C_R   0.578431 0.920496 0.473267 0.159595
C39   C     C_R   0.624934 0.020439 0.474726 0.180219
C40   C     C_R   0.783080 0.297910 0.735425 -0.103683
C41   C     C_R   0.699725 0.107945 0.557365 -0.255635
C42   C     C_R   0.682928 0.997221 0.636208 -0.150293
C43   C     C_R   0.614151 0.907595 0.552622 -0.179297
C44   C     C_R   0.093175 0.108812 0.130294 0.117725
C45   C     C_R   0.270982 0.691965 0.255399 -0.081165
C46   C     C_R   0.001808 0.106310 0.075510 0.039879
C47   C     C_R   0.907838 0.023558 0.058223 -0.190972
C48   C     C_R   0.909248 0.952285 0.097891 -0.195191
C49   C     C_R   0.003856 0.960586 0.154972 0.047343
C50   C     C_R   0.093587 0.039800 0.167487 0.168328
C51   C     C_3   0.208632 0.089976 0.217902 -0.494782
C52   C     C_R   0.293933 0.495774 0.079319 0.495188
C53   C     C_3   0.209198 0.168956 0.176697 -0.444030
C54   C     C_R   0.108201 0.604103 0.824815 -0.069532
C55   C     C_R   0.916259 0.199589 0.997034 -0.135739
C56   C     C_R   0.756486 0.571069 0.979609 -0.125365
C57   C     C_R   0.002696 0.188296 0.042455 0.040066
C58   C     C_R   0.892363 0.446608 0.190041 -0.136415
C59   C     C_R   0.084506 0.803280 0.009594 -0.126730
C60   C     C_R   0.914055 0.718897 0.929634 -0.143840
Cl1   Cl    Cl    0.444579 0.389389 0.094082 -0.612576
Cl2   Cl    Cl    0.395365 0.541725 0.854999 -0.616585
Cl3   Cl    Cl    0.264884 0.761494 0.620236 -0.652233
Cl4   Cl    Cl    0.342056 0.501979 0.189415 -0.694953
H1    H     H_    0.758467 0.633848 0.960425 0.106401
H2    H     H_    0.856982 0.503859 0.705832 0.094241
H3    H     H_    0.597430 0.608929 0.906320 0.236895
H4    H     H_    0.484687 0.733405 0.966700 0.055789
H5    H     H_    0.129374 0.656266 0.444677 0.171571
H6    H     H_    0.794869 0.481154 0.300550 0.123068
H7    H     H_    0.731839 0.184760 0.557893 0.120244
H8    H     H_    0.622080 0.110838 0.396616 0.133536
H9    H     H_    0.580723 0.830625 0.551905 0.148666
H10   H     H_    0.459157 0.972541 0.267099 0.121229
H11   H     H_    0.452578 0.764495 0.398042 0.143264
H12   H     H_    0.812739 0.401806 0.175005 0.095109
H13   H     H_    0.833116 0.014377 0.015892 0.130110
H14   H     H_    0.836731 0.891156 0.084929 0.133595
H15   H     H_    0.235810 0.127633 0.293689 0.210172
H16   H     H_    0.242106 0.036146 0.191299 0.191100
H17   H     H_    0.237285 0.251834 0.229482 0.217832
H18   H     H_    0.324924 0.644779 0.974483 0.128562
H19   H     H_    0.243826 0.161427 0.126789 0.224208
H20   H     H_    0.779199 0.324786 0.683257 0.096748
H21   H     H_    0.188767 0.660559 0.852943 0.097027
H22   H     H_    0.836259 0.149386 0.978575 0.097228
H23   H     H_    0.165243 0.859067 0.036984 0.097192
H24   H     H_    0.293429 0.657139 0.299959 0.138899
H25   H     H_    0.166652 0.309092 0.119855 0.166355
H26   H     H_    0.783005 0.519160 0.445320 0.133756
H27   H     H_    0.202699 0.713127 0.747235 0.167652
H28   H     H_    0.867427 0.557027 0.602372 0.127491
H29   H     H_    0.766247 0.136269 0.830977 0.097555
H30   H     H_    0.700625 0.987078 0.698122 0.124292
H31   H     H_    0.836715 0.696247 0.880880 0.104847
H32   H     H_    0.144204 0.588194 0.318406 0.106420
H33   H     H_    0.306526 0.840468 0.150228 0.090098
H34   H     H_    0.706254 0.415896 0.076400 0.109018
H35   H     H_    0.652805 0.507725 0.160453 0.161939
H36   H     H_    0.653441 0.755740 0.981213 0.158614
N1    N     N_R   0.055640 0.348550 0.045600 -0.043826
N2    N     N_R   0.811290 0.303400 0.871650 -0.042986
N3    N     N_R   0.205180 0.552990 0.997660 -0.075142
N4    N     N_R   0.814810 0.361830 0.823710 -0.043177
N5    N     N_R   0.201660 0.494570 0.045600 -0.090620
N6    N     N_R   0.068420 0.560530 0.871650 -0.041869
N7    N     N_R   0.948050 0.295860 0.997660 -0.046269
N8    N     N_R   0.185190 0.638170 0.176290 -0.043865
N9    N     N_R   0.798340 0.505430 0.954400 -0.043246
N10   N     N_R   0.931580 0.439470 0.128350 -0.043923
N11   N     N_R   0.051950 0.704140 0.002340 -0.043436
N12   N     N_R   0.944360 0.651450 0.954400 -0.043646
N13   N     N_R   0.039170 0.492150 0.176290 -0.040070
N14   N     N_R   0.188710 0.696600 0.128350 -0.044996
N15   N     N_R   0.794820 0.447010 0.002340 -0.045895
N16   N     N_R   0.960830 0.507850 0.823710 -0.042954
Ni1   Ni    Ni4+2 0.119330 0.493420 0.109950 0.265865
Ni2   Ni    Ni4+2 0.880670 0.506580 0.890050 0.221562
Ni3   Ni    Ni4+2 0.872590 0.372590 0.000000 0.227573
Ni4   Ni    Ni4+2 0.127410 0.627410 0.000000 0.207653

loop_
_geom_bond_atom_site_label_1
_geom_bond_atom_site_label_2
_ccdc_geom_bond_type
C43   H9    S    
C4    H2    S    
N1    N7    A    
C6    C45   A    
C27   C29   A    
C40   H20   S    
N11   N12   A    
C3    C6    A    
C58   H12   S    
C14   H35   S    
C39   C41   A    
C20   C30   A    
C16   H29   S    
C8    C20   S    
C30   C31   A    
C2    N13   A    
C19   Cl2   S    
N8    N14   A    
C23   C40   A    
C33   C36   A    
C53   H17   S    
C18   C19   S    
C48   H14   S    
C51   H16   S    
C8    C58   A    
C22   Cl3   S    
C44   C53   S    
N3    Ni4   S    
C59   N11   A    
C32   C41   A    
C4    C12   A    
C29   H5    S    
C45   N8    A    
C41   H7    S    
C7    C15   S    
C37   H11   S    
C28   C34   A    
C26   C31   A    
C58   N10   A    
C13   C14   A    
C5    N15   A    
N5    Ni1   S    
C18   H36   S    
C7    C56   A    
N7    Ni3   S    
C30   H6    S    
C44   C46   A    
N9    Ni2   S    
C50   C51   S    
N4    Ni2   S    
C20   C29   A    
C54   N6    A    
C28   H18   S    
C45   H24   S    
C59   H23   S    
C52   Cl4   S    
C5    C7    A    
C25   C26   A    
C12   C21   S    
C33   C37   A    
C55   N7    A    
N11   Ni4   S    
C9    C59   A    
C35   C36   A    
C35   C39   A    
C37   C38   A    
C60   N12   A    
C1    C57   A    
C40   N4    A    
C3    H33   S    
C47   C48   A    
C10   C19   S    
C31   H26   S    
C17   C18   S    
C26   C27   A    
C19   H4    S    
N3    N5    A    
N2    N4    A    
N10   N13   A    
C36   H10   S    
N13   Ni1   S    
C16   N2    A    
C48   C49   A    
C35   H8    S    
C16   C23   A    
N15   Ni3   S    
C22   C27   A    
C55   C57   A    
C46   C57   S    
C22   C24   A    
C42   C43   A    
C47   H13   S    
C24   H27   S    
C1    N1    A    
C56   N9    A    
C44   C50   A    
C15   C17   A    
C21   C25   A    
C46   C47   A    
C25   H28   S    
C1    H25   S    
N6    Ni4   S    
C42   H30   S    
N8    Ni1   S    
C4    N16   A    
C11   C34   S    
C2    C8    A    
C3    N14   A    
N10   Ni3   S    
C52   N5    A    
C54   H21   S    
C34   C52   A    
C6    C33   S    
C53   H19   S    
C9    C60   A    
N1    Ni1   S    
C23   C32   S    
C55   H22   S    
C2    H32   S    
C18   H3    S    
C38   C43   A    
N12   Ni2   S    
C11   C13   A    
C28   N3    A    
C38   C39   A    
C12   C54   A    
N16   Ni2   S    
C51   H15   S    
C10   C11   A    
N9    N15   A    
C60   H31   S    
C13   Cl1   S    
C5    H34   S    
C49   C50   A    
C21   C24   A    
N6    N16   A    
C32   C42   A    
C14   C15   A    
C10   C17   A    
C51   C53   S    
N14   Ni4   S    
N2    Ni3   S    
C56   H1    S    
