data_mof_unit_29379.cif
_audit_creation_date              2012-12-10T18:52:12-0500
_audit_creation_method            fapswitch 2.2
_symmetry_space_group_name_H-M    P1
_symmetry_Int_Tables_number       1
_space_group_crystal_system       triclinic
_cell_length_a                    15.748167
_cell_length_b                    10.774727
_cell_length_c                    9.814693
_cell_angle_alpha                 89.46347
_cell_angle_beta                  89.862508
_cell_angle_gamma                 91.782688
_cell_volume                      1664.49365375

loop_
_atom_site_label
_atom_site_type_symbol
_atom_type_description
_atom_site_fract_x
_atom_site_fract_y
_atom_site_fract_z
_atom_type_partial_charge
C1    C     C_R   0.496900 0.259516 0.500977 0.966679
C2    C     C_R   0.494156 0.739721 0.500009 0.974408
C3    C     C_R   0.464765 0.936058 0.380669 0.382390
C4    C     C_R   0.500129 0.060789 0.626353 0.392535
C5    C     C_R   0.481307 0.871228 0.502283 -0.428837
C6    C     C_R   0.487172 0.126578 0.504068 -0.428804
C7    C     C_R   0.559756 0.570732 0.072523 0.604903
C8    C     C_R   0.440111 0.430732 0.927670 0.616104
C9    C     C_R   0.559186 0.569073 0.926273 -0.334503
C10   C     C_R   0.440303 0.432487 0.073283 -0.311425
C11   C     C_R   0.337690 0.497051 0.500179 0.859718
C12   C     C_R   0.662134 0.500657 0.500036 0.881513
C13   C     C_3   0.965268 0.375924 0.554567 0.297664
C14   C     C_3   0.032215 0.592307 0.459653 0.274814
C15   C     C_3   0.022045 0.389702 0.425715 0.352846
C16   C     C_3   0.975904 0.577165 0.588195 0.340044
C17   C     C_1   0.248725 0.486830 0.501027 -0.179148
C18   C     C_1   0.750753 0.498594 0.501016 -0.184612
C19   C     C_3   0.025753 0.463995 0.635049 0.267734
C20   C     C_3   0.973005 0.504100 0.377082 0.278644
C21   C     C_3   0.082300 0.477789 0.506750 -0.193400
C22   C     C_3   0.916237 0.489795 0.505880 -0.191874
C23   C     C_1   0.173432 0.479355 0.503094 0.127477
C24   C     C_1   0.825739 0.495386 0.503606 0.140465
C25   C     C_R   0.459448 0.064356 0.386171 0.326879
C26   C     C_R   0.485992 0.933981 0.627910 0.333920
H1    H     H_    0.604887 0.622444 0.865971 0.187390
H2    H     H_    0.392322 0.382511 0.131804 0.171509
N1    N     N_R   0.499980 0.499970 0.857200 -0.135579
N2    N     N_R   0.500020 0.500030 0.142800 -0.128654
O1    O     O_R   0.499990 0.316750 0.614620 -0.543451
O2    O     O_R   0.500010 0.683250 0.385380 -0.534634
O3    O     O_R   0.500000 0.316780 0.385290 -0.592570
O4    O     O_R   0.500000 0.683220 0.614710 -0.608191
O5    O     O_R   0.376780 0.499970 0.614640 -0.581553
O6    O     O_R   0.623220 0.500030 0.385360 -0.573725
O7    O     O_R   0.376780 0.500000 0.385310 -0.629167
O8    O     O_R   0.623220 0.500000 0.614690 -0.628893
Zn1   Zn    Zn3+2 0.500000 0.499980 0.653120 1.000064
Zn2   Zn    Zn3+2 0.500000 0.500020 0.346880 1.013284
O9    O     O_3   0.057746 0.297670 0.343190 -0.620528
C27   C     C_3   0.009751 0.185290 0.351890 -0.309139
H3    H     H_    0.024031 0.128237 0.261928 0.175798
H4    H     H_    0.940340 0.198333 0.349267 0.184279
H5    H     H_    0.027471 0.132796 0.444989 0.193017
O10   O     O_3   0.940742 0.663514 0.678251 -0.596473
C28   C     C_3   0.987902 0.776452 0.675197 -0.297017
H6    H     H_    0.972437 0.830574 0.582416 0.169905
H7    H     H_    0.057483 0.763165 0.683285 0.163903
H8    H     H_    0.968649 0.832256 0.763720 0.181078
O11   O     O_3   0.920098 0.264403 0.590636 -0.672934
C29   C     C_3   0.921299 0.240659 0.732076 0.151199
H9    H     H_    0.862584 0.185679 0.758293 0.125878
H10   H     H_    0.917909 0.326548 0.793750 0.175003
C30   C     C_3   0.997623 0.161835 0.768775 -0.297144
H11   H     H_    0.988155 0.067743 0.724911 0.185433
H12   H     H_    0.056901 0.203260 0.723910 0.254847
C31   C     C_3   0.008510 0.150168 0.922610 -0.985434
H13   H     H_    0.020719 0.243015 0.967822 0.281984
H14   H     H_    0.063603 0.091613 0.945074 0.265257
H15   H     H_    0.950599 0.106495 0.969628 0.251088
O12   O     O_3   0.078843 0.701044 0.419606 -0.650217
C32   C     C_3   0.032484 0.774584 0.328259 0.143420
H16   H     H_    0.043056 0.873259 0.357396 0.117089
H17   H     H_    0.962411 0.756854 0.333099 0.169575
C33   C     C_3   0.067048 0.759096 0.183918 -0.295685
H18   H     H_    0.133687 0.795973 0.179958 0.213697
H19   H     H_    0.067439 0.659226 0.157326 0.248177
C34   C     C_3   0.014225 0.827752 0.079356 -1.004679
H20   H     H_    0.950061 0.782714 0.070880 0.291894
H21   H     H_    0.046232 0.825380 0.978605 0.262911
H22   H     H_    0.007677 0.926008 0.109416 0.257632
O13   O     O_3   0.935990 0.540624 0.251791 -0.634561
C35   C     C_3   0.935646 0.446251 0.153161 0.125471
H23   H     H_    0.935951 0.491623 0.051002 0.168903
H24   H     H_    0.994163 0.392302 0.153882 0.149264
C36   C     C_3   0.855811 0.361530 0.165622 -0.414029
H25   H     H_    0.863716 0.278302 0.101364 0.175842
H26   H     H_    0.846477 0.330476 0.272657 0.230899
C37   C     C_3   0.776307 0.427365 0.120316 -0.768281
H27   H     H_    0.767192 0.510427 0.184069 0.310064
H28   H     H_    0.719873 0.363823 0.132613 0.238210
H29   H     H_    0.781787 0.455492 0.011406 0.232716
O14   O     O_3   0.054794 0.435261 0.767225 -0.654601
C38   C     C_3   0.105281 0.532824 0.821725 0.096428
H30   H     H_    0.063698 0.599829 0.872698 0.171326
H31   H     H_    0.144615 0.583127 0.743359 0.144791
C39   C     C_3   0.164322 0.476971 0.927452 -0.336526
H32   H     H_    0.126237 0.439834 0.015032 0.210030
H33   H     H_    0.197689 0.398824 0.880472 0.260734
C40   C     C_3   0.230106 0.571898 0.978698 -0.929673
H34   H     H_    0.273013 0.603032 0.894273 0.273145
H35   H     H_    0.268576 0.529460 0.060339 0.272979
H36   H     H_    0.198117 0.652918 0.021237 0.253761
O15   O     O_3   0.425332 0.128263 0.277490 -0.624863
C41   C     C_3   0.337484 0.143773 0.300887 0.123192
H37   H     H_    0.322520 0.240180 0.271161 0.157483
H38   H     H_    0.317302 0.133039 0.409843 0.107720
C42   C     C_3   0.285643 0.053490 0.212567 -0.360959
H39   H     H_    0.308887 0.060061 0.106201 0.233568
H40   H     H_    0.293078 0.956939 0.249973 0.260238
C43   C     C_3   0.191929 0.082474 0.215334 -0.974832
H41   H     H_    0.167031 0.069297 0.320538 0.281433
H42   H     H_    0.156534 0.018692 0.146366 0.265280
H43   H     H_    0.182208 0.179349 0.180311 0.293233
O16   O     O_3   0.482794 0.873417 0.753414 -0.613683
C44   C     C_3   0.397899 0.833450 0.783269 0.157817
H44   H     H_    0.400314 0.764771 0.868227 0.158229
H45   H     H_    0.366439 0.784873 0.696314 0.126523
C45   C     C_3   0.344152 0.941761 0.827922 -0.377678
H46   H     H_    0.378784 0.993322 0.908697 0.238283
H47   H     H_    0.334294 0.004778 0.739551 0.211660
C46   C     C_3   0.257527 0.897475 0.882378 -1.020400
H48   H     H_    0.224556 0.835816 0.807911 0.269102
H49   H     H_    0.217580 0.978791 0.900806 0.271808
H50   H     H_    0.265480 0.847141 0.980397 0.282745
O17   O     O_3   0.442274 0.872360 0.263237 -0.592385
C47   C     C_3   0.500716 0.902016 0.157752 -0.160896
H51   H     H_    0.493970 0.829938 0.078350 0.182252
H52   H     H_    0.567717 0.903235 0.193990 0.146469
H53   H     H_    0.486408 0.991839 0.108134 0.187286
O18   O     O_3   0.516830 0.120532 0.748119 -0.559884
C48   C     C_3   0.604707 0.116563 0.774323 -0.250612
H54   H     H_    0.618475 0.168537 0.869199 0.171391
H55   H     H_    0.642597 0.162097 0.690796 0.141579
H56   H     H_    0.624990 0.019548 0.790660 0.168301
O19   O     O_3   0.617577 0.640896 0.150121 -0.570054
C49   C     C_3   0.674515 0.717517 0.073292 -0.414976
H57   H     H_    0.640304 0.785635 0.009778 0.163858
H58   H     H_    0.717114 0.661525 0.009785 0.181615
H59   H     H_    0.715376 0.771223 0.144961 0.203462
O20   O     O_3   0.377683 0.368785 0.852282 -0.568717
C50   C     C_3   0.347706 0.258316 0.916120 -0.331111
H60   H     H_    0.301318 0.278293 0.997728 0.150418
H61   H     H_    0.400722 0.202859 0.956414 0.196871
H62   H     H_    0.312983 0.202086 0.839248 0.196553

loop_
_geom_bond_atom_site_label_1
_geom_bond_atom_site_label_2
_ccdc_geom_bond_type
C33   H19   S    
C30   H11   S    
C32   H17   S    
O13   C35   S    
O15   C41   S    
C49   H57   S    
C26   O16   S    
C1    O3    A    
C48   H54   S    
C28   H7    S    
C36   H25   S    
C17   C23   T    
C35   H24   S    
C18   C24   T    
C8    N1    A    
C14   C21   S    
C19   C21   S    
O7    Zn2   S    
O8    Zn1   S    
C38   C39   S    
C6    C25   A    
O16   C44   S    
C31   H14   S    
C14   O12   S    
C41   C42   S    
C1    O1    A    
C43   H43   S    
C2    O2    A    
O9    C27   S    
C34   H21   S    
C45   H46   S    
C3    O17   S    
C47   H51   S    
C28   H6    S    
O20   C50   S    
C35   C36   S    
C41   H38   S    
C8    O20   S    
C50   H62   S    
C44   H44   S    
C12   O6    A    
C29   C30   S    
C9    N1    A    
C46   H50   S    
C2    O4    A    
C31   H15   S    
C38   H31   S    
C33   H18   S    
C32   C33   S    
C7    N2    A    
C13   O11   S    
C44   H45   S    
C34   H20   S    
C27   H4    S    
C37   H29   S    
C29   H10   S    
C28   H8    S    
C47   H52   S    
C36   H26   S    
C15   C20   S    
O3    Zn2   S    
C35   H23   S    
C13   C19   S    
C32   H16   S    
C4    O18   S    
C1    C6    S    
C14   C20   S    
C3    C25   A    
O14   C38   S    
C15   O9    S    
C37   H28   S    
C16   O10   S    
C40   H34   S    
C48   H56   S    
C31   H13   S    
C38   H30   S    
O4    Zn1   S    
C27   H5    S    
C34   H22   S    
O5    Zn1   S    
O12   C32   S    
C40   H35   S    
C10   N2    A    
C42   H39   S    
C39   C40   S    
O6    Zn2   S    
C41   H37   S    
N1    Zn1   S    
N2    Zn2   S    
C43   H42   S    
C45   C46   S    
C4    C6    A    
C42   H40   S    
C39   H33   S    
C25   O15   S    
C21   C23   S    
C13   C15   S    
C50   H60   S    
C44   C45   S    
C22   C24   S    
C2    C5    S    
C27   H3    S    
O19   C49   S    
C49   H59   S    
C20   O13   S    
C29   H9    S    
C9    H1    S    
C11   O7    A    
C46   H48   S    
C36   C37   S    
C10   H2    S    
C7    C9    A    
O10   C28   S    
C11   C17   S    
C16   C22   S    
C20   C22   S    
C37   H27   S    
C3    C5    A    
C49   H58   S    
C4    C26   A    
C30   H12   S    
O11   C29   S    
O17   C47   S    
C40   H36   S    
C16   C19   S    
C11   O5    A    
O1    Zn1   S    
C13   C22   S    
C14   C16   S    
O2    Zn2   S    
C12   O8    A    
C43   H41   S    
C45   H47   S    
C48   H55   S    
C5    C26   A    
C33   C34   S    
C15   C21   S    
C42   C43   S    
C39   H32   S    
C8    C10   A    
C30   C31   S    
C12   C18   S    
C50   H61   S    
C7    O19   S    
O18   C48   S    
C47   H53   S    
C19   O14   S    
C46   H49   S    
