data_mof_unit_49526.cif
_audit_creation_date              2012-12-10T17:29:20-0500
_audit_creation_method            fapswitch 2.2
_symmetry_space_group_name_H-M    P1
_symmetry_Int_Tables_number       1
_space_group_crystal_system       triclinic
_cell_length_a                    12.092767
_cell_length_b                    12.929917
_cell_length_c                    13.128114
_cell_angle_alpha                 85.159524
_cell_angle_beta                  113.91576
_cell_angle_gamma                 94.088526
_cell_volume                      1868.20977743

loop_
_atom_site_label
_atom_site_type_symbol
_atom_type_description
_atom_site_fract_x
_atom_site_fract_y
_atom_site_fract_z
_atom_type_partial_charge
C1    C     C_R   0.475148 0.299485 0.494102 0.872796
C2    C     C_R   0.610651 0.505371 0.829705 -0.232033
C3    C     C_R   0.536954 0.812118 0.495582 -0.224459
C4    C     C_R   0.567866 0.502129 0.708435 0.965387
C5    C     C_R   0.456502 0.187972 0.480902 -0.082977
C6    C     C_R   0.335688 0.027982 0.440422 -0.170682
C7    C     C_R   0.341599 0.135245 0.447041 0.181040
C8    C     C_R   0.559582 0.133626 0.498801 -0.295252
C9    C     C_R   0.554185 0.027134 0.492516 0.080668
C10   C     C_R   0.440757 0.974383 0.465422 0.090802
C11   C     C_R   0.432831 0.868000 0.464540 -0.347228
C12   C     C_R   0.528531 0.481188 0.970465 0.015216
C13   C     C_R   0.651329 0.863121 0.522138 0.512835
C14   C     C_R   0.659580 0.971862 0.515008 0.089143
C15   C     C_R   0.001379 0.585631 0.381588 0.484590
C16   C     C_R   0.522717 0.700418 0.500016 0.935455
C17   C     C_R   0.123507 0.581286 0.396881 -0.135542
C18   C     C_R   0.162235 0.461375 0.553951 0.287296
C19   C     C_R   0.041513 0.469712 0.547743 -0.164555
C20   C     C_R   0.960044 0.530838 0.458241 -0.140481
C21   C     C_R   0.838345 0.535068 0.446717 -0.117338
C22   C     C_R   0.874525 0.422109 0.607803 0.537536
C23   C     C_R   0.529937 0.535381 0.873324 -0.204189
C24   C     C_R   0.998372 0.418712 0.626815 0.342458
C25   C     C_R   0.433111 0.506969 0.291143 0.879148
C26   C     C_R   0.270278 0.607150 0.992532 -0.304995
C27   C     C_R   0.391676 0.521757 0.170308 -0.168819
C28   C     C_R   0.714561 0.452954 0.900402 0.482718
C29   C     C_R   0.711364 0.395121 0.993346 -0.271651
C30   C     C_R   0.611549 0.399237 0.021094 0.161472
C31   C     C_3   0.242780 0.718038 0.170963 -0.338781
C32   C     C_3   0.806362 0.789165 0.668903 -0.308440
C33   C     C_3   0.780746 0.026555 0.534706 -0.908137
C34   C     C_R   0.447156 0.513219 0.013283 0.053292
C35   C     C_3   0.224855 0.189610 0.415270 -0.870840
C36   C     C_3   0.842936 0.265394 0.691188 -0.195518
C37   C     C_3   0.879313 0.591065 0.197359 -0.340577
C38   C     C_3   0.104389 0.417723 0.816514 -0.297002
C39   C     C_3   0.258424 0.709387 0.780600 -0.870185
C40   C     C_3   0.243374 0.383498 0.638679 -0.705224
C41   C     C_3   0.876683 0.542217 0.888083 -0.266401
C42   C     C_3   0.590324 0.307250 0.090863 -0.922836
C43   C     C_3   0.548960 0.763755 0.790073 -0.386497
C44   C     C_R   0.353718 0.582125 0.949222 -0.017336
C45   C     C_R   0.353119 0.632070 0.849306 0.079634
C46   C     C_R   0.449436 0.616746 0.819331 0.574440
C47   C     C_R   0.467440 0.489421 0.124356 -0.314922
C48   C     C_R   0.289918 0.579088 0.103587 0.540052
H1    H     H_    0.249028 0.985669 0.417010 0.141340
H2    H     H_    0.231364 0.768050 0.094406 0.159080
H3    H     H_    0.180080 0.745615 0.204355 0.189297
H4    H     H_    0.887576 0.742507 0.692402 0.186086
H5    H     H_    0.742776 0.744026 0.699287 0.148721
H6    H     H_    0.836053 0.863249 0.711488 0.153945
H7    H     H_    0.848486 0.973690 0.533557 0.289135
H8    H     H_    0.770971 0.088465 0.468009 0.234147
H9    H     H_    0.817356 0.059487 0.617745 0.215556
H10   H     H_    0.144515 0.135395 0.382945 0.224867
H11   H     H_    0.223252 0.223309 0.489370 0.248309
H12   H     H_    0.645627 0.174806 0.519811 0.183663
H13   H     H_    0.215240 0.251332 0.348414 0.253267
H14   H     H_    0.924328 0.243123 0.766264 0.193696
H15   H     H_    0.847507 0.235426 0.615974 0.112218
H16   H     H_    0.763914 0.226614 0.703171 0.165149
H17   H     H_    0.953446 0.571899 0.173351 0.181633
H18   H     H_    0.815575 0.639679 0.127357 0.195642
H19   H     H_    0.828118 0.518959 0.208322 0.167230
H20   H     H_    0.039342 0.396379 0.855441 0.222284
H21   H     H_    0.109442 0.503323 0.800073 0.145722
H22   H     H_    0.194780 0.394374 0.878212 0.192061
H23   H     H_    0.775039 0.582434 0.379267 0.212531
H24   H     H_    0.264788 0.776244 0.830781 0.227741
H25   H     H_    0.268760 0.740145 0.703327 0.286034
H26   H     H_    0.166571 0.671749 0.753922 0.217555
H27   H     H_    0.321384 0.364315 0.624842 0.250388
H28   H     H_    0.277277 0.412593 0.723605 0.241212
H29   H     H_    0.194297 0.307080 0.634360 0.227215
H30   H     H_    0.932248 0.550299 0.978455 0.165991
H31   H     H_    0.817736 0.609841 0.852756 0.123139
H32   H     H_    0.938485 0.545812 0.844630 0.174804
H33   H     H_    0.655488 0.311455 0.179248 0.235356
H34   H     H_    0.155037 0.625438 0.339695 0.177394
H35   H     H_    0.495867 0.301126 0.084659 0.252736
H36   H     H_    0.604395 0.234147 0.059676 0.246924
H37   H     H_    0.639790 0.733677 0.843239 0.146607
H38   H     H_    0.515473 0.807950 0.840367 0.182386
H39   H     H_    0.559294 0.818966 0.724878 0.195974
H40   H     H_    0.193903 0.654362 0.943874 0.159561
H41   H     H_    0.550060 0.453665 0.179609 0.203657
H42   H     H_    0.781805 0.340816 0.038297 0.173089
H43   H     H_    0.344642 0.828483 0.442068 0.193396
H44   H     H_    0.336593 0.728134 0.235445 0.162923
N1    N     N_R   0.798200 0.480260 0.519790 -0.167580
N2    N     N_R   0.201820 0.519740 0.480210 -0.125371
O1    O     O_R   0.579910 0.341070 0.505280 -0.601154
O2    O     O_3   0.754415 0.807035 0.551716 -0.578254
O3    O     O_3   0.830039 0.373788 0.682437 -0.541269
O4    O     O_3   0.924301 0.647647 0.294279 -0.605964
O5    O     O_3   0.074365 0.362116 0.720299 -0.630418
O6    O     O_3   0.811247 0.445641 0.871429 -0.559526
O7    O     O_3   0.466115 0.682746 0.737513 -0.590233
O8    O     O_R   0.388440 0.353740 0.492580 -0.640970
O9    O     O_R   0.643280 0.490550 0.663120 -0.535790
O10   O     O_R   0.451810 0.503220 0.650420 -0.603322
O11   O     O_R   0.611560 0.646260 0.507420 -0.577556
O12   O     O_R   0.420090 0.658930 0.494720 -0.595963
O13   O     O_R   0.548190 0.496780 0.349580 -0.637677
O14   O     O_R   0.356720 0.509450 0.336880 -0.575164
O15   O     O_3   0.213288 0.612518 0.147659 -0.619055
Zn1   Zn    Zn3+2 0.627850 0.491540 0.508480 0.998713
Zn2   Zn    Zn3+2 0.372150 0.508460 0.491520 0.963808

loop_
_geom_bond_atom_site_label_1
_geom_bond_atom_site_label_2
_ccdc_geom_bond_type
C27   C48   A    
C33   H7    S    
O11   Zn1   S    
C38   H22   S    
C24   O5    S    
C19   C20   A    
C14   C33   S    
C26   C44   A    
C45   C46   A    
C12   C23   A    
C21   H23   S    
O9    Zn1   S    
C1    C5    S    
C28   C29   A    
C18   C19   A    
C4    O9    A    
C4    O10   A    
N2    Zn2   S    
C35   H11   S    
C17   H34   S    
C39   H26   S    
C18   C40   S    
C32   H4    S    
C8    C9    A    
C37   H17   S    
C39   H24   S    
C36   O3    S    
C36   H15   S    
C9    C10   A    
C3    C13   A    
C26   C48   A    
N1    Zn1   S    
C39   C45   S    
C28   O6    S    
C33   H8    S    
C48   O15   S    
C38   H21   S    
C23   C46   A    
C13   C14   A    
C47   H41   S    
O8    Zn2   S    
C42   H33   S    
C41   H32   S    
C36   H14   S    
C32   H6    S    
C37   O4    S    
O12   Zn2   S    
C15   C20   A    
C46   O7    S    
C13   O2    S    
C43   H37   S    
C42   H36   S    
C41   H30   S    
C5    C7    A    
C40   H28   S    
C2    C4    S    
C9    C14   A    
C43   O7    S    
C6    C10   A    
C29   C30   A    
C5    C8    A    
C1    O1    A    
C29   H42   S    
C37   H18   S    
C31   O15   S    
C41   O6    S    
C34   C44   A    
C35   H13   S    
C16   O11   A    
C32   O2    S    
C38   H20   S    
C35   H10   S    
C18   N2    A    
O13   Zn1   S    
C22   C24   A    
C15   O4    S    
C12   C34   A    
C32   H5    S    
C44   C45   A    
C25   O13   A    
C27   C47   A    
C15   C17   A    
C33   H9    S    
C12   C30   A    
C43   H38   S    
C7    C35   S    
C42   H35   S    
C31   H3    S    
C38   O5    S    
O1    Zn1   S    
C41   H31   S    
O10   Zn2   S    
O14   Zn2   S    
C6    C7    A    
C17   N2    A    
C16   O12   A    
C25   C27   S    
C40   H27   S    
C43   H39   S    
C19   C24   A    
C8    H12   S    
C21   N1    A    
C37   H19   S    
C22   N1    A    
C39   H25   S    
C6    H1    S    
C3    C11   A    
C10   C11   A    
C11   H43   S    
C20   C21   A    
C26   H40   S    
C31   H44   S    
C2    C23   A    
C22   O3    S    
C40   H29   S    
C30   C42   S    
C2    C28   A    
C34   C47   A    
C31   H2    S    
C36   H16   S    
C1    O8    A    
C3    C16   S    
C25   O14   A    
