data_mof_unit_36528.cif
_audit_creation_date              2012-12-11T16:06:35-0500
_audit_creation_method            fapswitch 2.2
_symmetry_space_group_name_H-M    P1
_symmetry_Int_Tables_number       1
_space_group_crystal_system       monoclinic
_cell_length_a                    7.201168
_cell_length_b                    14.309026
_cell_length_c                    15.965646
_cell_angle_alpha                 90.0
_cell_angle_beta                  89.999987
_cell_angle_gamma                 90.0
_cell_volume                      1645.12730771

loop_
_atom_site_label
_atom_site_type_symbol
_atom_type_description
_atom_site_fract_x
_atom_site_fract_y
_atom_site_fract_z
_atom_type_partial_charge
O1    O     O_R   0.388780 0.834790 0.412340 -0.543551
O2    O     O_R   0.111220 0.165210 0.912340 -0.543551
O3    O     O_R   0.888780 0.665210 0.587660 -0.543550
O4    O     O_R   0.611220 0.334790 0.087660 -0.543550
O5    O     O_R   0.059040 0.845930 0.587040 -0.546006
O6    O     O_R   0.440960 0.154070 0.087040 -0.546006
O7    O     O_R   0.559040 0.654070 0.412960 -0.546006
O8    O     O_R   0.940960 0.345930 0.912960 -0.546006
C1    C     C_R   0.227967 0.868257 0.615165 0.717865
C2    C     C_R   0.272033 0.131743 0.115165 0.717866
C3    C     C_R   0.727967 0.631743 0.384835 0.717866
C4    C     C_R   0.772032 0.368257 0.884835 0.717866
O9    O     O_R   0.059070 0.845930 0.412970 -0.542968
O10   O     O_R   0.440930 0.154070 0.912970 -0.542968
O11   O     O_R   0.559070 0.654070 0.587030 -0.542968
O12   O     O_R   0.940930 0.345930 0.087030 -0.542968
O13   O     O_R   0.888760 0.665210 0.412340 -0.540234
O14   O     O_R   0.611240 0.334790 0.912340 -0.540234
O15   O     O_R   0.388760 0.834790 0.587660 -0.540234
O16   O     O_R   0.111240 0.165210 0.087660 -0.540234
C5    C     C_R   0.227733 0.868236 0.384883 0.717741
C6    C     C_R   0.272267 0.131764 0.884883 0.717742
C7    C     C_R   0.727733 0.631764 0.615116 0.717742
C8    C     C_R   0.772267 0.368236 0.115117 0.717741
O17   O     O_3   0.222280 0.690700 0.500000 -0.378907
O18   O     O_3   0.277720 0.309300 0.000000 -0.378907
O19   O     O_3   0.722280 0.809300 0.500000 -0.378907
O20   O     O_3   0.777720 0.190700 0.000000 -0.378907
V1    V     V_3+5 0.947430 0.761000 0.500000 1.397348
V2    V     V_3+5 0.552570 0.239000 0.000000 1.397348
V3    V     V_3+5 0.447430 0.739000 0.500000 1.397346
V4    V     V_3+5 0.052570 0.261000 0.000000 1.397347
C9    C     C_3   0.832910 0.605933 0.764422 -0.471531
C10   C     C_3   0.667088 0.394067 0.264422 -0.471531
C11   C     C_3   0.332915 0.894068 0.235578 -0.471530
C12   C     C_3   0.167084 0.105932 0.735579 -0.471531
H1    H     H_    0.974280 0.631256 0.747712 0.114038
H2    H     H_    0.525719 0.368745 0.247711 0.114038
H3    H     H_    0.474285 0.868746 0.252290 0.114038
H4    H     H_    0.025714 0.131254 0.752290 0.114039
H5    H     H_    0.751788 0.668324 0.784377 0.163642
H6    H     H_    0.748209 0.331676 0.284378 0.163642
H7    H     H_    0.251796 0.831675 0.215622 0.163642
H8    H     H_    0.248202 0.168325 0.715622 0.163642
C13   C     C_3   0.849176 0.534488 0.838000 0.238813
C14   C     C_3   0.650822 0.465512 0.338000 0.238814
C15   C     C_3   0.349181 0.965513 0.162001 0.238814
C16   C     C_3   0.150818 0.034487 0.662001 0.238814
H9    H     H_    0.999298 0.522711 0.851950 0.075086
H10   H     H_    0.500700 0.477290 0.351950 0.075086
H11   H     H_    0.499303 0.977291 0.148052 0.075085
H12   H     H_    0.000696 0.022708 0.648052 0.075085
H13   H     H_    0.999426 0.497021 0.646160 0.077550
H14   H     H_    0.500575 0.502980 0.146160 0.077550
H15   H     H_    0.499422 0.002982 0.353841 0.077550
H16   H     H_    0.000579 0.997018 0.853842 0.077550
H17   H     H_    0.013059 0.388402 0.750741 0.114547
H18   H     H_    0.486943 0.611599 0.250741 0.114547
H19   H     H_    0.513054 0.111601 0.249261 0.114547
H20   H     H_    0.986946 0.888399 0.749261 0.114546
C17   C     C_3   0.855382 0.473578 0.661279 0.242600
C18   C     C_3   0.644619 0.526422 0.161279 0.242601
C19   C     C_3   0.355378 0.026423 0.338722 0.242601
C20   C     C_3   0.144623 0.973577 0.838722 0.242601
C21   C     C_3   0.542283 0.527672 0.714055 -0.306513
C22   C     C_3   0.957717 0.472328 0.214056 -0.306513
C23   C     C_3   0.042282 0.972326 0.285943 -0.306514
C24   C     C_3   0.457718 0.027674 0.785943 -0.306514
C25   C     C_3   0.738667 0.561002 0.686618 0.071723
C26   C     C_3   0.761333 0.438997 0.186618 0.071722
C27   C     C_3   0.238667 0.938997 0.313382 0.071723
C28   C     C_3   0.261333 0.061003 0.813382 0.071722
H21   H     H_    0.468667 0.494794 0.660309 0.175795
H22   H     H_    0.031334 0.505206 0.160310 0.175795
H23   H     H_    0.968663 0.005204 0.339688 0.175795
H24   H     H_    0.531338 0.994797 0.839688 0.175796
H25   H     H_    0.457445 0.588632 0.734414 0.129073
H26   H     H_    0.042555 0.411367 0.234414 0.129073
H27   H     H_    0.957447 0.911365 0.265584 0.129073
H28   H     H_    0.542552 0.088636 0.765583 0.129073
C29   C     C_3   0.760469 0.439068 0.813257 0.070135
C30   C     C_3   0.739531 0.560931 0.313257 0.070135
C31   C     C_3   0.260469 0.060931 0.186743 0.070135
C32   C     C_3   0.239531 0.939069 0.686743 0.070135
C33   C     C_3   0.864931 0.401959 0.734962 -0.476723
C34   C     C_3   0.635070 0.598041 0.234962 -0.476723
C35   C     C_3   0.364926 0.098042 0.265039 -0.476723
C36   C     C_3   0.135074 0.901958 0.765039 -0.476723
C37   C     C_3   0.554857 0.456828 0.786757 -0.292790
C38   C     C_3   0.945143 0.543172 0.286757 -0.292790
C39   C     C_3   0.054857 0.043170 0.213242 -0.292789
C40   C     C_3   0.445143 0.956830 0.713241 -0.292790
H29   H     H_    0.473451 0.483629 0.840932 0.177168
H30   H     H_    0.026548 0.516369 0.340933 0.177168
H31   H     H_    0.973454 0.016367 0.159065 0.177167
H32   H     H_    0.526546 0.983633 0.659065 0.177167
H33   H     H_    0.489206 0.389973 0.766822 0.128851
H34   H     H_    0.010795 0.610026 0.266823 0.128852
H35   H     H_    0.989202 0.110024 0.233175 0.128852
H36   H     H_    0.510799 0.889976 0.733175 0.128852
H37   H     H_    0.803922 0.333780 0.715657 0.163676
H38   H     H_    0.696080 0.666220 0.215657 0.163675
H39   H     H_    0.303914 0.166220 0.284343 0.163675
H40   H     H_    0.196087 0.833780 0.784343 0.163676
O21   O     O_3   0.777827 0.431134 0.590146 -0.638449
H41   H     H_    0.872376 0.386737 0.568538 0.300297
O22   O     O_3   0.722175 0.568866 0.090146 -0.638449
H42   H     H_    0.627626 0.613264 0.068539 0.300296
O23   O     O_3   0.277818 0.068867 0.409854 -0.638449
H43   H     H_    0.372364 0.113266 0.431462 0.300297
O24   O     O_3   0.222183 0.931133 0.909854 -0.638449
H44   H     H_    0.127637 0.886734 0.931462 0.300297
O25   O     O_3   0.761980 0.570162 0.909840 -0.638379
H45   H     H_    0.842270 0.621463 0.930896 0.300103
O26   O     O_3   0.738017 0.429837 0.409840 -0.638378
H46   H     H_    0.657727 0.378537 0.430896 0.300102
O27   O     O_3   0.261989 0.929837 0.090160 -0.638379
H47   H     H_    0.342282 0.878538 0.069104 0.300102
O28   O     O_3   0.238009 0.070163 0.590160 -0.638379
H48   H     H_    0.157715 0.121462 0.569104 0.300102

loop_
_geom_bond_atom_site_label_1
_geom_bond_atom_site_label_2
_ccdc_geom_bond_type
C24   H28   S    
C31   C35   S    
O1    C5    A    
O19   V1    S    
C9    C13   S    
C7    C25   S    
O3    C7    A    
O24   H44   S    
C10   H6    S    
O1    V3    S    
O4    V2    S    
C11   C15   S    
H20   C36   S    
C8    C26   S    
C22   C38   S    
C21   C37   S    
C18   C34   S    
C14   O26   S    
C5    C27   S    
O9    V1    S    
O4    C8    A    
O26   H46   S    
C22   H22   S    
C2    C31   S    
C40   H32   S    
O13   V1    S    
C18   C26   S    
O2    V4    S    
O3    V1    S    
C33   H37   S    
C14   C30   S    
C15   O27   S    
H13   C17   S    
C1    O15   A    
C2    O16   A    
H15   C19   S    
O2    C6    A    
O22   H42   S    
H16   C20   S    
C38   H30   S    
C10   C14   S    
C15   C31   S    
C11   H7    S    
C10   C26   S    
C9    C25   S    
C29   C37   S    
O11   C7    A    
O15   V3    S    
O12   C8    A    
O10   V2    S    
H18   C34   S    
C6    C28   S    
C36   H40   S    
O7    C3    A    
C16   O28   S    
O5    V1    S    
C3    C30   S    
C22   H26   S    
C21   H25   S    
O8    V4    S    
C12   H4    S    
O7    V3    S    
C21   H21   S    
O18   V4    S    
C20   O24   S    
C15   H11   S    
C18   O22   S    
H14   C18   S    
C30   C34   S    
C39   H31   S    
C9    H1    S    
C16   C32   S    
C37   H33   S    
C24   C28   S    
C19   O23   S    
C11   H3    S    
O5    C1    A    
C13   H9    S    
O8    C4    A    
C23   C39   S    
O9    C5    A    
C24   H24   S    
C17   C33   S    
C35   H39   S    
O6    V2    S    
C19   C27   S    
O14   V2    S    
C12   H8    S    
C23   H23   S    
C34   H38   S    
C17   O21   S    
C40   H36   S    
O25   H45   S    
O16   V4    S    
C17   C25   S    
C3    O13   A    
C19   C35   S    
C10   H2    S    
O17   V3    S    
C13   C29   S    
C32   C36   S    
C38   H34   S    
O6    C2    A    
O28   H48   S    
O11   V3    S    
O12   V4    S    
C31   C39   S    
O21   H41   S    
C14   H10   S    
C30   C38   S    
C9    H5    S    
O10   C6    A    
O20   V2    S    
O23   H43   S    
C22   C26   S    
C21   C25   S    
C24   C40   S    
H17   C33   S    
C4    C29   S    
C12   C16   S    
C23   C27   S    
C20   C28   S    
C37   H29   S    
H19   C35   S    
C1    C32   S    
C11   C27   S    
C13   O25   S    
C16   H12   S    
C4    O14   A    
C32   C40   S    
C39   H35   S    
O27   H47   S    
C20   C36   S    
C23   H27   S    
C29   C33   S    
C12   C28   S    
