data_mof_unit_42926.cif
_audit_creation_date              2012-10-26T19:42:38-0400
_audit_creation_method            fapswitch 2.2
_symmetry_space_group_name_H-M    P1
_symmetry_Int_Tables_number       1
_space_group_crystal_system       triclinic
_cell_length_a                    19.346478
_cell_length_b                    10.911673
_cell_length_c                    9.682685
_cell_angle_alpha                 88.152873
_cell_angle_beta                  89.970278
_cell_angle_gamma                 95.768243
_cell_volume                      2032.61734571

loop_
_atom_site_label
_atom_site_type_symbol
_atom_type_description
_atom_site_fract_x
_atom_site_fract_y
_atom_site_fract_z
_atom_type_partial_charge
C1    C     C_R   0.498553 0.260983 0.503901 0.561861
C2    C     C_R   0.853412 0.468805 0.512292 -0.052684
C3    C     C_R   0.518479 0.081226 0.769571 0.082689
C4    C     C_R   0.367637 0.498733 0.500562 0.557207
C5    C     C_R   0.531692 0.987878 0.866161 0.214844
C6    C     C_R   0.486592 0.878328 0.869021 0.286293
C7    C     C_R   0.445996 0.852808 0.751624 0.277229
C8    C     C_R   0.465798 0.921211 0.628660 -0.058184
C9    C     C_R   0.488829 0.047695 0.638700 -0.082779
C10   C     C_R   0.489273 0.123542 0.513215 0.026208
C11   C     C_R   0.477114 0.063789 0.387501 -0.154701
C12   C     C_R   0.291370 0.495036 0.505533 -0.009073
C13   C     C_R   0.473493 0.936113 0.381248 -0.195546
C14   C     C_R   0.473020 0.863813 0.501665 -0.008748
C15   C     C_R   0.601519 0.647920 0.143414 -0.070381
C16   C     C_R   0.490170 0.734200 0.498954 0.554152
C17   C     C_R   0.662592 0.696405 0.080913 -0.141817
C18   C     C_R   0.672906 0.679280 0.942166 0.022563
C19   C     C_R   0.613865 0.642671 0.860759 0.321767
C20   C     C_R   0.555248 0.566968 0.924585 0.179649
C21   C     C_R   0.552630 0.568482 0.073920 0.092960
C22   C     C_R   0.444964 0.447553 0.073277 0.125434
C23   C     C_R   0.929631 0.475358 0.522109 0.384381
C24   C     C_R   0.444200 0.454274 0.926505 0.042344
C25   C     C_R   0.631953 0.490483 0.500190 0.596770
C26   C     C_R   0.256260 0.440649 0.622705 -0.181351
C27   C     C_R   0.184222 0.440220 0.637763 0.028609
C28   C     C_R   0.146078 0.491405 0.529328 -0.039970
C29   C     C_R   0.181174 0.545643 0.412461 -0.109710
C30   C     C_R   0.253470 0.550531 0.401095 0.278958
C31   C     C_2   0.503497 0.189429 0.843588 0.641546
C32   C     C_3   0.565406 0.006337 0.093578 -0.063835
C33   C     C_3   0.424772 0.776512 0.046924 -0.111183
C34   C     C_R   0.069901 0.486467 0.531323 0.367873
C35   C     C_3   0.332900 0.782788 0.715488 -0.127562
C36   C     C_2   0.382695 0.381881 0.139772 0.635313
C37   C     C_2   0.743248 0.711076 0.880913 0.575533
C38   C     C_3   0.637246 0.815567 0.707021 -0.064581
C39   C     C_2   0.152014 0.391461 0.770566 0.611480
C40   C     C_3   0.295383 0.736101 0.306947 -0.122401
C41   C     C_3   0.865194 0.457406 0.832820 -0.021113
C42   C     C_2   0.696585 0.336265 0.719600 0.655694
C43   C     C_3   0.706599 0.406856 0.190086 -0.072787
C44   C     C_2   0.863435 0.543674 0.262290 0.608864
C45   C     C_R   0.812097 0.421433 0.625661 0.230280
C46   C     C_R   0.738894 0.415871 0.617379 0.033821
C47   C     C_R   0.707509 0.470327 0.501014 -0.049601
C48   C     C_R   0.748871 0.500751 0.382131 0.211528
C49   C     C_R   0.821719 0.505828 0.388728 0.018270
Cu1   Cu    Cu3+1 0.500000 0.499990 0.640660 1.108397
Cu2   Cu    Cu3+1 0.500000 0.500010 0.359340 0.987701
H1    H     H_    0.285670 0.400800 0.704962 0.184098
H2    H     H_    0.600162 0.074130 0.150583 0.139052
H3    H     H_    0.570465 0.914005 0.141502 0.157073
H4    H     H_    0.402986 0.865580 0.064045 0.083495
H5    H     H_    0.432812 0.732002 0.149162 0.166602
H6    H     H_    0.386808 0.711838 0.993348 0.196505
H7    H     H_    0.331645 0.820929 0.607875 0.108884
H8    H     H_    0.315883 0.850170 0.789178 0.126425
H9    H     H_    0.294931 0.699627 0.722593 0.152401
H10   H     H_    0.341946 0.245078 0.269128 0.329735
H11   H     H_    0.807865 0.696555 0.719862 0.332396
H12   H     H_    0.471903 0.893675 0.282705 0.115462
H13   H     H_    0.687059 0.822730 0.649446 0.167585
H14   H     H_    0.644002 0.867219 0.803504 0.160338
H15   H     H_    0.601243 0.863202 0.640817 0.114886
H16   H     H_    0.157006 0.276753 0.937273 0.361637
H17   H     H_    0.341612 0.758759 0.372576 0.114204
H18   H     H_    0.248945 0.772570 0.352551 0.113503
H19   H     H_    0.304606 0.784606 0.205481 0.133915
H20   H     H_    0.820213 0.493191 0.883592 0.191985
H21   H     H_    0.899586 0.534899 0.784527 0.119897
H22   H     H_    0.895574 0.414374 0.914897 0.174513
H23   H     H_    0.595668 0.671643 0.248192 0.199149
H24   H     H_    0.688009 0.263048 0.913751 0.367806
H25   H     H_    0.675510 0.335606 0.255476 0.118255
H26   H     H_    0.756534 0.372947 0.159471 0.150188
H27   H     H_    0.676407 0.420994 0.094722 0.166616
H28   H     H_    0.943752 0.514528 0.138598 0.344223
H29   H     H_    0.702611 0.744485 0.142922 0.207257
H30   H     H_    0.398814 0.415657 0.871707 0.174347
H31   H     H_    0.152342 0.584935 0.328935 0.165668
H32   H     H_    0.474538 0.116469 0.291771 0.171525
H33   H     H_    0.538808 0.301350 0.995899 0.309723
H34   H     H_    0.511611 0.032310 0.104174 0.109854
N1    N     N_R   0.038118 0.586865 0.490882 -0.210107
N2    N     N_R   0.969183 0.581554 0.486915 -0.196387
N3    N     N_R   0.961359 0.374833 0.562459 -0.130659
N4    N     N_R   0.030348 0.380214 0.566623 -0.161142
N5    N     N_R   0.500660 0.501210 0.147910 -0.289043
N6    N     N_R   0.500680 0.501290 0.852040 -0.225832
O1    O     O_R   0.499990 0.319640 0.618810 -0.463677
O2    O     O_R   0.556471 0.253744 0.917973 -0.666462
O3    O     O_3   0.587541 0.008948 0.955330 -0.549550
O4    O     O_3   0.489134 0.792840 0.976832 -0.580009
O5    O     O_3   0.399142 0.748146 0.750127 -0.539815
O6    O     O_2   0.325160 0.409922 0.106968 -0.483075
O7    O     O_R   0.388606 0.283140 0.232497 -0.683696
O8    O     O_2   0.788081 0.773129 0.944285 -0.460585
O9    O     O_R   0.758743 0.667854 0.751335 -0.721013
O10   O     O_3   0.611048 0.689762 0.726333 -0.510508
O11   O     O_2   0.100207 0.432647 0.815155 -0.485578
O12   O     O_R   0.500000 0.319660 0.381240 -0.483864
O13   O     O_R   0.182855 0.301239 0.847905 -0.671579
O14   O     O_3   0.286156 0.608100 0.286174 -0.516414
O15   O     O_3   0.843009 0.366487 0.737556 -0.510305
O16   O     O_2   0.646053 0.270312 0.680638 -0.509813
O17   O     O_R   0.716923 0.329543 0.857800 -0.679801
O18   O     O_3   0.718012 0.520586 0.256271 -0.548021
O19   O     O_2   0.847965 0.629750 0.188509 -0.441494
O20   O     O_R   0.919445 0.479461 0.226086 -0.684540
O21   O     O_R   0.400140 0.499970 0.618820 -0.509354
O22   O     O_R   0.400150 0.500000 0.381250 -0.446701
O23   O     O_R   0.500000 0.680340 0.618760 -0.399475
O24   O     O_R   0.500010 0.680360 0.381190 -0.561482
O25   O     O_R   0.599850 0.500000 0.618750 -0.425800
O26   O     O_R   0.599860 0.500030 0.381180 -0.499837
O27   O     O_2   0.443071 0.210352 0.856464 -0.565788

loop_
_geom_bond_atom_site_label_1
_geom_bond_atom_site_label_2
_ccdc_geom_bond_type
C44   C49   S    
C33   H4    S    
C32   O3    S    
C24   N6    A    
C19   O10   S    
H10   O7    S    
C5    O3    S    
C39   O13   S    
C35   O5    S    
C43   H27   S    
C7    O5    S    
C26   C27   A    
Cu2   O22   S    
C40   H19   S    
C35   H7    S    
C28   C29   A    
C18   C37   S    
C38   O10   S    
Cu2   N5    S    
C34   N1    A    
C5    C6    A    
Cu2   O12   S    
C35   H8    S    
C18   C19   A    
C42   C46   S    
C38   H15   S    
C27   C39   S    
C8    C9    A    
C8    C14   A    
C36   O6    D    
C4    C12   S    
C9    C10   A    
C1    O12   A    
Cu1   O25   S    
C41   H20   S    
C33   H5    S    
C48   O18   S    
C4    O21   A    
C28   C34   S    
H24   O17   S    
C23   N2    A    
C13   C14   A    
C33   O4    S    
C32   H3    S    
H16   O13   S    
Cu1   Cu2   S    
C38   H13   S    
C21   N5    A    
C2    C45   A    
C20   N6    A    
C40   H18   S    
C4    O22   A    
C7    C8    A    
C41   O15   S    
C25   O25   A    
N1    N2    A    
C11   H32   S    
C31   O2    S    
C17   H29   S    
Cu2   O24   S    
C12   C26   A    
C35   H9    S    
Cu1   O23   S    
C24   H30   S    
C31   O27   D    
C29   C30   A    
C3    C9    A    
C2    C49   A    
C26   H1    S    
C47   C48   A    
C13   H12   S    
C38   H14   S    
Cu1   O21   S    
C17   C18   A    
C22   N5    A    
N3    N4    A    
C3    C31   S    
C41   H21   S    
H11   O9    S    
Cu1   O1    S    
C48   C49   A    
C1    O1    A    
C23   N3    A    
C30   O14   S    
C14   C16   S    
C16   O24   A    
C32   H2    S    
C37   O8    D    
C45   O15   S    
C39   O11   D    
C42   O16   D    
C25   O26   A    
C43   H25   S    
C15   C17   A    
C25   C47   S    
C46   C47   A    
C33   H6    S    
C12   C30   A    
C1    C10   S    
C3    C5    A    
C16   O23   A    
C6    C7    A    
C43   H26   S    
C22   C36   S    
H28   O20   S    
C19   C20   A    
C34   N4    A    
C29   H31   S    
C11   C13   A    
C32   H34   S    
Cu2   O26   S    
C22   C24   A    
H33   O2    S    
C10   C11   A    
C41   H22   S    
C44   O20   S    
C45   C46   A    
Cu1   N6    S    
C15   C21   A    
C15   H23   S    
C20   C21   A    
C6    O4    S    
C40   H17   S    
C2    C23   S    
C36   O7    S    
C43   O18   S    
C42   O17   S    
C37   O9    S    
C40   O14   S    
C27   C28   A    
C44   O19   D    
