data_mof_unit_31687.cif
_audit_creation_date              2012-12-10T18:04:03-0500
_audit_creation_method            fapswitch 2.2
_symmetry_space_group_name_H-M    P1
_symmetry_Int_Tables_number       1
_space_group_crystal_system       triclinic
_cell_length_a                    10.808261
_cell_length_b                    9.624216
_cell_length_c                    10.898685
_cell_angle_alpha                 90.521041
_cell_angle_beta                  91.516967
_cell_angle_gamma                 89.83361
_cell_volume                      1133.24432245

loop_
_atom_site_label
_atom_site_type_symbol
_atom_type_description
_atom_site_fract_x
_atom_site_fract_y
_atom_site_fract_z
_atom_type_partial_charge
C1    C     C_R   0.262836 0.499688 0.496908 0.955060
C2    C     C_R   0.737668 0.499522 0.500008 0.941306
C3    C     C_R   0.400800 0.072621 0.453292 0.355626
C4    C     C_R   0.593960 0.075327 0.557622 0.402384
C5    C     C_R   0.407179 0.923523 0.439749 0.401745
C6    C     C_R   0.587409 0.925934 0.565958 0.376953
C7    C     C_R   0.502869 0.499482 0.262471 0.849352
C8    C     C_R   0.504035 0.500868 0.737389 0.853649
C9    C     C_R   0.485217 0.620281 0.064219 0.084132
C10   C     C_R   0.481945 0.620403 0.937656 0.050291
C11   C     C_R   0.515516 0.500164 0.129244 -0.269301
C12   C     C_R   0.517865 0.503817 0.870695 -0.283080
C13   C     C_R   0.563337 0.385481 0.063657 0.361122
C14   C     C_R   0.575198 0.393753 0.935244 0.330894
C15   C     C_3   0.365781 0.704539 0.931192 -0.450916
C16   C     C_3   0.371274 0.706918 0.069966 -0.454831
C17   C     C_R   0.062763 0.430245 0.402385 0.246535
C18   C     C_R   0.933063 0.419808 0.408633 0.257967
C19   C     C_R   0.872238 0.497745 0.499666 -0.330290
C20   C     C_R   0.129073 0.498387 0.496588 -0.305756
C21   C     C_R   0.939410 0.566447 0.594910 0.331372
C22   C     C_R   0.069353 0.553515 0.597646 0.340612
Cu1   Cu    Cu3+1 0.500000 0.640660 0.500000 1.036324
Cu2   Cu    Cu3+1 0.500000 0.359340 0.500000 1.048234
H1    H     H_    0.376957 0.808867 0.891427 0.184797
H2    H     H_    0.293459 0.652030 0.111134 0.191495
H3    H     H_    0.285408 0.646039 0.893415 0.231542
H4    H     H_    0.391539 0.810632 0.109723 0.208180
N1    N     N_R   0.500000 0.852070 0.500000 -0.274416
N2    N     N_R   0.500000 0.147940 0.500000 -0.278878
O1    O     O_R   0.319640 0.618740 0.499990 -0.531432
O2    O     O_R   0.680360 0.618740 0.500010 -0.539417
O3    O     O_R   0.319620 0.381170 0.499990 -0.526091
O4    O     O_R   0.680380 0.381170 0.500010 -0.528964
O5    O     O_R   0.499990 0.618810 0.319660 -0.571747
O6    O     O_R   0.500010 0.618810 0.680340 -0.551052
O7    O     O_R   0.499960 0.381240 0.319650 -0.546942
O8    O     O_R   0.500040 0.381240 0.680350 -0.544901
O9    O     O_3   0.597480 0.264964 0.123636 -0.545902
C23   C     C_3   0.508000 0.160320 0.097943 0.138500
H5    H     H_    0.440364 0.185112 0.021741 0.115597
H6    H     H_    0.453437 0.144218 0.181362 0.152531
C24   C     C_3   0.572516 0.024879 0.064863 -0.848883
H7    H     H_    0.598577 0.966406 0.149071 0.229760
H8    H     H_    0.510101 0.960290 0.006367 0.199870
H9    H     H_    0.656548 0.045685 0.012100 0.272702
O10   O     O_3   0.642605 0.293652 0.874500 -0.542643
C25   C     C_3   0.765099 0.342842 0.860089 0.180078
H10   H     H_    0.781660 0.452770 0.890447 0.119305
H11   H     H_    0.786508 0.339249 0.761303 0.194289
C26   C     C_3   0.856179 0.249780 0.929738 -0.873952
H12   H     H_    0.952310 0.275949 0.905736 0.191045
H13   H     H_    0.846280 0.266045 0.029805 0.272134
H14   H     H_    0.839069 0.138990 0.906098 0.239245
O11   O     O_3   0.126992 0.361500 0.312300 -0.548530
C27   C     C_3   0.120091 0.439758 0.203973 0.085498
H15   H     H_    0.155322 0.546691 0.221481 0.122575
H16   H     H_    0.023327 0.446017 0.166703 0.166199
C28   C     C_3   0.199216 0.368494 0.108830 -0.857057
H17   H     H_    0.155619 0.269332 0.078135 0.233238
H18   H     H_    0.209493 0.436967 0.028928 0.194665
H19   H     H_    0.292327 0.345987 0.148829 0.259607
O12   O     O_3   0.863346 0.342066 0.323356 -0.560555
C29   C     C_3   0.908611 0.203710 0.314836 0.158493
H20   H     H_    0.953282 0.166809 0.401690 0.111878
H21   H     H_    0.976503 0.194947 0.240525 0.181505
C30   C     C_3   0.803460 0.105458 0.281256 -0.810132
H22   H     H_    0.831758 0.996518 0.300053 0.173805
H23   H     H_    0.719852 0.131197 0.333922 0.285023
H24   H     H_    0.782154 0.113824 0.182124 0.274064
O13   O     O_3   0.874908 0.627130 0.690903 -0.575605
C31   C     C_3   0.931751 0.751356 0.733851 -0.181397
H25   H     H_    0.862288 0.816267 0.779579 0.162790
H26   H     H_    0.970634 0.814056 0.658564 0.136870
H27   H     H_    0.002523 0.729621 0.806606 0.180854
O14   O     O_3   0.138157 0.576550 0.704279 -0.589260
C32   C     C_3   0.132798 0.456205 0.777790 -0.383778
H28   H     H_    0.074050 0.478728 0.857491 0.189769
H29   H     H_    0.227670 0.430419 0.811571 0.171975
H30   H     H_    0.096812 0.360645 0.730091 0.136986
O15   O     O_3   0.288641 0.138365 0.435591 -0.513908
C33   C     C_3   0.217609 0.115872 0.541091 -0.275952
H31   H     H_    0.190553 0.005010 0.549322 0.146457
H32   H     H_    0.131303 0.177749 0.533216 0.161785
H33   H     H_    0.267384 0.150882 0.626717 0.151469
O16   O     O_3   0.682804 0.150712 0.623570 -0.516521
C34   C     C_3   0.804067 0.099526 0.606519 -0.275048
H34   H     H_    0.837661 0.046065 0.690499 0.160181
H35   H     H_    0.866417 0.189187 0.594014 0.151361
H36   H     H_    0.813544 0.028257 0.526424 0.148294
O17   O     O_3   0.313091 0.844540 0.383439 -0.536509
C35   C     C_3   0.244397 0.912795 0.289660 -0.280916
H37   H     H_    0.163400 0.967633 0.327606 0.197470
H38   H     H_    0.204117 0.833189 0.226688 0.144830
H39   H     H_    0.301698 0.983420 0.234737 0.146381
O18   O     O_3   0.662523 0.854982 0.648221 -0.527910
C36   C     C_3   0.622151 0.884305 0.768007 -0.252151
H40   H     H_    0.652451 0.799030 0.829579 0.181879
H41   H     H_    0.519830 0.892777 0.772868 0.138914
H42   H     H_    0.664495 0.981664 0.803777 0.185181

loop_
_geom_bond_atom_site_label_1
_geom_bond_atom_site_label_2
_ccdc_geom_bond_type
C16   H4    S    
C34   H34   S    
C22   O14   S    
O11   C27   S    
C36   H40   S    
C1    O3    A    
C32   H28   S    
C7    C11   S    
C21   O13   S    
Cu1   N1    S    
C19   C21   A    
C9    C16   S    
C10   C15   S    
C18   O12   S    
C15   H1    S    
C4    O16   S    
C15   C16   S    
C1    O1    A    
C17   C20   A    
C27   H15   S    
C2    O2    A    
C18   C19   A    
C8    O6    A    
C33   H32   S    
C25   C26   S    
C28   H19   S    
C3    O15   S    
Cu2   O8    S    
Cu1   Cu2   S    
C9    C10   A    
C17   O11   S    
C2    O4    A    
C25   H11   S    
C28   H17   S    
C13   C14   A    
C8    O8    A    
C31   H27   S    
C36   H41   S    
C17   C18   A    
C5    N1    A    
C32   H29   S    
C16   H2    S    
C28   H18   S    
C30   H22   S    
C29   C30   S    
O14   C32   S    
C31   H26   S    
O17   C35   S    
O16   C34   S    
O15   C33   S    
C35   H39   S    
Cu2   O4    S    
C26   H12   S    
C30   H23   S    
C29   H21   S    
C3    N2    A    
C24   H7    S    
C9    C11   A    
C15   H3    S    
O10   C25   S    
C8    C12   S    
O18   C36   S    
C23   C24   S    
C35   H38   S    
Cu2   O7    S    
C7    O7    A    
C24   H8    S    
C5    O17   S    
C10   C12   A    
C4    C6    A    
C25   H10   S    
C20   C22   A    
Cu1   O6    S    
C6    O18   S    
C34   H35   S    
O9    C23   S    
C36   H42   S    
C32   H30   S    
C23   H5    S    
C1    C20   S    
C2    C19   S    
C7    O5    A    
C12   C14   A    
C31   H25   S    
C3    C5    A    
C14   O10   S    
C33   H33   S    
Cu1   O5    S    
Cu2   O3    S    
C27   C28   S    
C26   H14   S    
C29   H20   S    
C30   H24   S    
O13   C31   S    
Cu1   O2    S    
C11   C13   A    
C23   H6    S    
C35   H37   S    
C27   H16   S    
C24   H9    S    
Cu2   N2    S    
C13   O9    S    
O12   C29   S    
C6    N1    A    
C33   H31   S    
C34   H36   S    
C26   H13   S    
C21   C22   A    
C4    N2    A    
Cu1   O1    S    
