data_mof_unit_34904.cif
_audit_creation_date              2012-12-10T19:44:40-0500
_audit_creation_method            fapswitch 2.2
_symmetry_space_group_name_H-M    P1
_symmetry_Int_Tables_number       1
_space_group_crystal_system       triclinic
_cell_length_a                    8.581892
_cell_length_b                    14.928235
_cell_length_c                    14.238014
_cell_angle_alpha                 88.434706
_cell_angle_beta                  98.110963
_cell_angle_gamma                 91.383407
_cell_volume                      1804.76759869

loop_
_atom_site_label
_atom_site_type_symbol
_atom_type_description
_atom_site_fract_x
_atom_site_fract_y
_atom_site_fract_z
_atom_type_partial_charge
C1    C     C_R   0.504828 0.327149 0.501842 0.894999
C2    C     C_R   0.382923 0.456124 0.887414 -0.193736
C3    C     C_R   0.501850 0.498977 0.053475 0.089876
C4    C     C_R   0.503002 0.499807 0.947048 0.089880
C5    C     C_R   0.201347 0.500220 0.475331 0.966494
C6    C     C_R   0.798646 0.500704 0.524614 0.979584
C7    C     C_2   0.036484 0.500480 0.461872 -0.387581
C8    C     C_2   0.963484 0.502199 0.537898 -0.350553
C9    C     C_R   0.519285 0.082828 0.577883 -0.112562
C10   C     C_R   0.437639 0.912474 0.429313 -0.088831
C11   C     C_R   0.502575 0.174699 0.584443 -0.020769
C12   C     C_R   0.498666 0.672018 0.498597 0.856188
C13   C     C_R   0.410946 0.820211 0.431387 -0.043602
C14   C     C_R   0.528779 0.230616 0.505587 -0.184491
C15   C     C_R   0.512606 0.767817 0.496056 -0.168890
C16   C     C_R   0.580200 0.193204 0.425868 -0.225921
C17   C     C_R   0.638380 0.806512 0.555570 -0.218308
C18   C     C_R   0.599476 0.101914 0.421467 0.427631
C19   C     C_R   0.664017 0.898167 0.552759 0.430111
C20   C     C_R   0.566398 0.046990 0.497252 0.001682
C21   C     C_R   0.561849 0.950927 0.490176 0.006569
C22   C     C_2   0.458309 0.207622 0.674227 0.438900
C23   C     C_R   0.429410 0.428996 0.101695 -0.238524
C24   C     C_2   0.273219 0.780578 0.369997 0.489139
C25   C     C_2   0.665153 0.639841 0.262111 0.436807
C26   C     C_2   0.261533 0.399536 0.731821 0.419278
C27   C     C_R   0.622044 0.544205 0.903155 -0.233933
C28   C     C_R   0.428026 0.431442 0.200462 0.022418
C29   C     C_R   0.617199 0.544380 0.803713 0.044508
C30   C     C_R   0.574874 0.568038 0.207797 0.094662
C31   C     C_R   0.384249 0.454424 0.788589 0.090762
C32   C     C_R   0.572642 0.569150 0.108556 -0.200119
Cl1   Cl    Cl    0.662892 0.058216 0.319852 -0.517224
Cl2   Cl    Cl    0.823599 0.945009 0.628485 -0.542995
H1    H     H_    0.975545 0.498647 0.389519 0.181889
H2    H     H_    0.708979 0.579277 0.771564 0.144865
H3    H     H_    0.628215 0.624780 0.074888 0.184940
H4    H     H_    0.287932 0.422309 0.917515 0.183179
H5    H     H_    0.513334 0.267210 0.706866 0.088511
H6    H     H_    0.239116 0.710780 0.378845 0.055200
H7    H     H_    0.719850 0.627950 0.334071 0.113481
H8    H     H_    0.279966 0.373473 0.664685 0.121873
H9    H     H_    0.024316 0.504640 0.610162 0.201994
H10   H     H_    0.494414 0.038267 0.635690 0.204878
H11   H     H_    0.357999 0.955353 0.383384 0.208938
H12   H     H_    0.605121 0.234810 0.366002 0.197354
H13   H     H_    0.717665 0.765107 0.603467 0.177867
H14   H     H_    0.375460 0.371648 0.064174 0.160030
H15   H     H_    0.720135 0.577857 0.944894 0.152146
H16   H     H_    0.370805 0.377491 0.235695 0.150009
N1    N     N_R   0.500000 0.499980 0.252470 -0.142364
N2    N     N_R   0.500000 0.500020 0.747530 -0.145514
O1    O     O_R   0.500010 0.369070 0.579480 -0.671768
O2    O     O_2   0.194825 0.825844 0.308854 -0.503706
O3    O     O_2   0.683281 0.713692 0.225685 -0.523030
O4    O     O_2   0.137373 0.380485 0.760974 -0.566488
O5    O     O_R   0.499990 0.630930 0.420520 -0.651403
O6    O     O_R   0.500010 0.369060 0.420520 -0.617623
O7    O     O_R   0.499990 0.630940 0.579480 -0.603277
O8    O     O_R   0.271750 0.500000 0.560890 -0.644610
O9    O     O_R   0.728250 0.500000 0.439110 -0.647877
O10   O     O_R   0.271750 0.499990 0.401930 -0.618323
O11   O     O_R   0.728250 0.500010 0.598070 -0.614601
O12   O     O_2   0.363031 0.165691 0.715254 -0.515737
Zn1   Zn    Zn3+2 0.500000 0.500010 0.606140 0.945625
Zn2   Zn    Zn3+2 0.500000 0.499990 0.393860 0.942094

loop_
_geom_bond_atom_site_label_1
_geom_bond_atom_site_label_2
_ccdc_geom_bond_type
C6    O11   A    
O8    Zn1   S    
C24   O2    D    
C2    C4    A    
C30   N1    A    
C8    H9    S    
C23   H14   S    
C27   C29   A    
O1    Zn1   S    
C32   H3    S    
C2    H4    S    
C11   C22   S    
C3    C23   A    
C31   N2    A    
C12   C15   S    
O5    Zn2   S    
C10   H11   S    
O11   Zn1   S    
C5    C7    S    
C7    C8    D    
C11   C14   A    
C10   C13   A    
C23   C28   A    
O7    Zn1   S    
C30   C32   A    
C9    C11   A    
C29   H2    S    
C28   H16   S    
C12   O5    A    
C13   C24   S    
C6    O9    A    
C17   C19   A    
O6    Zn2   S    
C5    O10   A    
C18   C20   A    
C13   C15   A    
C10   C21   A    
C16   H12   S    
C3    C32   A    
C29   N2    A    
C28   N1    A    
C14   C16   A    
O10   Zn2   S    
C18   Cl1   S    
C22   H5    S    
C22   O12   D    
C3    C4    S    
C25   O3    D    
C26   C31   S    
C4    C27   A    
C20   C21   S    
C26   H8    S    
C16   C18   A    
C25   H7    S    
C25   C30   S    
C15   C17   A    
C1    O1    A    
C9    H10   S    
C6    C8    S    
C1    C14   S    
C9    C20   A    
C5    O8    A    
C24   H6    S    
C1    O6    A    
C12   O7    A    
C7    H1    S    
O9    Zn2   S    
N1    Zn2   S    
N2    Zn1   S    
C27   H15   S    
C17   H13   S    
C2    C31   A    
C19   C21   A    
C19   Cl2   S    
C26   O4    D    
