data_mof_unit_15828.cif
_audit_creation_date              2013-03-05T15:50:13-0500
_audit_creation_method            fapswitch 2.2
_symmetry_space_group_name_H-M    P1
_symmetry_Int_Tables_number       1
_space_group_crystal_system       triclinic
_cell_length_a                    15.059968
_cell_length_b                    15.072456
_cell_length_c                    34.929632
_cell_angle_alpha                 90.540389
_cell_angle_beta                  90.024202
_cell_angle_gamma                 60.066616
_cell_volume                      6870.67220123

loop_
_atom_site_label
_atom_site_type_symbol
_atom_site_description
_atom_site_fract_x
_atom_site_fract_y
_atom_site_fract_z
_atom_type_partial_charge
O1    O     O_R   0.502070 0.323090 0.541280 -0.519972
O2    O     O_R   0.338340 0.520690 0.539540 -0.502624
C1    C     C_R   0.302295 0.608297 0.555659 0.543915
O3    O     O_R   0.324760 0.674070 0.543580 -0.520007
O4    O     O_R   0.522400 0.640310 0.540110 -0.502399
C2    C     C_R   0.610785 0.588474 0.555195 0.545949
O5    O     O_R   0.675940 0.500630 0.542210 -0.519443
O6    O     O_R   0.641790 0.337020 0.538150 -0.502149
C3    C     C_R   0.590511 0.300186 0.553454 0.544625
O7    O     O_R   0.500260 0.324550 0.456580 -0.519591
O8    O     O_R   0.336660 0.522040 0.461020 -0.502901
C4    C     C_R   0.301222 0.609740 0.445767 0.543422
O9    O     O_R   0.322940 0.675540 0.458880 -0.520411
O10   O     O_R   0.520720 0.641670 0.461580 -0.502100
C5    C     C_R   0.607622 0.589380 0.445104 0.542242
O11   O     O_R   0.674120 0.502090 0.457500 -0.521558
O12   O     O_R   0.640110 0.338380 0.459630 -0.504214
C6    C     C_R   0.587314 0.303932 0.443468 0.543805
Cr1   Cr    Cr6+3 0.421670 0.426920 0.499620 1.010961
Cr2   Cr    Cr6+3 0.427030 0.651190 0.500980 1.011538
Cr3   Cr    Cr6+3 0.651280 0.421870 0.499380 1.010492
O13   O     O_3   0.499990 0.499990 0.499990 -0.235488
N1    N     N_R   0.750679 0.597812 0.767581 -0.232332
N2    N     N_R   0.746531 0.595032 0.729612 -0.234206
C7    C     C_R   0.632147 0.623511 0.591733 0.021899
C8    C     C_R   0.726889 0.564051 0.609800 -0.130742
C9    C     C_R   0.739751 0.582981 0.647900 -0.122753
C10   C     C_R   0.658152 0.661790 0.668615 0.032615
C11   C     C_R   0.566425 0.726921 0.649562 -0.123358
C12   C     C_R   0.553500 0.707908 0.611404 -0.132998
N3    N     N_R   0.588854 0.746908 0.730821 -0.236040
N4    N     N_R   0.593131 0.749833 0.768836 -0.234702
C13   C     C_R   0.673843 0.674911 0.787980 0.343958
C14   C     C_R   0.665706 0.669582 0.710447 0.342635
C15   C     C_R   0.762304 0.599079 0.849516 -0.120092
C16   C     C_R   0.778557 0.609728 0.888128 -0.128220
C17   C     C_R   0.628330 0.779088 0.889029 -0.129657
C18   C     C_R   0.611904 0.768300 0.850413 -0.121407
C19   C     C_R   0.681238 0.679911 0.829929 0.032517
C20   C     C_R   0.714297 0.701596 0.907794 0.022222
H1    H     H_    0.789333 0.499158 0.595229 0.130031
H2    H     H_    0.479754 0.755468 0.598144 0.129034
H3    H     H_    0.844983 0.548296 0.901892 0.133089
H4    H     H_    0.812080 0.532597 0.661586 0.134218
H5    H     H_    0.502524 0.789062 0.664644 0.134363
H6    H     H_    0.816032 0.529200 0.834668 0.140118
H7    H     H_    0.577086 0.850625 0.903495 0.131454
H8    H     H_    0.547986 0.831448 0.836219 0.136216
C21   C     C_R   0.725410 0.069818 0.905011 -0.021585
C22   C     C_R   0.636079 0.099407 0.883819 -0.137480
C23   C     C_R   0.634573 0.117331 0.844799 -0.167731
C24   C     C_R   0.722162 0.105891 0.826132 0.006250
C25   C     C_R   0.811163 0.081739 0.847523 0.218512
C26   C     C_R   0.810905 0.065655 0.886994 -0.111522
C27   C     C_R   0.733437 0.193319 0.767691 -0.053532
C28   C     C_R   0.725522 0.206559 0.728163 -0.102364
C29   C     C_R   0.701515 0.144910 0.704862 0.023714
C30   C     C_R   0.687634 0.068444 0.721625 -0.114358
C31   C     C_R   0.695934 0.055009 0.761136 -0.103711
C32   C     C_R   0.718210 0.117797 0.784353 0.063145
C33   C     C_R   0.595134 0.174258 0.646589 -0.119843
C34   C     C_R   0.568208 0.211459 0.609501 -0.125397
C35   C     C_R   0.721204 0.225783 0.605043 -0.126360
C36   C     C_R   0.747864 0.188915 0.642141 -0.118749
C37   C     C_R   0.683185 0.166342 0.663663 0.030207
C38   C     C_R   0.629047 0.241203 0.588946 0.021103
H9    H     H_    0.568934 0.103554 0.896934 0.140706
H10   H     H_    0.880729 0.041825 0.902993 0.162773
H11   H     H_    0.817021 0.181761 0.654574 0.114231
H12   H     H_    0.734606 0.267354 0.715944 0.115397
H13   H     H_    0.749671 0.242931 0.785362 0.134660
H14   H     H_    0.565571 0.137232 0.828780 0.119576
H15   H     H_    0.669480 0.019852 0.704195 0.114578
H16   H     H_    0.684315 0.996108 0.773705 0.120883
H17   H     H_    0.543768 0.157753 0.662724 0.106631
H18   H     H_    0.496904 0.222242 0.597814 0.127618
H19   H     H_    0.770151 0.247232 0.589795 0.127759
C39   C     C_R   0.090759 0.698301 0.910716 0.054226
C40   C     C_R   0.109937 0.765991 0.889516 -0.144816
C41   C     C_R   0.131674 0.749918 0.850584 -0.116523
C42   C     C_R   0.136324 0.665057 0.831989 0.003550
C43   C     C_R   0.127831 0.591585 0.853485 -0.108919
C44   C     C_R   0.105059 0.607409 0.892755 0.092960
C45   C     C_R   0.212041 0.565241 0.771571 -0.106860
C46   C     C_R   0.220467 0.560489 0.731742 -0.105405
C47   C     C_R   0.159556 0.647747 0.709698 0.028286
C48   C     C_R   0.087880 0.738836 0.728079 -0.104025
C49   C     C_R   0.079729 0.743592 0.767840 -0.096917
C50   C     C_R   0.143067 0.657451 0.789910 0.025441
C51   C     C_R   0.184602 0.726056 0.651084 -0.115905
C52   C     C_R   0.218346 0.717134 0.613362 -0.124780
C53   C     C_R   0.231096 0.550698 0.608133 -0.126663
C54   C     C_R   0.197403 0.559653 0.645878 -0.120077
C55   C     C_R   0.177467 0.645746 0.668084 0.031330
C56   C     C_R   0.245728 0.627621 0.592031 0.020846
H20   H     H_    0.101124 0.835677 0.902325 0.154203
H21   H     H_    0.190684 0.497554 0.658179 0.107098
H22   H     H_    0.277482 0.489700 0.718300 0.107969
H23   H     H_    0.261595 0.497978 0.788086 0.106854
H24   H     H_    0.140722 0.806214 0.834616 0.158134
H25   H     H_    0.039078 0.806674 0.711712 0.122332
H26   H     H_    0.024057 0.814755 0.781434 0.165869
H27   H     H_    0.170320 0.793045 0.667647 0.114819
H28   H     H_    0.228633 0.777776 0.601727 0.128555
H29   H     H_    0.132972 0.524740 0.839450 0.109143
H30   H     H_    0.250823 0.481087 0.592303 0.125939
C57   C     C_R   0.690774 0.717821 0.090173 0.020539
C58   C     C_R   0.603881 0.799170 0.107698 -0.127618
C59   C     C_R   0.575611 0.789231 0.144782 -0.122983
C60   C     C_R   0.633544 0.697765 0.164900 0.030685
C61   C     C_R   0.715754 0.614135 0.146269 -0.117226
C62   C     C_R   0.744033 0.624030 0.109270 -0.123096
C63   C     C_R   0.627974 0.602214 0.222267 -0.120144
C64   C     C_R   0.627337 0.592110 0.261886 -0.120027
C65   C     C_R   0.614740 0.672292 0.286248 0.026617
C66   C     C_R   0.598061 0.764440 0.270393 -0.116416
C67   C     C_R   0.599320 0.774372 0.230754 -0.113360
C68   C     C_R   0.616519 0.692525 0.206327 0.028421
C69   C     C_R   0.546632 0.733059 0.352360 -0.122985
C70   C     C_R   0.546870 0.714288 0.391434 -0.126439
C71   C     C_R   0.701115 0.549696 0.382872 -0.125064
C72   C     C_R   0.700234 0.568120 0.343823 -0.121934
C73   C     C_R   0.621215 0.658434 0.328088 0.029812
C74   C     C_R   0.622174 0.620846 0.406830 0.022674
H31   H     H_    0.560938 0.872278 0.093623 0.126719
H32   H     H_    0.811038 0.559780 0.096469 0.130182
H33   H     H_    0.759686 0.510384 0.325668 0.104537
H34   H     H_    0.637872 0.521150 0.273555 0.107572
H35   H     H_    0.639688 0.538590 0.204104 0.105686
H36   H     H_    0.510870 0.854335 0.158285 0.102132
H37   H     H_    0.588268 0.827163 0.288683 0.105101
H38   H     H_    0.591794 0.844326 0.219328 0.106492
H39   H     H_    0.485129 0.803417 0.340798 0.101379
H40   H     H_    0.484860 0.770457 0.409141 0.121639
H41   H     H_    0.762426 0.542932 0.161128 0.106141
H42   H     H_    0.760050 0.476845 0.393758 0.125398
C75   C     C_R   0.698609 0.103304 0.087510 0.021846
C76   C     C_R   0.773169 0.121776 0.103891 -0.127741
C77   C     C_R   0.758848 0.163854 0.140587 -0.123029
C78   C     C_R   0.669789 0.188208 0.161432 0.031575
C79   C     C_R   0.591372 0.178350 0.143765 -0.120339
C80   C     C_R   0.605641 0.136235 0.107050 -0.126797
C81   C     C_R   0.573291 0.284301 0.220121 -0.099607
C82   C     C_R   0.564936 0.294946 0.260146 0.107919
C83   C     C_R   0.649274 0.228252 0.282979 0.052494
C84   C     C_R   0.741510 0.156427 0.265529 -0.148034
C85   C     C_R   0.749163 0.146994 0.225893 -0.127135
C86   C     C_R   0.664672 0.209400 0.202897 0.006298
C87   C     C_R   0.714042 0.243200 0.346883 -0.134352
C88   C     C_R   0.701684 0.256912 0.386412 -0.128275
C89   C     C_R   0.549912 0.240053 0.382989 -0.129481
C90   C     C_R   0.562510 0.226194 0.343459 -0.093034
C91   C     C_R   0.642165 0.231931 0.325047 0.043753
C92   C     C_R   0.616947 0.259868 0.404626 0.021264
H43   H     H_    0.845087 0.098416 0.089309 0.125374
H44   H     H_    0.546492 0.123621 0.095037 0.126854
H45   H     H_    0.507992 0.214632 0.327051 0.135315
H46   H     H_    0.508397 0.333605 0.202394 0.099934
H47   H     H_    0.819591 0.172493 0.153459 0.102434
H48   H     H_    0.806781 0.105120 0.282709 0.109252
H49   H     H_    0.819938 0.087515 0.213284 0.113386
H50   H     H_    0.776701 0.246629 0.333123 0.100911
H51   H     H_    0.754684 0.271978 0.402255 0.125520
H52   H     H_    0.522138 0.196171 0.159330 0.104251
H53   H     H_    0.484110 0.241540 0.396181 0.125734
C93   C     C_R   0.088510 0.705699 0.092929 0.000964
C94   C     C_R   0.117056 0.607248 0.106087 -0.105098
C95   C     C_R   0.160329 0.575837 0.142495 0.105375
C96   C     C_R   0.173688 0.644883 0.165991 0.054579
C97   C     C_R   0.152500 0.739919 0.151489 -0.150375
C98   C     C_R   0.110568 0.769990 0.115252 -0.138318
C99   C     C_R   0.269307 0.644500 0.224331 -0.137488
C100  C     C_R   0.277818 0.643415 0.264048 -0.127078
C101  C     C_R   0.213250 0.623515 0.286974 0.029825
C102  C     C_R   0.143133 0.600472 0.269667 -0.121835
C103  C     C_R   0.134142 0.602260 0.229980 -0.086492
C104  C     C_R   0.196070 0.625806 0.207079 0.042405
C105  C     C_R   0.223392 0.549564 0.351385 -0.114230
C106  C     C_R   0.240938 0.548250 0.390595 -0.125073
C107  C     C_R   0.239770 0.709230 0.385682 -0.125303
C108  C     C_R   0.222767 0.710166 0.346487 -0.123439
C109  C     C_R   0.218320 0.628472 0.328896 0.033607
C110  C     C_R   0.253631 0.625917 0.407789 0.022110
H54   H     H_    0.102584 0.556107 0.088598 0.120704
H55   H     H_    0.090015 0.846002 0.105694 0.134988
H56   H     H_    0.216681 0.772950 0.329652 0.104679
H57   H     H_    0.334006 0.659228 0.276915 0.113090
H58   H     H_    0.317702 0.662799 0.207101 0.109816
H59   H     H_    0.092448 0.585344 0.286890 0.104423
H60   H     H_    0.075361 0.590159 0.217275 0.142862
H61   H     H_    0.219747 0.486009 0.338314 0.111952
H62   H     H_    0.251229 0.483032 0.406899 0.124403
H63   H     H_    0.162207 0.793857 0.169196 0.109823
H64   H     H_    0.248917 0.770304 0.398084 0.127769
O14   O     O_R   0.017640 0.822070 0.960410 -0.531785
O15   O     O_R   0.822000 0.989470 0.960340 -0.503707
C111  C     C_R   0.736217 0.025146 0.943253 0.546772
O16   O     O_R   0.666920 0.007430 0.955290 -0.515877
O17   O     O_R   0.694410 0.812480 0.959650 -0.503981
C112  C     C_R   0.745924 0.722880 0.945060 0.543900
O18   O     O_R   0.831550 0.656950 0.958960 -0.510699
O19   O     O_R   0.998590 0.685540 0.963930 -0.456147
C113  C     C_R   0.038200 0.733985 0.948221 0.561194
O20   O     O_R   0.008220 0.831200 0.045060 -0.518372
O21   O     O_R   0.813270 0.997930 0.038810 -0.501718
C114  C     C_R   0.722985 0.038865 0.052818 0.544080
O22   O     O_R   0.657500 0.016560 0.039940 -0.520380
O23   O     O_R   0.685680 0.820940 0.038120 -0.502715
C115  C     C_R   0.733357 0.734392 0.054677 0.542302
O24   O     O_R   0.822130 0.666070 0.043610 -0.518257
O25   O     O_R   0.989860 0.694000 0.042400 -0.502655
C116  C     C_R   0.027924 0.744559 0.057771 0.544295
Cr4   Cr    Cr6+3 0.910810 0.908010 0.001130 1.017947
Cr5   Cr    Cr6+3 0.682800 0.909890 0.998370 1.014016
Cr6   Cr    Cr6+3 0.908370 0.682300 0.002180 1.036530
O26   O     O_3   0.833990 0.833400 0.000560 -0.242938
N5    N     N_R   0.903968 0.066468 0.829624 0.064516
O27   O     O_R   0.967549 0.084347 0.848843 -0.355535
O28   O     O_R   0.932058 0.022247 0.796172 -0.363919
N6    N     N_3   0.091972 0.533355 0.913642 -0.601549
H65   H     H_    0.159605 0.462785 0.911108 0.220226
H66   H     H_    0.033219 0.526122 0.900702 0.230187
N7    N     N_3   0.471680 0.372810 0.277696 -0.640219
H67   H     H_    0.415717 0.411801 0.256962 0.235166
H68   H     H_    0.487376 0.426539 0.290418 0.235247
N8    N     N_3   0.187993 0.475704 0.156202 -0.647599
H69   H     H_    0.170618 0.435508 0.135801 0.221024
H70   H     H_    0.267565 0.435235 0.159514 0.227550

loop_
_geom_bond_atom_site_label_1
_geom_bond_atom_site_label_2
_geom_bond_distance
_ccdc_geom_bond_type
C76   H43   1.083039 S    
C99   C104  1.401930 A    
O25   Cr6   1.928915 S    
C75   C80   1.404777 A    
C54   C55   1.402864 A    
C44   N6    1.432459 S    
O17   Cr5   1.929234 S    
C96   C97   1.402734 A    
C61   C62   1.393300 A    
C101  C109  1.469418 S    
C52   H28   1.083029 S    
C48   C49   1.392319 A    
C78   C86   1.473970 S    
N6    H66   1.045987 S    
C42   C43   1.401287 A    
C51   C52   1.393389 A    
C87   C88   1.392908 A    
O4    Cr2   1.930131 S    
C21   C111  1.473630 S    
C25   C26   1.402464 A    
C33   H17   1.083047 S    
C88   H51   1.083079 S    
O8    Cr1   1.927589 S    
C8    C9    1.392049 A    
C69   H39   1.083100 S    
C63   H35   1.083049 S    
C10   C11   1.404666 A    
C17   C18   1.393798 A    
O7    C6    1.271348 A    
C84   C85   1.389365 A    
C17   C20   1.405206 A    
C95   N8    1.437564 S    
O4    C2    1.276368 A    
C41   C42   1.399212 A    
Cr5   O26   1.975127 S    
C43   H29   1.083626 S    
C4    C110  1.470960 S    
O14   C113  1.272398 A    
C97   C98   1.389523 A    
C81   C82   1.404223 A    
C58   C59   1.396194 A    
C57   C62   1.404466 A    
C89   C92   1.405551 A    
C72   H33   1.083306 S    
C67   H38   1.082811 S    
C87   C91   1.400939 A    
C101  C102  1.400937 A    
O18   Cr6   2.047507 S    
C71   C74   1.405448 A    
C46   H22   1.082937 S    
C24   C32   1.469577 S    
C93   C116  1.470731 S    
C3    C38   1.472876 S    
C95   C96   1.410606 A    
C70   C74   1.406661 A    
C9    H4    1.082877 S    
C106  H62   1.083091 S    
C85   C86   1.402836 A    
C112  O18   1.271145 A    
N1    C13   1.356528 A    
N1    N2    1.328916 A    
O21   Cr4   1.925630 S    
C103  C104  1.404243 A    
O19   Cr6   1.924192 S    
C17   H7    1.083098 S    
C47   C55   1.475776 S    
C22   H9    1.083081 S    
C62   H32   1.083049 S    
C6    C92   1.472671 S    
C107  C110  1.404742 A    
C42   C50   1.472792 S    
C35   C38   1.405789 A    
C77   H47   1.083219 S    
C93   C98   1.401476 A    
C48   H25   1.083132 S    
Cr3   O13   1.974917 S    
C41   H24   1.083522 S    
C34   H18   1.083001 S    
C111  O16   1.271920 A    
C39   C44   1.416411 A    
C96   C104  1.471975 S    
N6    H65   1.045824 S    
C7    C8    1.403928 A    
C51   C55   1.404555 A    
C106  C110  1.406267 A    
C75   C114  1.472691 S    
C25   N5    1.440226 S    
C81   C86   1.402777 A    
C77   C78   1.402935 A    
O1    Cr1   2.045267 S    
C65   C73   1.474562 S    
O19   C113  1.277749 A    
C34   C38   1.404462 A    
C67   C68   1.406552 A    
O15   Cr4   1.928439 S    
C23   C24   1.402323 A    
O10   Cr2   1.923873 S    
C16   C20   1.403950 A    
Cr1   O13   1.974961 S    
O1    C3    1.271785 A    
C39   C113  1.481452 S    
N7    H67   1.045649 S    
C115  O24   1.271297 A    
C85   H49   1.083107 S    
C94   C95   1.403152 A    
C98   H55   1.083099 S    
C47   C48   1.402591 A    
O23   C115  1.277036 A    
C20   C112  1.472499 S    
C22   C23   1.389927 A    
C30   C31   1.393261 A    
C108  C109  1.402224 A    
C52   C56   1.404112 A    
O20   Cr4   2.045388 S    
O22   Cr5   2.045377 S    
O12   Cr3   1.928150 S    
C35   C36   1.392695 A    
C11   H5    1.082800 S    
C87   H50   1.083363 S    
C15   C16   1.392649 A    
O3    Cr2   2.041425 S    
C15   C19   1.404813 A    
Cr6   O26   1.975130 S    
C31   C32   1.402827 A    
C11   C12   1.394551 A    
C64   H34   1.083538 S    
C103  H60   1.083117 S    
O25   C116  1.274971 A    
C46   C47   1.406630 A    
O7    Cr1   2.043755 S    
O8    C4    1.274759 A    
C26   H10   1.083249 S    
O20   C116  1.270676 A    
C27   C28   1.393470 A    
O12   C6    1.275366 A    
O6    C3    1.274434 A    
N3    C14   1.357644 A    
C60   C61   1.404617 A    
C13   C19   1.473539 S    
C36   H11   1.083229 S    
C78   C79   1.403674 A    
C69   C70   1.396108 A    
C60   C68   1.479396 S    
C31   H16   1.083507 S    
C71   C72   1.393262 A    
C105  C109  1.401535 A    
C53   H30   1.083031 S    
C5    C74   1.475182 S    
Cr2   O13   1.975265 S    
C21   C22   1.401205 A    
C28   H12   1.083072 S    
C88   C92   1.406660 A    
C93   C94   1.405005 A    
C58   H31   1.083023 S    
C40   C41   1.389300 A    
C45   C50   1.401411 A    
C57   C58   1.405629 A    
C1    O3    1.272019 A    
O16   Cr5   2.042906 S    
C54   H21   1.083091 S    
C83   C84   1.400178 A    
C9    C10   1.404424 A    
C107  H64   1.083055 S    
C99   C100  1.392625 A    
C81   H46   1.083595 S    
C63   C64   1.394224 A    
C35   H19   1.083038 S    
Cr4   O26   1.975196 S    
C7    C12   1.404878 A    
C28   C29   1.406165 A    
O21   C114  1.275339 A    
C90   H45   1.083266 S    
C100  H57   1.083417 S    
O23   Cr5   1.924621 S    
O9    Cr2   2.046607 S    
C10   C14   1.473690 S    
O2    Cr1   1.926385 S    
C114  O22   1.271072 A    
C45   H23   1.083111 S    
C18   H8    1.082817 S    
N3    N4    1.330772 A    
C45   C46   1.394942 A    
N8    H69   1.045590 S    
C29   C37   1.473418 S    
O15   C111  1.275331 A    
O6    Cr3   1.924883 S    
C102  H59   1.083150 S    
C97   H63   1.083461 S    
C49   H26   1.082657 S    
C108  H56   1.083321 S    
N7    H68   1.045624 S    
O11   Cr3   2.041824 S    
C64   C65   1.404484 A    
C2    O5    1.270464 A    
C57   C115  1.475558 S    
C69   C73   1.402683 A    
N5    O28   1.301104 A    
C75   C76   1.405077 A    
N8    H70   1.045579 S    
C82   N7    1.437978 S    
C4    O9    1.270982 A    
C82   C83   1.414164 A    
C80   H44   1.083007 S    
C36   C37   1.402100 A    
O2    C1    1.275216 A    
N5    O27   1.301434 A    
C83   C91   1.471901 S    
C40   H20   1.083092 S    
C102  C103  1.392009 A    
C89   H53   1.083007 S    
C79   C80   1.393740 A    
N4    C13   1.357768 A    
O5    Cr3   2.047262 S    
C105  H61   1.083191 S    
C39   C40   1.407538 A    
C61   H41   1.082845 S    
C29   C30   1.402900 A    
C18   C19   1.404078 A    
C66   H37   1.083131 S    
C99   H58   1.083330 S    
C5    O11   1.271550 A    
C53   C54   1.393823 A    
C66   C67   1.395192 A    
C70   H40   1.083052 S    
C53   C56   1.405886 A    
C71   H42   1.083056 S    
C33   C34   1.394086 A    
N2    C14   1.356791 A    
C51   H27   1.082940 S    
O14   Cr4   2.043698 S    
C76   C77   1.392843 A    
C100  C101  1.404653 A    
C63   C68   1.404467 A    
C2    C7    1.472307 S    
C33   C37   1.403939 A    
O17   C112  1.275602 A    
C84   H48   1.083516 S    
C49   C50   1.404340 A    
C8    H1    1.083104 S    
C79   H52   1.083098 S    
C43   C44   1.403099 A    
C23   H14   1.083762 S    
C59   C60   1.404613 A    
C59   H36   1.082966 S    
C72   C73   1.402898 A    
O10   C5    1.275877 A    
C12   H2    1.083103 S    
C16   H3    1.082972 S    
C1    C56   1.473398 S    
C90   C91   1.401903 A    
C65   C66   1.401807 A    
O24   Cr6   2.041125 S    
C27   C32   1.400038 A    
C15   H6    1.082861 S    
C89   C90   1.393330 A    
C94   H54   1.083303 S    
C27   H13   1.083298 S    
C107  C108  1.391597 A    
C21   C26   1.406079 A    
C30   H15   1.083101 S    
C24   C25   1.415851 A    
C105  C106  1.393190 A    
