data_mof_unit_41899.cif
_audit_creation_date              2012-12-10T17:04:37-0500
_audit_creation_method            fapswitch 2.2
_symmetry_space_group_name_H-M    P1
_symmetry_Int_Tables_number       1
_space_group_crystal_system       triclinic
_cell_length_a                    14.950283
_cell_length_b                    10.667217
_cell_length_c                    10.091121
_cell_angle_alpha                 90.091826
_cell_angle_beta                  90.492707
_cell_angle_gamma                 89.420537
_cell_volume                      1609.16726547

loop_
_atom_site_label
_atom_site_type_symbol
_atom_type_description
_atom_site_fract_x
_atom_site_fract_y
_atom_site_fract_z
_atom_type_partial_charge
C1    C     C_R   0.489423 0.264118 0.499422 0.955994
C2    C     C_R   0.187235 0.385509 0.528090 -0.112473
C3    C     C_R   0.230850 0.498572 0.499280 -0.268819
C4    C     C_R   0.327039 0.500374 0.499638 0.993489
C5    C     C_R   0.182789 0.608257 0.465620 0.339156
C6    C     C_2   0.463348 0.930318 0.401592 -0.158313
C7    C     C_2   0.513368 0.871047 0.494401 -0.198224
C8    C     C_2   0.456892 0.065530 0.388922 -0.053590
C9    C     C_2   0.465428 0.134470 0.499621 -0.314755
C10   C     C_2   0.557194 0.559046 0.932072 0.389874
C11   C     C_2   0.539298 0.583135 0.075651 -0.097325
C12   C     C_R   0.903487 0.597878 0.439278 0.047538
C13   C     C_R   0.505255 0.737465 0.499634 0.955465
C14   C     C_R   0.672479 0.498080 0.500367 0.872348
C15   C     C_R   0.810707 0.595718 0.441089 -0.162679
C16   C     C_R   0.767318 0.496949 0.500308 -0.034097
C17   C     C_R   0.813073 0.394611 0.552570 -0.162068
C18   C     C_R   0.906107 0.389845 0.547644 0.074449
C19   C     C_R   0.951675 0.493164 0.491668 0.092219
C20   C     C_2   0.585637 0.930776 0.573534 0.917829
C21   C     C_2   0.432707 0.117141 0.256397 1.014973
C22   C     C_2   0.410637 0.487725 0.893687 0.964721
C23   C     C_R   0.954592 0.283998 0.594009 -0.160036
C24   C     C_2   0.911562 0.174131 0.656925 0.959640
C25   C     C_2   0.239198 0.267798 0.551481 0.898674
C26   C     C_2   0.903495 0.811990 0.326741 0.931648
C27   C     C_R   0.047340 0.282022 0.583026 -0.204909
C28   C     C_R   0.093524 0.385404 0.532656 0.073839
C29   C     C_R   0.045267 0.492388 0.488995 0.009462
C30   C     C_R   0.090455 0.599705 0.444493 -0.014789
C31   C     C_R   0.042145 0.696787 0.382323 -0.132258
C32   C     C_R   0.949261 0.699208 0.382182 -0.063929
H1    H     H_    0.770630 0.669635 0.396537 0.183135
H2    H     H_    0.359060 0.241301 0.149953 0.354223
H3    H     H_    0.783788 0.675943 0.979317 0.406160
H4    H     H_    0.305767 0.372336 0.913745 0.355621
H5    H     H_    0.972384 0.048438 0.536337 0.330875
H6    H     H_    0.262948 0.089001 0.495966 0.385755
H7    H     H_    0.290314 0.749224 0.663610 0.383646
H8    H     H_    0.812305 0.950607 0.351887 0.373349
H9    H     H_    0.462234 0.090891 0.596671 0.191852
H10   H     H_    0.567497 0.665139 0.123255 0.215447
H11   H     H_    0.487019 0.416340 0.104273 0.173867
H12   H     H_    0.774700 0.317813 0.591734 0.170875
H13   H     H_    0.083465 0.201036 0.621012 0.185821
H14   H     H_    0.076303 0.772532 0.333643 0.234095
H15   H     H_    0.422147 0.876975 0.333274 0.237494
H16   H     H_    0.691099 0.047412 0.576347 0.372320
N1    N     N_2   0.500970 0.501330 0.852150 -0.227733
N2    N     N_2   0.500990 0.501360 0.147810 -0.205448
O1    O     O_R   0.499990 0.319060 0.613040 -0.581849
O2    O     O_R   0.645225 0.012107 0.512189 -0.784270
O3    O     O_2   0.463695 0.068913 0.156574 -0.571844
O4    O     O_R   0.370893 0.216011 0.245345 -0.763667
O5    O     O_2   0.715843 0.478830 0.844507 -0.268031
O6    O     O_2   0.665423 0.687899 0.770959 -0.229211
O7    O     O_3   0.722388 0.662301 0.012105 -0.549640
O8    O     O_2   0.367699 0.578626 0.932853 -0.607447
O9    O     O_R   0.370233 0.370669 0.883361 -0.740485
O10   O     O_2   0.860131 0.189856 0.748935 -0.518598
O11   O     O_R   0.931605 0.051788 0.615986 -0.707459
O12   O     O_R   0.500010 0.319100 0.386900 -0.610138
O13   O     O_2   0.293557 0.261375 0.642334 -0.582797
O14   O     O_R   0.224002 0.163622 0.470475 -0.732439
O15   O     O_2   0.272719 0.779292 0.328785 -0.273411
O16   O     O_2   0.172069 0.861653 0.498740 -0.292867
O17   O     O_3   0.319679 0.761021 0.576958 -0.565814
O18   O     O_2   0.926798 0.853936 0.219867 -0.571769
O19   O     O_R   0.837094 0.873915 0.399329 -0.758747
O20   O     O_R   0.367830 0.499950 0.613080 -0.592769
O21   O     O_R   0.367860 0.499990 0.386940 -0.571437
O22   O     O_R   0.499990 0.680900 0.613100 -0.557664
O23   O     O_R   0.500010 0.680940 0.386960 -0.620472
O24   O     O_R   0.632140 0.500010 0.613060 -0.543433
O25   O     O_R   0.632170 0.500050 0.386920 -0.622377
O26   O     O_2   0.592545 0.909466 0.692086 -0.513424
S1    S     S_3+6 0.667082 0.596818 0.884010 0.089667
S2    S     S_3+6 0.236282 0.757251 0.464834 0.010311
Zn1   Zn    Zn3+2 0.499980 0.499970 0.650990 1.117424
Zn2   Zn    Zn3+2 0.500020 0.500030 0.349010 1.040249

loop_
_geom_bond_atom_site_label_1
_geom_bond_atom_site_label_2
_ccdc_geom_bond_type
C26   C32   S    
C24   O11   S    
H4    O9    S    
C1    O12   A    
C4    O20   A    
C14   O24   A    
O12   Zn2   S    
C28   C29   A    
O22   Zn1   S    
C30   C31   A    
O5    S1    D    
C15   C16   A    
C20   O26   D    
C11   H10   S    
C18   C19   A    
C25   O13   D    
C8    C9    D    
C31   H14   S    
C23   C24   S    
C23   C27   A    
O25   Zn2   S    
C27   H13   S    
C12   C32   A    
O17   S2    S    
O21   Zn2   S    
C10   S1    S    
C8    C21   S    
H6    O14   S    
O16   S2    D    
C6    H15   S    
C18   C23   A    
O7    S1    S    
C1    C9    S    
H8    O19   S    
C22   O9    S    
C16   C17   A    
C6    C8    S    
O6    S1    D    
N1    Zn1   S    
C25   O14   S    
C29   C30   A    
C31   C32   A    
C12   C15   A    
H16   O2    S    
C24   O10   D    
C17   C18   A    
C1    O1    A    
C22   N1    S    
C13   O23   A    
H2    O4    S    
O24   Zn1   S    
C14   C16   S    
C3    C4    S    
C19   C29   A    
C5    C30   A    
O15   S2    D    
O20   Zn1   S    
H7    O17   S    
C3    C5    A    
N2    Zn2   S    
C22   O8    D    
H5    O11   S    
H11   N2    S    
C6    C7    D    
C13   O22   A    
C9    H9    S    
H3    O7    S    
C26   O18   D    
C14   O25   A    
C2    C3    A    
C17   H12   S    
C20   O2    S    
C11   N2    D    
C21   O3    D    
C21   O4    S    
C12   C19   A    
O23   Zn2   S    
C2    C25   S    
O1    Zn1   S    
C10   C11   S    
C7    C13   S    
C7    C20   S    
C27   C28   A    
C26   O19   S    
C2    C28   A    
C5    S2    S    
C10   N1    D    
C15   H1    S    
C4    O21   A    
