data_mof_unit_37923.cif
_audit_creation_date              2013-03-05T15:48:11-0500
_audit_creation_method            fapswitch 2.2
_symmetry_space_group_name_H-M    P1
_symmetry_Int_Tables_number       1
_space_group_crystal_system       triclinic
_cell_length_a                    20.849525
_cell_length_b                    7.126796
_cell_length_c                    14.067984
_cell_angle_alpha                 90.177628
_cell_angle_beta                  97.89166
_cell_angle_gamma                 89.749835
_cell_volume                      2070.54289034

loop_
_atom_site_label
_atom_site_type_symbol
_atom_site_description
_atom_site_fract_x
_atom_site_fract_y
_atom_site_fract_z
_atom_type_partial_charge
O1    O     O_R   0.447130 0.507140 0.597350 -0.593044
O2    O     O_R   0.552870 0.007140 0.402650 -0.592893
O3    O     O_R   0.578910 0.181280 0.586990 -0.592050
O4    O     O_R   0.421090 0.681280 0.413010 -0.591889
C1    C     C_R   0.604572 0.344365 0.607196 0.980735
C2    C     C_R   0.395422 0.844653 0.392815 0.980237
O5    O     O_R   0.449230 0.177860 0.608640 -0.589889
O6    O     O_R   0.550770 0.677860 0.391360 -0.590722
O7    O     O_R   0.422260 0.000770 0.424450 -0.587145
O8    O     O_R   0.577740 0.500770 0.575550 -0.587211
C3    C     C_R   0.433105 0.346502 0.634997 0.925026
C4    C     C_R   0.567047 0.845461 0.365092 0.926025
O9    O     O_3   0.491310 0.336980 0.439550 -0.282777
O10   O     O_3   0.508690 0.836980 0.560450 -0.282450
V1    V     V_3+5 0.501610 0.064760 0.511210 1.170594
V2    V     V_3+5 0.498390 0.564760 0.488790 1.170360
C5    C     C_R   0.622559 0.764316 0.126518 -0.176509
C6    C     C_R   0.379061 0.305157 0.877129 -0.174735
H1    H     H_    0.530689 0.761084 0.178698 0.108920
H2    H     H_    0.470878 0.295902 0.824594 0.107760
H3    H     H_    0.708443 0.733936 0.005095 0.134631
H4    H     H_    0.293786 0.300248 0.000325 0.135410
H5    H     H_    0.601534 0.724742 0.054523 0.118958
H6    H     H_    0.400729 0.283112 0.950803 0.119027
C7    C     C_R   0.607650 0.846806 0.288511 -0.106379
C8    C     C_R   0.392459 0.352361 0.711385 -0.102529
C9    C     C_R   0.921504 0.902384 0.306066 0.232095
C10   C     C_R   0.077071 0.362780 0.692394 0.220098
C11   C     C_R   0.885077 0.894674 0.382710 0.227328
C12   C     C_R   0.114200 0.345136 0.616748 0.234584
C13   C     C_R   0.818544 0.849660 0.365337 -0.026806
C14   C     C_R   0.181987 0.320684 0.636189 -0.033182
C15   C     C_R   0.786255 0.839996 0.269027 0.017478
C16   C     C_R   0.214231 0.338458 0.732200 0.019727
C17   C     C_R   0.824788 0.832468 0.192990 0.044138
C18   C     C_R   0.175782 0.343803 0.808363 0.039987
C19   C     C_R   0.717205 0.833033 0.245181 0.126820
C20   C     C_R   0.283327 0.342595 0.756043 0.128197
C21   C     C_R   0.689683 0.787190 0.149842 0.178710
C22   C     C_R   0.311616 0.319964 0.853215 0.175827
C23   C     C_R   0.729116 0.766640 0.078202 -0.249207
C24   C     C_R   0.272586 0.314321 0.925877 -0.247368
C25   C     C_R   0.795269 0.794772 0.098618 -0.154327
C26   C     C_R   0.206002 0.332251 0.904266 -0.152925
C27   C     C_R   0.674151 0.876747 0.311509 -0.226870
C28   C     C_R   0.325624 0.374284 0.687486 -0.223099
C29   C     C_R   0.582052 0.788044 0.196399 -0.167121
C30   C     C_R   0.419105 0.315047 0.805922 -0.171590
C31   C     C_R   0.892191 0.863399 0.212311 -0.370804
C32   C     C_R   0.107631 0.356782 0.787775 -0.376263
H7    H     H_    0.690735 0.933602 0.381627 0.142426
H8    H     H_    0.308232 0.417377 0.615112 0.139146
H9    H     H_    0.823135 0.784418 0.039335 0.121074
H10   H     H_    0.178312 0.332620 0.963952 0.116903
C33   C     C_1   0.166396 0.856752 0.168823 -0.239498
C34   C     C_1   0.833509 0.357479 0.831403 -0.238406
C35   C     C_1   0.218721 0.854746 0.220117 0.079913
C36   C     C_1   0.781200 0.355122 0.780076 0.078391
C37   C     C_1   0.280468 0.853701 0.280153 0.060820
C38   C     C_1   0.719476 0.353387 0.719980 0.059513
C39   C     C_1   0.332898 0.851533 0.331183 -0.317015
C40   C     C_1   0.667071 0.350860 0.668895 -0.315342
O11   O     O_R   0.922300 0.202240 0.924350 -0.581752
O12   O     O_R   0.077700 0.702240 0.075650 -0.589457
O13   O     O_R   0.050780 0.535130 0.891350 -0.597410
O14   O     O_R   0.949220 0.035130 0.108650 -0.577725
C41   C     C_R   0.067755 0.367641 0.865799 1.042688
C42   C     C_R   0.932165 0.868779 0.134215 1.024388
O15   O     O_R   0.921100 0.531560 0.912990 -0.596690
O16   O     O_R   0.078900 0.031560 0.087010 -0.583776
O17   O     O_R   0.947120 0.708470 0.097370 -0.594862
O18   O     O_R   0.052880 0.208470 0.902630 -0.585197
C43   C     C_R   0.895851 0.363704 0.893485 1.009824
C44   C     C_R   0.104056 0.863379 0.106743 0.994246
O19   O     O_3   0.008710 0.375800 0.060400 -0.270364
O20   O     O_3   0.991290 0.875800 0.939600 -0.277071
V3    V     V_3+5 0.998380 0.648080 0.988790 1.230776
V4    V     V_3+5 0.001620 0.148080 0.011210 1.251635
N1    N     N_R   0.989072 0.946733 0.323584 0.258587
O21   O     O_R   0.031324 0.813005 0.343949 -0.313244
O22   O     O_R   0.008614 0.111639 0.300858 -0.320038
N2    N     N_R   0.007742 0.379080 0.672080 0.257535
O23   O     O_R   0.981412 0.502351 0.610643 -0.284208
O24   O     O_R   0.970742 0.262271 0.709912 -0.366444
N3    N     N_2   0.787260 0.786876 0.443512 -0.121158
H11   H     H_    0.802047 0.848713 0.509017 0.224813
C45   C     C_3   0.781925 0.585110 0.450224 -0.791926
H12   H     H_    0.753743 0.549424 0.509148 0.236718
H13   H     H_    0.830858 0.520529 0.465768 0.290856
H14   H     H_    0.756286 0.525990 0.382349 0.242617
N4    N     N_2   0.215405 0.248387 0.561947 -0.118612
H15   H     H_    0.200627 0.299574 0.494086 0.223950
C46   C     C_3   0.223917 0.046783 0.563508 -0.807565
H16   H     H_    0.253799 0.004428 0.507436 0.237059
H17   H     H_    0.176131 0.976176 0.548896 0.282283
H18   H     H_    0.249271 0.000533 0.634257 0.244623
N5    N     N_R   0.915623 0.933111 0.478548 0.262582
O25   O     O_R   0.893521 0.067294 0.528096 -0.342450
O26   O     O_R   0.969394 0.849369 0.512559 -0.246625
N6    N     N_R   0.082301 0.335870 0.519850 0.264546
O27   O     O_R   0.035935 0.216049 0.496598 -0.248072
O28   O     O_R   0.094942 0.459587 0.457274 -0.325891

loop_
_geom_bond_atom_site_label_1
_geom_bond_atom_site_label_2
_geom_bond_distance
_ccdc_geom_bond_type
O14   C42   1.304900 A    
C45   H12   1.110606 S    
C46   H16   1.110553 S    
C13   N3    1.427477 S    
C31   C42   1.468039 S    
C28   H8    1.077979 S    
C9    C11   1.402850 A    
O12   V3    1.955726 S    
O15   V3    1.989276 S    
O1    C3    1.313716 A    
O2    C4    1.315437 A    
C2    O7    1.297332 A    
N5    O25   1.301136 A    
O3    V1    1.989463 S    
C21   C23   1.392369 A    
N3    H11   1.029148 S    
O5    C3    1.312622 A    
C5    H5    1.083922 S    
C6    H6    1.083893 S    
C2    C39   1.463849 S    
C20   C22   1.421887 A    
O20   V4    2.181441 S    
C9    N1    1.432941 S    
H1    C29   1.083522 S    
C35   C37   1.439496 S    
C14   N4    1.426594 S    
O16   V4    1.986158 S    
C27   H7    1.077885 S    
C36   C38   1.439565 S    
C12   N6    1.433804 S    
C38   C40   1.222746 T    
C41   O18   1.304726 A    
C5    C21   1.403001 A    
C6    C22   1.403837 A    
C46   H17   1.111583 S    
O18   V4    2.029063 S    
C45   H14   1.111019 S    
C33   C44   1.463672 S    
C10   C32   1.404857 A    
C25   H9    1.082063 S    
O13   C41   1.306857 A    
O16   C44   1.321122 A    
C13   C15   1.429338 A    
O15   C43   1.321847 A    
C17   C25   1.410103 A    
C32   C41   1.466803 S    
C7    C29   1.395736 A    
C8    C30   1.395043 A    
O5    V1    2.029176 S    
O6    V2    2.036327 S    
C23   C25   1.385020 A    
C24   C26   1.385210 A    
N5    O26   1.300243 A    
N3    C45   1.447104 S    
O14   V4    2.036265 S    
C37   C39   1.222689 T    
O13   V3    2.029122 S    
C10   N2    1.438697 S    
O20   V3    1.763903 S    
O4    C2    1.295231 A    
N4    H15   1.029466 S    
N1    O22   1.300658 A    
O11   C43   1.322343 A    
C3    C8    1.457476 S    
C15   C19   1.433718 A    
C14   C16   1.429214 A    
O4    V2    1.986345 S    
C17   C31   1.412391 A    
N4    C46   1.446802 S    
O6    C4    1.311171 A    
N6    O28   1.300907 A    
O1    V2    2.024643 S    
O2    V1    2.020825 S    
O19   V3    2.185320 S    
H2    C30   1.083451 S    
H3    C23   1.084213 S    
C46   H18   1.111179 S    
N2    O24   1.300959 A    
C33   C35   1.222648 T    
C18   C26   1.410957 A    
C19   C27   1.413959 A    
C7    C27   1.396998 A    
O17   V3    2.025073 S    
C18   C32   1.413311 A    
C34   C43   1.463818 S    
C16   C20   1.434017 A    
C5    C29   1.390688 A    
O3    C1    1.295982 A    
C6    C30   1.391441 A    
C11   N5    1.435901 S    
C4    C7    1.458747 S    
C10   C12   1.404312 A    
O7    V1    1.970635 S    
C1    O8    1.297268 A    
C11   C13   1.413245 A    
O8    V2    1.969042 S    
C12   C14   1.412331 A    
H4    C24   1.084196 S    
C42   O17   1.307199 A    
C22   C24   1.392003 A    
N6    O27   1.299763 A    
C15   C17   1.424005 A    
C34   C36   1.222689 T    
C1    C40   1.463968 S    
C16   C18   1.423894 A    
O19   V4    1.761140 S    
C20   C28   1.412631 A    
C8    C28   1.396047 A    
N1    O21   1.300571 A    
C26   H10   1.082321 S    
C19   C21   1.422150 A    
N2    O23   1.300157 A    
O9    V2    1.761793 S    
C45   H13   1.111665 S    
O12   C44   1.322318 A    
O10   V1    1.764561 S    
C9    C31   1.402922 A    
O11   V4    1.954370 S    
