data_mof_unit_50091.cif
_audit_creation_date              2012-12-10T17:54:28-0500
_audit_creation_method            fapswitch 2.2
_symmetry_space_group_name_H-M    P1
_symmetry_Int_Tables_number       1
_space_group_crystal_system       triclinic
_cell_length_a                    27.281676
_cell_length_b                    10.737888
_cell_length_c                    10.110175
_cell_angle_alpha                 88.914112
_cell_angle_beta                  89.270525
_cell_angle_gamma                 91.081915
_cell_volume                      2960.43767487

loop_
_atom_site_label
_atom_site_type_symbol
_atom_type_description
_atom_site_fract_x
_atom_site_fract_y
_atom_site_fract_z
_atom_type_partial_charge
C1    C     C_R   0.506486 0.261616 0.501536 0.933966
C2    C     C_R   0.973137 0.542604 0.288345 0.058235
C3    C     C_R   0.976523 0.717275 0.441989 -0.013129
C4    C     C_R   0.406154 0.501517 0.499370 0.966673
C5    C     C_R   0.949021 0.630307 0.368497 -0.005438
C6    C     C_R   0.945951 0.482366 0.188687 0.257148
C7    C     C_R   0.894829 0.482614 0.195051 -0.184478
C8    C     C_R   0.870480 0.549566 0.292572 -0.031418
C9    C     C_R   0.897363 0.628758 0.376007 -0.116360
C10   C     C_R   0.872669 0.703390 0.468340 -0.152034
C11   C     C_R   0.821363 0.685686 0.483059 0.645193
C12   C     C_R   0.268787 0.448620 0.516702 0.196857
C13   C     C_R   0.819617 0.539936 0.307667 0.584233
C14   C     C_R   0.731474 0.467968 0.493342 -0.177976
C15   C     C_R   0.682041 0.441053 0.523852 0.146147
C16   C     C_R   0.498209 0.740013 0.498295 0.846410
C17   C     C_R   0.662842 0.654244 0.452880 0.094266
C18   C     C_R   0.711190 0.672351 0.407048 0.425403
C19   C     C_R   0.745589 0.580106 0.430611 0.116414
C20   C     C_R   0.023589 0.521720 0.309453 -0.044391
C21   C     C_R   0.051492 0.617047 0.369408 0.007183
C22   C     C_R   0.028193 0.721369 0.423143 0.064774
C23   C     C_R   0.253033 0.556769 0.449108 0.126105
C24   C     C_R   0.046874 0.407926 0.280353 0.404386
C25   C     C_R   0.108465 0.819153 0.457661 0.232293
C26   C     C_R   0.951827 0.792822 0.534744 0.114470
C27   C     C_R   0.900248 0.787608 0.545965 0.386946
C28   C     C_R   0.594020 0.503770 0.499451 0.825792
C29   C     C_R   0.057426 0.826144 0.453653 -0.224717
C30   C     C_R   0.517856 0.096993 0.749893 0.351343
C31   C     C_R   0.490672 0.047325 0.859999 0.079852
C32   C     C_R   0.456736 0.948947 0.836524 0.218305
C33   C     C_R   0.454452 0.894133 0.711044 0.172914
C34   C     C_R   0.102762 0.606642 0.379802 -0.104372
C35   C     C_R   0.485239 0.941329 0.607351 -0.080648
C36   C     C_R   0.506104 0.058567 0.622075 -0.111156
C37   C     C_R   0.518032 0.128703 0.507282 -0.110328
C38   C     C_R   0.533308 0.066612 0.393774 0.183444
C39   C     C_R   0.524778 0.938096 0.387432 0.122575
C40   C     C_R   0.176515 0.488393 0.352257 0.556736
C41   C     C_R   0.499239 0.875155 0.493534 -0.151757
C42   C     C_R   0.418295 0.407635 0.142161 -0.110013
C43   C     C_R   0.372656 0.409118 0.082831 -0.230466
C44   C     C_R   0.370666 0.427621 0.946837 -0.168032
C45   C     C_R   0.125828 0.498220 0.337715 -0.082547
C46   C     C_R   0.414603 0.413186 0.874817 0.292706
C47   C     C_R   0.458342 0.461414 0.932055 -0.030887
C48   C     C_R   0.459229 0.459235 0.074602 0.063996
C49   C     C_R   0.539530 0.540881 0.068132 0.161046
C50   C     C_R   0.538282 0.547174 0.925308 0.230743
C51   C     C_R   0.180375 0.682846 0.462004 0.515065
C52   C     C_R   0.287402 0.645227 0.402145 -0.151137
C53   C     C_R   0.337166 0.631052 0.424923 0.107155
C54   C     C_R   0.319363 0.427184 0.525905 0.297915
C55   C     C_3   0.158072 0.981482 0.354854 -0.681490
C56   C     C_R   0.097645 0.399398 0.289205 -0.199933
C57   C     C_3   0.991947 0.795619 0.746532 -0.719926
C58   C     C_3   0.647324 0.853563 0.554054 -0.686384
C59   C     C_3   0.609361 0.175896 0.339330 -0.750642
C60   C     C_3   0.522689 0.207005 0.018663 -0.708116
C61   C     C_3   0.224870 0.246169 0.538592 -0.570804
C62   C     C_3   0.369890 0.856329 0.658247 -0.693725
C63   C     C_3   0.511417 0.863319 0.163979 -0.678406
C64   C     C_3   0.620089 0.483076 0.136192 -0.664022
C65   C     C_3   0.385569 0.200525 0.824514 -0.666132
C66   C     C_3   0.568581 0.746677 0.840985 -0.723968
C67   C     C_R   0.130887 0.704260 0.433571 -0.048598
C68   C     C_3   0.698378 0.218668 0.578564 -0.661456
C69   C     C_3   0.991761 0.521390 0.985395 -0.761350
C70   C     C_3   0.375479 0.749875 0.242972 -0.606587
C71   C     C_R   0.353388 0.522443 0.491171 -0.232013
C72   C     C_R   0.646984 0.533178 0.495712 -0.220454
Cl1   Cl    Cl    0.340016 0.275622 0.556643 -0.681754
Cl2   Cl    Cl    0.872193 0.888244 0.660680 -0.517686
Cl3   Cl    Cl    0.728557 0.807360 0.314024 -0.559443
Cl4   Cl    Cl    0.574515 0.177284 0.764785 -0.691949
Cl5   Cl    Cl    0.416902 0.891289 0.962934 -0.767681
Cl6   Cl    Cl    0.014490 0.265027 0.264439 -0.620859
H1    H     H_    0.275005 0.727673 0.350084 0.182915
H2    H     H_    0.182881 0.060777 0.377205 0.239783
H3    H     H_    0.128656 0.015047 0.288752 0.235176
H4    H     H_    0.179998 0.910849 0.302758 0.243823
H5    H     H_    0.966281 0.951599 0.645176 0.281590
H6    H     H_    0.016575 0.854350 0.807031 0.245610
H7    H     H_    0.011551 0.709235 0.721383 0.241693
H8    H     H_    0.958428 0.771309 0.805686 0.263696
H9    H     H_    0.595245 0.734794 0.482029 0.210914
H10   H     H_    0.618070 0.923225 0.566179 0.225773
H11   H     H_    0.680505 0.904045 0.516366 0.294415
H12   H     H_    0.041164 0.915928 0.468386 0.185884
H13   H     H_    0.655284 0.811321 0.652457 0.247581
H14   H     H_    0.567162 0.079977 0.209182 0.275216
H15   H     H_    0.603711 0.259135 0.399417 0.238614
H16   H     H_    0.633122 0.203323 0.253276 0.244789
H17   H     H_    0.628409 0.102866 0.397260 0.260607
H18   H     H_    0.460811 0.094249 0.044327 0.264454
H19   H     H_    0.512157 0.243511 0.116585 0.241451
H20   H     H_    0.517239 0.280416 0.943847 0.257648
H21   H     H_    0.561974 0.183350 0.021280 0.287015
H22   H     H_    0.203524 0.413499 0.622719 0.218842
H23   H     H_    0.421680 0.358641 0.234906 0.210783
H24   H     H_    0.185351 0.235197 0.515382 0.206266
H25   H     H_    0.233981 0.176347 0.616322 0.253428
H26   H     H_    0.246698 0.227566 0.447745 0.278792
H27   H     H_    0.415101 0.731843 0.754614 0.284288
H28   H     H_    0.356495 0.910239 0.743528 0.279652
H29   H     H_    0.372290 0.918635 0.569291 0.261927
H30   H     H_    0.342648 0.780680 0.641018 0.249280
H31   H     H_    0.567107 0.802175 0.289755 0.264103
H32   H     H_    0.531987 0.892185 0.073114 0.250902
H33   H     H_    0.478855 0.922273 0.176414 0.267789
H34   H     H_    0.339834 0.383254 0.138917 0.192705
H35   H     H_    0.498701 0.765556 0.152896 0.263443
H36   H     H_    0.596956 0.663648 0.102986 0.227437
H37   H     H_    0.650732 0.513185 0.200018 0.247880
H38   H     H_    0.635025 0.466176 0.035840 0.221271
H39   H     H_    0.604240 0.394273 0.176486 0.255953
H40   H     H_    0.452728 0.275493 0.789299 0.255354
H41   H     H_    0.392246 0.125590 0.752927 0.263294
H42   H     H_    0.346364 0.224527 0.818060 0.273511
H43   H     H_    0.392591 0.164952 0.926099 0.237785
H44   H     H_    0.611150 0.589482 0.871907 0.231500
H45   H     H_    0.335601 0.414379 0.899725 0.170380
H46   H     H_    0.595181 0.797311 0.903643 0.224340
H47   H     H_    0.530831 0.772650 0.870433 0.240156
H48   H     H_    0.574535 0.777011 0.736861 0.258773
H49   H     H_    0.631077 0.308126 0.599341 0.270172
H50   H     H_    0.678798 0.135502 0.621630 0.259829
H51   H     H_    0.732755 0.231718 0.634560 0.258478
H52   H     H_    0.706910 0.201245 0.472866 0.243279
H53   H     H_    0.948529 0.364829 0.027963 0.257699
H54   H     H_    0.010774 0.472683 0.904158 0.250386
H55   H     H_    0.019245 0.580261 0.036506 0.246782
H56   H     H_    0.114625 0.311800 0.266278 0.208413
H57   H     H_    0.963138 0.581366 0.942127 0.237400
H58   H     H_    0.403202 0.732214 0.431786 0.239032
H59   H     H_    0.398062 0.835492 0.225619 0.262568
H60   H     H_    0.339367 0.763928 0.196220 0.244964
H61   H     H_    0.394054 0.670183 0.196828 0.261487
H62   H     H_    0.759747 0.402208 0.516778 0.176680
H63   H     H_    0.874235 0.431022 0.122526 0.193276
H64   H     H_    0.119486 0.996161 0.531457 0.225330
N1    N     N_R   0.202077 0.575629 0.422025 -0.340239
N2    N     N_2   0.234340 0.370051 0.587538 -0.296693
N3    N     N_2   0.417278 0.803340 0.685081 -0.299021
N4    N     N_2   0.543518 0.874365 0.275524 -0.313895
N5    N     N_2   0.582997 0.577890 0.133497 -0.273306
N6    N     N_2   0.417731 0.306882 0.792451 -0.247996
N7    N     N_2   0.575590 0.613576 0.852787 -0.257480
N8    N     N_2   0.667934 0.327099 0.590758 -0.284195
N9    N     N_2   0.969421 0.430588 0.076079 -0.259885
N10   N     N_2   0.370258 0.728907 0.383855 -0.316877
N11   N     N_R   0.796563 0.604496 0.404206 -0.335196
N12   N     N_R   0.499540 0.498800 0.142780 -0.141509
N13   N     N_R   0.499520 0.498720 0.857170 -0.144064
N14   N     N_2   0.136916 0.929764 0.476454 -0.257626
N15   N     N_2   0.979043 0.863631 0.627592 -0.307820
N16   N     N_2   0.631288 0.758425 0.463304 -0.290442
N17   N     N_2   0.562633 0.129197 0.294350 -0.302810
N18   N     N_2   0.493056 0.098268 0.990279 -0.307655
O1    O     O_R   0.500000 0.316780 0.614690 -0.605361
O2    O     O_R   0.571250 0.499990 0.614680 -0.563973
O3    O     O_R   0.571240 0.499970 0.385350 -0.588975
O4    O     O_2   0.200094 0.392800 0.296806 -0.577329
O5    O     O_2   0.793331 0.464702 0.228628 -0.538051
O6    O     O_2   0.206224 0.766371 0.532388 -0.532424
O7    O     O_2   0.796136 0.745194 0.577465 -0.461546
O8    O     O_R   0.500000 0.316750 0.385360 -0.618110
O9    O     O_R   0.428760 0.500030 0.614650 -0.598665
O10   O     O_R   0.428750 0.500010 0.385320 -0.636930
O11   O     O_R   0.500000 0.683250 0.614640 -0.603548
O12   O     O_R   0.500000 0.683220 0.385310 -0.615382
Zn1   Zn    Zn3+2 0.500000 0.500020 0.653130 0.985726
Zn2   Zn    Zn3+2 0.500000 0.499980 0.346870 0.945000

loop_
_geom_bond_atom_site_label_1
_geom_bond_atom_site_label_2
_ccdc_geom_bond_type
C10   C27   A    
C18   Cl3   S    
C64   H38   S    
C22   C29   A    
H53   N9    S    
H31   N4    S    
C25   C67   A    
C60   H21   S    
C28   O2    A    
C7    C8    A    
C39   C41   A    
O2    Zn1   S    
C2    C6    A    
O8    Zn2   S    
C15   C72   A    
O11   Zn1   S    
C12   C23   A    
C26   C27   A    
C8    C13   A    
C4    O10   A    
H14   N17   S    
C36   C37   A    
C61   H25   S    
C38   N17   S    
C40   O4    S    
C60   H20   S    
H49   N8    S    
C62   H29   S    
C30   C31   A    
C31   C32   A    
C62   H30   S    
O1    Zn1   S    
C57   H8    S    
C49   N5    S    
C26   N15   S    
C18   C19   A    
C48   N12   A    
C32   Cl5   S    
C59   N17   S    
C46   N6    S    
C54   C71   A    
C20   C24   A    
C45   C56   A    
C44   C46   A    
C8    C9    A    
C62   N3    S    
C53   N10   S    
C59   H16   S    
C65   H43   S    
C55   H3    S    
C27   Cl2   S    
C9    C10   A    
C68   H50   S    
C63   N4    S    
C31   N18   S    
C1    C37   S    
N13   Zn1   S    
C1    O1    A    
C70   H61   S    
C69   H57   S    
C64   H37   S    
C21   C22   A    
C25   N14   S    
C11   O7    S    
C23   N1    S    
C28   C72   S    
C59   H17   S    
C29   H12   S    
H58   N10   S    
O12   Zn2   S    
C58   H13   S    
C25   C29   A    
C40   C45   A    
C4    O9    A    
N12   Zn2   S    
C2    C20   A    
C69   N9    S    
H44   N7    S    
C49   N12   A    
C61   H26   S    
C70   N10   S    
C66   N7    S    
C60   H19   S    
C58   N16   S    
C42   C48   A    
C21   C34   A    
C1    O8    A    
C64   H39   S    
C12   N2    S    
C55   H4    S    
C35   C36   A    
C43   C44   A    
C5    C9    A    
C37   C38   A    
C54   Cl1   S    
C30   Cl4   S    
C16   O12   A    
C61   N2    S    
C13   O5    S    
C47   C48   A    
H5    N15   S    
C50   N13   A    
H27   N3    S    
C17   C18   A    
C65   H41   S    
C57   H6    S    
C34   C45   A    
C51   C67   A    
C65   N6    S    
C68   H52   S    
C17   N16   S    
C13   N11   A    
C33   N3    S    
C17   C72   A    
C6    N9    S    
C24   Cl6   S    
H18   N18   S    
C14   H62   S    
C70   H60   S    
C64   N5    S    
H22   N2    S    
C19   N11   S    
C66   H46   S    
C2    C5    A    
C42   C43   A    
C53   C71   A    
C42   H23   S    
C7    H63   S    
C52   C53   A    
O10   Zn2   S    
C57   N15   S    
C46   C47   A    
C69   H55   S    
C55   N14   S    
C14   C19   A    
C50   N7    S    
C3    C26   A    
C60   N18   S    
C3    C5    A    
C58   H10   S    
C34   C67   A    
H36   N5    S    
C56   H56   S    
C66   H47   S    
C6    C7    A    
C62   H28   S    
C51   N1    A    
C24   C56   A    
C44   H45   S    
H9    N16   S    
C30   C36   A    
C32   C33   A    
C63   H32   S    
H40   N6    S    
C61   H24   S    
C55   H2    S    
C16   O11   A    
C23   C52   A    
C38   C39   A    
C47   N13   A    
C69   H54   S    
C39   N4    S    
C33   C35   A    
C65   H42   S    
C57   H7    S    
C4    C71   S    
C63   H33   S    
C68   H51   S    
C35   C41   A    
C58   H11   S    
C68   N8    S    
C10   C11   A    
C11   N11   A    
C63   H35   S    
C66   H48   S    
C20   C21   A    
C70   H59   S    
C49   C50   A    
C43   H34   S    
C40   N1    A    
O9    Zn1   S    
C14   C15   A    
C3    C22   A    
C59   H15   S    
H64   N14   S    
O3    Zn2   S    
C16   C41   S    
C15   N8    S    
C12   C54   A    
C28   O3    A    
C52   H1    S    
C51   O6    S    
