data_mof_unit_52973.cif
_audit_creation_date              2012-12-10T16:57:14-0500
_audit_creation_method            fapswitch 2.2
_symmetry_space_group_name_H-M    P1
_symmetry_Int_Tables_number       1
_space_group_crystal_system       triclinic
_cell_length_a                    15.859692
_cell_length_b                    10.899076
_cell_length_c                    9.753762
_cell_angle_alpha                 89.72568
_cell_angle_beta                  90.202294
_cell_angle_gamma                 89.397092
_cell_volume                      1685.8726948

loop_
_atom_site_label
_atom_site_type_symbol
_atom_type_description
_atom_site_fract_x
_atom_site_fract_y
_atom_site_fract_z
_atom_type_partial_charge
C1    C     C_R   0.501711 0.265315 0.499823 0.880033
C2    C     C_3   0.950737 0.449909 0.630624 0.227762
C3    C     C_3   0.916421 0.521117 0.501221 0.107142
C4    C     C_3   0.948059 0.660473 0.509054 0.452379
C5    C     C_3   0.049366 0.656300 0.507643 -0.089639
C6    C     C_1   0.824256 0.512191 0.500881 -0.025415
C7    C     C_1   0.174931 0.512296 0.501544 -0.056369
C8    C     C_1   0.250529 0.506246 0.500039 -0.189710
C9    C     C_2   0.519357 0.933208 0.390741 -0.309766
C10   C     C_2   0.513816 0.866012 0.504861 -0.389816
C11   C     C_2   0.532973 0.066815 0.393891 0.485604
C12   C     C_R   0.340306 0.500946 0.499908 0.819507
C13   C     C_2   0.500743 0.132504 0.498688 -0.394205
C14   C     C_2   0.563629 0.471440 0.922828 -0.124436
C15   C     C_2   0.556475 0.449486 0.074953 0.007928
C16   C     C_R   0.502725 0.734503 0.500360 0.875513
C17   C     C_R   0.659546 0.499987 0.500123 0.819152
C18   C     C_3   0.048597 0.448135 0.629017 -0.447927
C19   C     C_3   0.048692 0.459587 0.371153 -0.468060
C20   C     C_3   0.951373 0.452784 0.372536 0.257627
C21   C     C_1   0.748925 0.505081 0.500478 -0.203218
C22   C     C_3   0.082413 0.520040 0.503934 0.107886
Cu1   Cu    Cu3+1 0.500020 0.500020 0.638630 0.929270
Cu2   Cu    Cu3+1 0.499980 0.499980 0.361370 0.944015
H1    H     H_    0.073038 0.487681 0.726020 0.142437
H2    H     H_    0.929365 0.500102 0.724008 0.134570
H3    H     H_    0.515308 0.889879 0.291843 0.186580
H4    H     H_    0.522288 0.906501 0.605324 0.157359
H5    H     H_    0.469996 0.089210 0.585137 0.113795
H6    H     H_    0.625599 0.465135 0.876807 0.158959
H7    H     H_    0.442818 0.466213 0.882864 0.217142
H8    H     H_    0.605270 0.393686 0.123088 0.151252
H9    H     H_    0.072460 0.351729 0.625099 0.203744
H10   H     H_    0.070642 0.511343 0.279649 0.185346
H11   H     H_    0.075370 0.365049 0.361419 0.162148
H12   H     H_    0.936247 0.353084 0.383326 0.132436
H13   H     H_    0.075164 0.696733 0.413116 0.121568
N1    N     N_2   0.499090 0.498660 0.846910 -0.283383
N2    N     N_2   0.499070 0.498630 0.153040 -0.179140
O1    O     O_R   0.500010 0.321960 0.617040 -0.586478
O2    O     O_R   0.499990 0.321920 0.382900 -0.513490
O3    O     O_R   0.379450 0.500030 0.617120 -0.578765
O4    O     O_R   0.379420 0.499980 0.382980 -0.596586
O5    O     O_R   0.500010 0.678080 0.617100 -0.570794
O6    O     O_R   0.499990 0.678040 0.382960 -0.599541
O7    O     O_R   0.620580 0.500020 0.617020 -0.579180
O8    O     O_R   0.620550 0.499970 0.382880 -0.582408
O9    O     O_3   0.920352 0.327473 0.630633 -0.587818
C23   C     C_3   0.910613 0.282897 0.765826 0.062883
H14   H     H_    0.857418 0.331644 0.816640 0.147692
H15   H     H_    0.969355 0.294639 0.827138 0.139403
C24   C     C_3   0.890324 0.146865 0.761258 -0.803460
H16   H     H_    0.942405 0.095516 0.710879 0.248636
H17   H     H_    0.882344 0.110912 0.867114 0.199100
H18   H     H_    0.831016 0.132482 0.702870 0.243922
C25   C     C_3   0.911155 0.746613 0.389199 -0.395812
C26   C     C_3   0.964047 0.773492 0.259832 -0.341502
C27   C     C_3   0.909934 0.833424 0.147707 -0.848300
H19   H     H_    0.857703 0.771877 0.118107 0.262429
H20   H     H_    0.882979 0.921846 0.184285 0.240200
H21   H     H_    0.949188 0.851572 0.055882 0.241665
H22   H     H_    0.014895 0.839041 0.285531 0.188615
H23   H     H_    0.993489 0.689633 0.217465 0.261209
H24   H     H_    0.849366 0.710456 0.355208 0.210567
H25   H     H_    0.897698 0.839124 0.431567 0.168796
O10   O     O_3   0.570030 0.127158 0.283267 -0.556055
C28   C     C_3   0.640854 0.061216 0.233799 0.079351
H26   H     H_    0.620397 0.983067 0.169317 0.141959
H27   H     H_    0.681681 0.026717 0.319337 0.132665
C29   C     C_3   0.693523 0.145622 0.144722 -0.832084
H28   H     H_    0.713834 0.226052 0.205288 0.238493
H29   H     H_    0.750298 0.095608 0.107483 0.197763
H30   H     H_    0.655992 0.177878 0.054949 0.246349
C30   C     C_3   0.447953 0.604308 0.106038 -0.071325
C31   C     C_3   0.500929 0.716034 0.062322 -0.376685
C32   C     C_3   0.444730 0.828325 0.035417 -0.901081
H31   H     H_    0.401879 0.810760 0.947495 0.262334
H32   H     H_    0.406274 0.850546 0.127095 0.254197
H33   H     H_    0.484489 0.908562 0.010225 0.253941
H34   H     H_    0.548044 0.736891 0.142824 0.218768
H35   H     H_    0.536682 0.698551 0.967203 0.233553
H36   H     H_    0.399574 0.580550 0.029735 0.108223
H37   H     H_    0.407895 0.634415 0.192177 0.207330
O11   O     O_3   0.917451 0.503869 0.249691 -0.585412
C33   C     C_3   0.864040 0.420426 0.182186 0.075364
H38   H     H_    0.814563 0.385540 0.252423 0.146816
H39   H     H_    0.901589 0.341914 0.141452 0.133665
C34   C     C_3   0.820250 0.485490 0.063312 -0.833999
H40   H     H_    0.868026 0.518391 0.989211 0.245453
H41   H     H_    0.777087 0.421246 0.010749 0.187803
H42   H     H_    0.782792 0.564834 0.101525 0.253150
C35   C     C_3   0.091068 0.733272 0.624094 -0.325187
C36   C     C_3   0.077889 0.872153 0.602675 -0.337347
C37   C     C_3   0.116555 0.944950 0.719988 -0.866337
H43   H     H_    0.085667 0.920867 0.818430 0.256749
H44   H     H_    0.185277 0.925347 0.728024 0.253717
H45   H     H_    0.107231 0.044683 0.700649 0.242881
H46   H     H_    0.107932 0.900768 0.504988 0.198748
H47   H     H_    0.009844 0.895823 0.596205 0.245011
H48   H     H_    0.067126 0.705170 0.726317 0.232567
H49   H     H_    0.160213 0.716512 0.626272 0.184633
O12   O     O_3   0.924139 0.707430 0.641351 -0.613791
C38   C     C_3   0.841377 0.756907 0.656082 0.043400
H50   H     H_    0.797084 0.735466 0.571907 0.132211
H51   H     H_    0.845830 0.858399 0.662187 0.157710
C39   C     C_3   0.803299 0.710644 0.789145 -0.822306
H52   H     H_    0.846212 0.730790 0.875942 0.254668
H53   H     H_    0.741564 0.756734 0.807081 0.208812
H54   H     H_    0.793286 0.610169 0.783471 0.242274

loop_
_geom_bond_atom_site_label_1
_geom_bond_atom_site_label_2
_ccdc_geom_bond_type
C36   C37   S    
C5    H13   S    
C2    C18   S    
C19   C20   S    
C32   H33   S    
C30   H37   S    
C3    C6    S    
C7    C8    T    
C33   H38   S    
C35   H48   S    
Cu1   O3    S    
Cu2   O6    S    
C13   H5    S    
C32   H32   S    
C12   O4    A    
C39   H52   S    
C27   H20   S    
Cu1   O1    S    
Cu2   N2    S    
C25   C26   S    
N2    C30   S    
C12   O3    A    
C1    O1    A    
C5    C22   S    
C23   H15   S    
C4    O12   S    
Cu1   Cu2   S    
C25   H24   S    
C29   H28   S    
C31   H34   S    
C36   H47   S    
C24   H18   S    
C27   H21   S    
O10   C28   S    
Cu1   O7    S    
C4    C25   S    
Cu2   O2    S    
C37   H43   S    
C18   H1    S    
C30   H36   S    
C24   H17   S    
C26   H23   S    
C32   H31   S    
C33   H39   S    
C30   C31   S    
C28   H26   S    
C15   H8    S    
C19   C22   S    
C17   O7    A    
C38   H51   S    
C31   H35   S    
C37   H45   S    
C26   H22   S    
C27   H19   S    
C14   H6    S    
C6    C21   T    
C17   C21   S    
Cu1   O5    S    
C28   H27   S    
C31   C32   S    
C14   N1    D    
C34   H42   S    
C8    C12   S    
C23   C24   S    
C29   H30   S    
C3    C20   S    
C2    H2    S    
O11   C33   S    
C37   H44   S    
C9    C11   S    
C15   N2    D    
C35   H49   S    
C1    O2    A    
O9    C23   S    
C34   H41   S    
C20   O11   S    
C1    C13   S    
C3    C4    S    
C7    C22   S    
C24   H16   S    
C9    H3    S    
C9    C10   D    
C33   C34   S    
C10   H4    S    
C16   O5    A    
C18   C22   S    
Cu2   O8    S    
C17   O8    A    
C4    C5    S    
C19   H10   S    
C16   O6    A    
C29   H29   S    
C11   O10   S    
Cu1   N1    S    
H7    N1    S    
C28   C29   S    
C2    O9    S    
C2    C3    S    
C10   C16   S    
C11   C13   D    
C26   C27   S    
C39   H53   S    
C35   C36   S    
C38   C39   S    
O12   C38   S    
C18   H9    S    
C5    C35   S    
C20   H12   S    
C34   H40   S    
C23   H14   S    
C38   H50   S    
Cu2   O4    S    
C14   C15   S    
C19   H11   S    
C36   H46   S    
C25   H25   S    
C39   H54   S    
