data_mof_unit_66562.cif
_audit_creation_date              2012-12-10T18:46:20-0500
_audit_creation_method            fapswitch 2.2
_symmetry_space_group_name_H-M    P1
_symmetry_Int_Tables_number       1
_space_group_crystal_system       triclinic
_cell_length_a                    10.225081
_cell_length_b                    10.814844
_cell_length_c                    13.313036
_cell_angle_alpha                 92.055267
_cell_angle_beta                  70.716884
_cell_angle_gamma                 90.691837
_cell_volume                      1388.70450565

loop_
_atom_site_label
_atom_site_type_symbol
_atom_type_description
_atom_site_fract_x
_atom_site_fract_y
_atom_site_fract_z
_atom_type_partial_charge
C1    C     C_R   0.502048 0.738430 0.497688 0.966249
C2    C     C_R   0.368670 0.521993 0.823577 -0.111476
C3    C     C_R   0.488292 0.941621 0.585690 0.159810
C4    C     C_R   0.420494 0.501650 0.704345 0.863220
C5    C     C_R   0.484309 0.069837 0.582650 0.080623
C6    C     C_R   0.505568 0.127160 0.486278 -0.162708
C7    C     C_R   0.549191 0.057212 0.389684 0.128338
C8    C     C_R   0.544402 0.926935 0.392746 0.089602
C9    C     C_R   0.508308 0.870969 0.492056 -0.139520
C10   C     C_R   0.951063 0.410495 0.446191 -0.029715
C11   C     C_R   0.094209 0.412075 0.444258 -0.010312
C12   C     C_R   0.458941 0.553939 0.971838 -0.065751
C13   C     C_R   0.051723 0.595630 0.545360 -0.006246
C14   C     C_R   0.906614 0.589650 0.553505 -0.026597
C15   C     C_R   0.504416 0.261431 0.488733 0.911502
C16   C     C_R   0.577981 0.501861 0.297017 0.886554
C17   C     C_R   0.746980 0.379340 0.018528 0.219910
C18   C     C_R   0.624023 0.497774 0.179717 -0.069575
C19   C     C_R   0.258250 0.603240 0.875769 0.169808
C20   C     C_R   0.260607 0.670628 0.967389 -0.272131
C21   C     C_R   0.372963 0.660062 0.005375 0.223821
C22   C     C_3   0.623505 0.160345 0.678433 -0.759625
C23   C     C_R   0.447240 0.480862 0.884601 0.009110
C24   C     C_3   0.536347 0.171677 0.241084 -0.805136
C25   C     C_3   0.708443 0.800345 0.253856 -0.836721
C26   C     C_R   0.909307 0.311891 0.383931 0.220342
C27   C     C_R   0.939889 0.326560 0.274760 -0.125000
C28   C     C_R   0.955015 0.223050 0.206082 -0.135249
C29   C     C_R   0.935398 0.104482 0.246339 -0.131998
C30   C     C_R   0.896866 0.089119 0.356013 -0.136877
C31   C     C_R   0.887437 0.192510 0.424075 -0.120079
C32   C     C_R   0.194190 0.340025 0.357503 0.190847
C33   C     C_R   0.245441 0.396161 0.258656 -0.130699
C34   C     C_R   0.551773 0.512266 0.023521 0.006522
C35   C     C_R   0.288728 0.324166 0.164724 -0.147960
C36   C     C_R   0.275956 0.196111 0.167870 -0.130180
C37   C     C_R   0.227748 0.139421 0.266016 -0.150314
C38   C     C_R   0.193780 0.210768 0.360821 -0.160471
C39   C     C_R   0.107682 0.719587 0.556854 0.189070
C40   C     C_R   0.077172 0.779907 0.656706 -0.138714
C41   C     C_R   0.103519 0.906318 0.664838 -0.162389
C42   C     C_R   0.168288 0.971790 0.573465 -0.121248
C43   C     C_R   0.201858 0.911805 0.473643 -0.167067
C44   C     C_R   0.166869 0.787747 0.464800 -0.112854
C45   C     C_R   0.646730 0.415652 0.973933 0.121786
C46   C     C_R   0.809949 0.677340 0.628319 0.203788
C47   C     C_R   0.817051 0.803063 0.604238 -0.101577
C48   C     C_R   0.791702 0.892709 0.686594 -0.186551
C49   C     C_R   0.739919 0.859036 0.792781 -0.160556
C50   C     C_R   0.718156 0.734559 0.816752 -0.151168
C51   C     C_R   0.754524 0.643716 0.735052 -0.140540
C52   C     C_3   0.813427 0.161430 0.986869 -0.875854
C53   C     C_3   0.045879 0.528568 0.855911 -0.768500
C54   C     C_3   0.335575 0.874582 0.083702 -0.876840
C55   C     C_3   0.267553 0.265663 0.894794 -0.840832
C56   C     C_R   0.623498 0.343963 0.892193 -0.336814
C57   C     C_3   0.346902 0.867482 0.754810 -0.816106
C58   C     C_R   0.501923 0.361166 0.869282 0.201844
C59   C     C_R   0.538012 0.547555 0.129074 -0.266145
C60   C     C_R   0.737849 0.426420 0.119890 -0.307830
H1    H     H_    0.807179 0.392347 0.156880 0.173002
H2    H     H_    0.601060 0.222411 0.172365 0.263570
H3    H     H_    0.464365 0.238812 0.295426 0.280466
H4    H     H_    0.484010 0.097379 0.209910 0.232399
H5    H     H_    0.538149 0.891442 0.240057 0.233714
H6    H     H_    0.787591 0.873861 0.231361 0.220918
H7    H     H_    0.716494 0.743104 0.181259 0.240930
H8    H     H_    0.732018 0.741462 0.311870 0.273043
H9    H     H_    0.967728 0.417040 0.241645 0.109762
H10   H     H_    0.991405 0.234545 0.121109 0.127510
H11   H     H_    0.953897 0.024900 0.192048 0.107343
H12   H     H_    0.681611 0.260305 0.863091 0.179787
H13   H     H_    0.885324 0.997097 0.387143 0.125591
H14   H     H_    0.884068 0.179300 0.504655 0.097007
H15   H     H_    0.238809 0.495532 0.253959 0.125244
H16   H     H_    0.322633 0.368010 0.089520 0.164279
H17   H     H_    0.301607 0.141228 0.094540 0.142332
H18   H     H_    0.212597 0.040642 0.268161 0.132993
H19   H     H_    0.149624 0.166532 0.435989 0.121942
H20   H     H_    0.019615 0.732519 0.727137 0.145379
H21   H     H_    0.072176 0.953529 0.742146 0.129625
H22   H     H_    0.192648 0.068676 0.580269 0.135956
H23   H     H_    0.450875 0.602285 0.177220 0.184035
H24   H     H_    0.256629 0.960732 0.403218 0.137129
H25   H     H_    0.188043 0.744079 0.386506 0.121940
H26   H     H_    0.864357 0.830932 0.522854 0.114170
H27   H     H_    0.821696 0.987077 0.668279 0.138390
H28   H     H_    0.720750 0.928975 0.856177 0.133311
H29   H     H_    0.684776 0.708337 0.898696 0.139259
H30   H     H_    0.752868 0.547568 0.755405 0.140932
H31   H     H_    0.946314 0.309536 0.972002 0.223507
H32   H     H_    0.886406 0.101336 0.924481 0.241619
H33   H     H_    0.706531 0.141071 0.987508 0.244553
H34   H     H_    0.181257 0.739637 0.001594 0.155184
H35   H     H_    0.820558 0.137550 0.064968 0.245896
H36   H     H_    0.103368 0.710183 0.858803 0.209540
H37   H     H_    0.961169 0.553945 0.825835 0.225705
H38   H     H_    0.000933 0.516889 0.943147 0.228565
H39   H     H_    0.091204 0.440641 0.814870 0.256279
H40   H     H_    0.509081 0.766107 0.059309 0.225960
H41   H     H_    0.381519 0.938588 0.129587 0.227449
H42   H     H_    0.223645 0.864589 0.129229 0.247235
H43   H     H_    0.350720 0.915106 0.005191 0.244821
H44   H     H_    0.443804 0.176891 0.902911 0.230075
H45   H     H_    0.428508 0.221841 0.684487 0.245200
H46   H     H_    0.246012 0.300465 0.824853 0.241822
H47   H     H_    0.219655 0.327352 0.965409 0.240566
H48   H     H_    0.218332 0.173021 0.910660 0.232650
H49   H     H_    0.541730 0.929940 0.720405 0.277257
H50   H     H_    0.354972 0.838100 0.830935 0.243335
H51   H     H_    0.294989 0.794583 0.721989 0.277430
H52   H     H_    0.288253 0.955861 0.771322 0.245116
H53   H     H_    0.629566 0.122142 0.752622 0.214203
H54   H     H_    0.700703 0.110676 0.612039 0.223571
H55   H     H_    0.651371 0.259936 0.674695 0.264874
H56   H     H_    0.694728 0.061289 0.239336 0.246059
N1    N     N_R   0.142790 0.500030 0.500030 -0.128997
N2    N     N_2   0.483587 0.884485 0.681374 -0.284982
N3    N     N_R   0.857180 0.499940 0.500010 -0.134143
N4    N     N_2   0.485270 0.141615 0.673260 -0.282228
N5    N     N_2   0.621530 0.116191 0.293100 -0.302293
N6    N     N_2   0.570541 0.852516 0.297324 -0.311879
N7    N     N_2   0.850683 0.289956 0.965290 -0.310234
N8    N     N_2   0.149361 0.624944 0.834507 -0.295933
N9    N     N_2   0.404862 0.756486 0.070336 -0.307242
N10   N     N_2   0.415987 0.254540 0.871807 -0.295984
O1    O     O_R   0.385370 0.683250 0.500010 -0.605775
O2    O     O_R   0.614700 0.683220 0.500010 -0.628699
O3    O     O_R   0.328400 0.499990 0.653620 -0.588120
O4    O     O_R   0.557730 0.499960 0.653620 -0.611963
O5    O     O_R   0.385300 0.316780 0.499990 -0.640698
O6    O     O_R   0.614630 0.316750 0.499990 -0.599183
O7    O     O_R   0.442270 0.500040 0.346380 -0.623826
O8    O     O_R   0.671600 0.500010 0.346380 -0.625766
Zn1   Zn    Zn3+2 0.346870 0.500020 0.500000 0.953475
Zn2   Zn    Zn3+2 0.653130 0.499980 0.500000 0.947215

loop_
_geom_bond_atom_site_label_1
_geom_bond_atom_site_label_2
_ccdc_geom_bond_type
C23   C58   A    
C41   C42   A    
C54   H41   S    
C35   C36   A    
C42   H22   S    
C1    O2    A    
C16   O8    A    
C7    C8    A    
C14   C46   S    
C57   H51   S    
C53   H39   S    
C22   N4    S    
C12   C23   A    
C26   C27   A    
C29   C30   A    
C4    O3    A    
C28   C29   A    
C59   H23   S    
O5    Zn1   S    
C36   H17   S    
O2    Zn2   S    
C51   H30   S    
C30   C31   A    
C52   N7    S    
C57   H52   S    
C38   H19   S    
C52   H35   S    
C49   C50   A    
C10   N3    A    
C6    C15   S    
O3    Zn1   S    
C33   H15   S    
C22   H53   S    
C15   O6    A    
C47   C48   A    
C45   C56   A    
C56   C58   A    
C8    C9    A    
C56   H12   S    
C25   H7    S    
C40   H20   S    
H45   N4    S    
C32   C38   A    
C25   N6    S    
C27   H9    S    
C10   C26   S    
C26   C31   A    
C24   H4    S    
H31   N7    S    
C13   C14   A    
C43   H24   S    
C49   H28   S    
C25   H8    S    
C7    N5    S    
C16   O7    A    
C17   N7    S    
H49   N2    S    
C19   N8    S    
C54   N9    S    
O4    Zn2   S    
C35   H16   S    
H56   N5    S    
H36   N8    S    
C5    N4    S    
H40   N9    S    
C47   H26   S    
C54   H43   S    
C1    C9    S    
C39   C40   A    
C30   H13   S    
C31   H14   S    
C4    O4    A    
C55   H46   S    
C53   H37   S    
C46   C51   A    
C55   H47   S    
C60   H1    S    
C2    C4    S    
C43   C44   A    
C22   H55   S    
C37   C38   A    
C3    C9    A    
C3    N2    S    
C50   H29   S    
C57   H50   S    
C55   N10   S    
O6    Zn2   S    
C41   H21   S    
C50   C51   A    
C48   H27   S    
H44   N10   S    
C52   H33   S    
C34   C45   A    
H5    N6    S    
C39   C44   A    
C18   C60   A    
C40   C41   A    
C11   C32   S    
C58   N10   S    
C24   H3    S    
C34   C59   A    
C52   H32   S    
C42   C43   A    
C12   C34   A    
C44   H25   S    
C11   N1    A    
C27   C28   A    
C20   H34   S    
C46   C47   A    
C36   C37   A    
C24   H2    S    
C2    C19   A    
C54   H42   S    
C28   H10   S    
C25   H6    S    
C1    O1    A    
C17   C45   A    
C3    C5    A    
C53   N8    S    
C13   N1    A    
C6    C7    A    
C53   H38   S    
C37   H18   S    
N3    Zn2   S    
C55   H48   S    
C32   C33   A    
C19   C20   A    
C8    N6    S    
C5    C6    A    
C48   C49   A    
C12   C21   A    
C24   N5    S    
C33   C35   A    
O8    Zn2   S    
O1    Zn1   S    
C13   C39   S    
C10   C11   A    
C17   C60   A    
C18   C59   A    
C22   H54   S    
C15   O5    A    
C20   C21   A    
C16   C18   S    
C14   N3    A    
C2    C23   A    
O7    Zn1   S    
C21   N9    S    
C57   N2    S    
C29   H11   S    
N1    Zn1   S    
