data_mof_unit_31418.cif
_audit_creation_date              2013-03-05T15:50:59-0500
_audit_creation_method            fapswitch 2.2
_symmetry_space_group_name_H-M    P1
_symmetry_Int_Tables_number       1
_space_group_crystal_system       triclinic
_cell_length_a                    6.926183
_cell_length_b                    17.663768
_cell_length_c                    19.177984
_cell_angle_alpha                 109.391143
_cell_angle_beta                  90.155846
_cell_angle_gamma                 90.851213
_cell_volume                      2212.87000701

loop_
_atom_site_label
_atom_site_type_symbol
_atom_site_description
_atom_site_fract_x
_atom_site_fract_y
_atom_site_fract_z
_atom_type_partial_charge
O1    O     O_R   0.505810 0.439670 0.562310 -0.558249
O2    O     O_R   0.169070 0.404920 0.411210 -0.604940
O3    O     O_R   0.005550 0.560330 0.437690 -0.612688
C1    C     C_R   0.338484 0.381362 0.382941 0.922259
O4    O     O_R   0.175650 0.430000 0.560110 -0.547185
O5    O     O_R   0.012170 0.585580 0.587650 -0.580859
C2    C     C_R   0.344551 0.413234 0.580347 1.130680
O6    O     O_R   0.499180 0.414420 0.412350 -0.593971
O7    O     O_3   0.341430 0.551020 0.508860 -0.298874
V1    V     V_3+5 0.063930 0.490540 0.498360 1.244350
O8    O     O_R   0.682850 0.595080 0.588790 -0.603974
C3    C     C_R   0.852918 0.617734 0.617299 1.000663
O9    O     O_R   0.676280 0.570000 0.439890 -0.609513
C4    C     C_R   0.845521 0.585202 0.418268 0.919837
V2    V     V_3+5 0.564760 0.509460 0.501640 1.218331
O10   O     O_3   0.837130 0.448980 0.491140 -0.229276
C5    C     C_R   0.068435 0.865821 0.179152 -0.250999
C6    C     C_R   0.913936 0.865425 0.131127 -0.145841
C7    C     C_R   0.747899 0.818430 0.131113 -0.252697
C8    C     C_R   0.736487 0.771584 0.177646 0.150793
C9    C     C_R   0.890974 0.773208 0.226312 0.029263
C10   C     C_R   0.056960 0.820920 0.227368 0.148254
C11   C     C_R   0.573371 0.723003 0.176353 -0.214894
C12   C     C_R   0.562083 0.677237 0.223494 -0.210894
C13   C     C_R   0.713429 0.679356 0.272973 0.150666
C14   C     C_R   0.879392 0.727087 0.274045 0.028848
C15   C     C_R   0.033893 0.728699 0.322702 0.147121
C16   C     C_R   0.196967 0.777313 0.324022 -0.209713
C17   C     C_R   0.208263 0.823073 0.276877 -0.202344
C18   C     C_R   0.702053 0.634374 0.321121 -0.259049
C19   C     C_R   0.856629 0.634708 0.369090 -0.129681
C20   C     C_R   0.022573 0.681781 0.369171 -0.254279
H1    H     H_    0.196294 0.902291 0.179974 0.135516
H2    H     H_    0.628535 0.817458 0.094114 0.141087
H3    H     H_    0.453690 0.720779 0.139178 0.143351
H4    H     H_    0.434062 0.640571 0.221600 0.140897
H5    H     H_    0.574239 0.597870 0.320269 0.132987
H6    H     H_    0.141964 0.682730 0.406153 0.139988
H7    H     H_    0.316639 0.779543 0.361204 0.145065
H8    H     H_    0.336283 0.859740 0.278771 0.144527
C21   C     C_3   0.814739 0.814553 0.737342 0.629056
C22   C     C_3   0.984978 0.765358 0.695044 -0.209568
H9    H     H_    0.067172 0.777863 0.650336 0.126511
C23   C     C_3   0.867736 0.688111 0.687581 -0.149959
C24   C     C_3   0.695956 0.737411 0.728255 -0.238580
C25   C     C_3   0.782031 0.736588 0.803041 -0.212592
C26   C     C_3   0.952553 0.685908 0.761374 -0.016484
C27   C     C_3   0.070446 0.763732 0.769551 -0.165699
C28   C     C_3   0.900490 0.813933 0.811019 -0.251220
H10   H     H_    0.542154 0.726334 0.710859 0.137434
H11   H     H_    0.698922 0.724612 0.847796 0.144355
H12   H     H_    0.005062 0.634048 0.775242 0.187996
H13   H     H_    0.224750 0.773786 0.786274 0.132364
C29   C     C_3   0.556680 0.282127 0.277760 -0.058126
C30   C     C_3   0.492960 0.194007 0.264538 -0.116863
H14   H     H_    0.583014 0.148152 0.276333 0.119797
H15   H     H_    0.699355 0.308557 0.300502 0.123080
C31   C     C_3   0.413832 0.189031 0.188065 -0.106058
C32   C     C_3   0.476971 0.276436 0.200608 -0.158973
C33   C     C_3   0.278254 0.305864 0.235641 -0.158908
C34   C     C_3   0.214530 0.217748 0.222431 -0.099130
C35   C     C_3   0.294256 0.223450 0.299587 -0.098912
C36   C     C_3   0.357374 0.310850 0.312099 -0.083466
H16   H     H_    0.553748 0.298162 0.159976 0.109829
H17   H     H_    0.188198 0.351742 0.223886 0.107530
H18   H     H_    0.071829 0.191314 0.199728 0.124310
H19   H     H_    0.217569 0.201770 0.340269 0.134228
C37   C     C_R   0.566828 0.133092 0.819476 -0.262462
C38   C     C_R   0.418389 0.135603 0.870112 -0.142579
C39   C     C_R   0.258525 0.184511 0.872779 -0.252758
C40   C     C_R   0.246761 0.230690 0.825881 0.153780
C41   C     C_R   0.391694 0.225197 0.772885 0.094859
C42   C     C_R   0.551082 0.175287 0.769260 0.151866
C43   C     C_R   0.092656 0.282532 0.831398 -0.244097
C44   C     C_R   0.083159 0.329596 0.785774 -0.113130
C45   C     C_R   0.223573 0.323610 0.731066 -0.027322
C46   C     C_R   0.377709 0.269938 0.723871 -0.037755
C47   C     C_R   0.518888 0.261297 0.668557 -0.010961
C48   C     C_R   0.672978 0.208529 0.664216 -0.106045
C49   C     C_R   0.690853 0.167561 0.714878 -0.240319
C50   C     C_R   0.217389 0.372196 0.685584 0.331626
C51   C     C_R   0.353644 0.361926 0.628382 -0.463945
C52   C     C_R   0.501096 0.304532 0.618473 0.314771
H20   H     H_    0.691841 0.096283 0.817397 0.144737
H21   H     H_    0.144788 0.187757 0.912391 0.141435
H22   H     H_    0.980518 0.287745 0.871984 0.140230
H23   H     H_    0.963672 0.370157 0.793769 0.178822
H24   H     H_    0.782666 0.198917 0.622338 0.177007
H25   H     H_    0.813157 0.128753 0.710770 0.150584
O11   O     O_R   0.271890 0.085690 0.087580 -0.596048
O12   O     O_R   0.595690 0.070020 0.939870 -0.607205
O13   O     O_R   0.758900 0.914390 0.912370 -0.614018
C53   C     C_R   0.427177 0.085846 0.918843 0.932790
O14   O     O_R   0.602020 0.095100 0.088770 -0.593583
O15   O     O_R   0.765280 0.939660 0.062330 -0.595288
C54   C     C_R   0.432631 0.118612 0.117106 0.912169
O16   O     O_R   0.265520 0.060430 0.937620 -0.593333
O17   O     O_3   0.429560 0.949050 0.991100 -0.276474
V3    V     V_3+5 0.707160 0.009450 0.001650 1.137845
O18   O     O_R   0.094540 0.929890 0.060190 -0.597535
C55   C     C_R   0.925226 0.914797 0.081832 0.954513
O19   O     O_R   0.088200 0.904800 0.911290 -0.594507
C56   C     C_R   0.917870 0.883122 0.882135 0.949985
V4    V     V_3+5 0.206300 0.990390 0.998440 1.144479
O20   O     O_3   0.934030 0.050940 0.008900 -0.275581
O21   O     O_3   0.747605 0.881143 0.719866 -0.652360
C57   C     C_3   0.578623 0.911603 0.759846 0.253066
H26   H     H_    0.619654 0.964009 0.808208 0.121314
H27   H     H_    0.498442 0.868354 0.780590 0.078840
C58   C     C_3   0.441230 0.938452 0.710955 -0.886714
H28   H     H_    0.393757 0.885896 0.663192 0.251871
H29   H     H_    0.312290 0.966233 0.743137 0.218290
H30   H     H_    0.514175 0.983098 0.690198 0.267625
N1    N     N_R   0.089361 0.438804 0.703046 0.231751
O22   O     O_R   0.161611 0.510882 0.718874 -0.472139
O23   O     O_R   0.903272 0.427596 0.696217 -0.395723
N2    N     N_R   0.625882 0.287789 0.555544 0.235816
O24   O     O_R   0.552378 0.263494 0.489113 -0.444590
O25   O     O_R   0.810128 0.303553 0.564353 -0.370113

loop_
_geom_bond_atom_site_label_1
_geom_bond_atom_site_label_2
_geom_bond_distance
_ccdc_geom_bond_type
C9    C14   1.414856 A    
C10   C17   1.403769 A    
C21   C22   1.539809 S    
C7    C8    1.405748 A    
C4    C19   1.485304 S    
C1    O6    1.287032 A    
C50   C51   1.416169 A    
C46   C47   1.416794 A    
C25   C28   1.546058 S    
C32   H16   1.109966 S    
C35   C36   1.537990 S    
C5    H1    1.084296 S    
C35   H19   1.110006 S    
C33   C36   1.538355 S    
C24   H10   1.110360 S    
C16   C17   1.400272 A    
C38   C53   1.481978 S    
C38   C39   1.405114 A    
N2    O25   1.300610 A    
O5    C3    1.292325 A    
C18   C19   1.408342 A    
O19   V4    2.006523 S    
O15   V3    2.000195 S    
O21   C57   1.413106 S    
V2    O10   2.158644 S    
C30   C35   1.552599 S    
O18   V4    1.991083 S    
C6    C7    1.408218 A    
C49   H25   1.084174 S    
C31   C54   1.515873 S    
C58   H28   1.110673 S    
C48   H24   1.080570 S    
O13   C56   1.289369 A    
C29   C30   1.548789 S    
O8    V2    2.006746 S    
C34   H18   1.110598 S    
C19   C20   1.408234 A    
C37   C38   1.407199 A    
C50   N1    1.433067 S    
C11   C12   1.400259 A    
C39   C40   1.403460 A    
O1    V2    1.995061 S    
C20   H6    1.084249 S    
O7    V1    2.161021 S    
C23   C26   1.543412 S    
C31   C34   1.549495 S    
C32   C33   1.552520 S    
O9    C4    1.298198 A    
C57   H27   1.113871 S    
O19   C56   1.300712 A    
C22   C23   1.542221 S    
C47   C52   1.417824 A    
C21   C28   1.534676 S    
V4    O20   2.158678 S    
N1    O22   1.298898 A    
C29   C32   1.548980 S    
C27   H13   1.109628 S    
V3    O20   1.709526 S    
C21   O21   1.410418 S    
C37   H20   1.083402 S    
C12   C13   1.403750 A    
C43   C44   1.394761 A    
O4    C2    1.300381 A    
C47   C48   1.411827 A    
C16   H7    1.083611 S    
C37   C42   1.404751 A    
C24   C25   1.556332 S    
C25   H11   1.110150 S    
C18   H5    1.084296 S    
C33   C34   1.548766 S    
C6    C55   1.485350 S    
O2    C1    1.308471 A    
C44   C45   1.411639 A    
C28   C56   1.502049 S    
C41   C46   1.418653 A    
O12   C53   1.298066 A    
C26   C27   1.550442 S    
C1    C36   1.515382 S    
C8    C11   1.403674 A    
C57   H26   1.103862 S    
C30   H14   1.110022 S    
C5    C6    1.408380 A    
C14   C15   1.411627 A    
C22   C27   1.554395 S    
C43   H22   1.084152 S    
O14   C54   1.308556 A    
C58   H30   1.110562 S    
O11   V4    2.006163 S    
O3    C4    1.296598 A    
C44   H23   1.080310 S    
C27   C28   1.540214 S    
C33   H17   1.110021 S    
O17   V3    2.160926 S    
O6    V2    2.005268 S    
C11   H3    1.083604 S    
O9    V2    1.990964 S    
C57   C58   1.521009 S    
C31   C32   1.538019 S    
C22   H9    1.110270 S    
O2    V1    1.992958 S    
C53   O16   1.295949 A    
C23   C24   1.538546 S    
C13   C18   1.405666 A    
C25   C26   1.548030 S    
C15   C20   1.405741 A    
O1    C2    1.295784 A    
C41   C42   1.410465 A    
C7    H2    1.084243 S    
C45   C50   1.413225 A    
O5    V1    1.997853 S    
C40   C43   1.397971 A    
N1    O23   1.300716 A    
O8    C3    1.297597 A    
O11   C54   1.287229 A    
C26   H12   1.101493 S    
C5    C10   1.405686 A    
C12   H4    1.083589 S    
C52   N2    1.437779 S    
C13   C14   1.411430 A    
O4    V1    2.001307 S    
C3    C23   1.501829 S    
O3    V1    2.000422 S    
V1    O10   1.709602 S    
N2    O24   1.301301 A    
C45   C46   1.414762 A    
O14   V3    1.992876 S    
O17   V4    1.706071 S    
C17   H8    1.083590 S    
O18   C55   1.298231 A    
C42   C49   1.399435 A    
O7    V2    1.708262 S    
C34   C35   1.549035 S    
C58   H29   1.110944 S    
O16   V4    2.001268 S    
C48   C49   1.397100 A    
C40   C41   1.411744 A    
C2    C51   1.493246 S    
C8    C9    1.411629 A    
C51   C52   1.418026 A    
C29   C36   1.549375 S    
C30   C31   1.538697 S    
C15   C16   1.403680 A    
C21   C24   1.540181 S    
O12   V3    2.001461 S    
C9    C10   1.411423 A    
C39   H21   1.084729 S    
O15   C55   1.296643 A    
O13   V3    1.997912 S    
C29   H15   1.110605 S    
