data_mof_unit_54414.cif
_audit_creation_date              2012-12-10T16:52:36-0500
_audit_creation_method            fapswitch 2.2
_symmetry_space_group_name_H-M    P1
_symmetry_Int_Tables_number       1
_space_group_crystal_system       triclinic
_cell_length_a                    7.833075
_cell_length_b                    8.628147
_cell_length_c                    13.778876
_cell_angle_alpha                 93.575298
_cell_angle_beta                  93.159923
_cell_angle_gamma                 93.979334
_cell_volume                      925.536710245

loop_
_atom_site_label
_atom_site_type_symbol
_atom_type_description
_atom_site_fract_x
_atom_site_fract_y
_atom_site_fract_z
_atom_type_partial_charge
C1    C     C_R   0.044376 0.794153 0.497775 0.911065
C2    C     C_R   0.936987 0.489193 0.317923 0.866070
C3    C     C_R   0.100417 0.547723 0.785556 -0.069462
C4    C     C_R   0.908038 0.482629 0.212812 -0.058211
C5    C     C_R   0.079640 0.715332 0.930653 -0.189123
C6    C     C_R   0.967249 0.380601 0.052199 -0.189060
C7    C     C_R   0.013555 0.658189 0.838369 -0.188718
C8    C     C_R   0.015017 0.405212 0.151012 -0.193211
C9    C     C_R   0.247748 0.491274 0.825705 -0.276137
C10   C     C_R   0.762793 0.546585 0.175104 -0.271373
C11   C     C_R   0.327196 0.560198 0.912145 0.092135
C12   C     C_R   0.955625 0.205844 0.502243 0.909127
C13   C     C_R   0.712753 0.524851 0.076305 0.086475
C14   C     C_R   0.237671 0.669052 0.967249 0.173044
C15   C     C_R   0.813327 0.434362 0.015264 0.178501
C16   C     C_R   0.493495 0.524231 0.944289 0.061944
C17   C     C_R   0.558031 0.579890 0.038807 0.060348
C18   C     C_1   0.223702 0.017318 0.567784 0.221773
C19   C     C_1   0.776340 0.982639 0.432181 0.221913
C20   C     C_R   0.465790 0.688251 0.092609 -0.227162
C21   C     C_R   0.599174 0.438334 0.883901 -0.231254
C22   C     C_R   0.308808 0.732691 0.056767 -0.222676
C23   C     C_R   0.757049 0.395487 0.918931 -0.219744
C24   C     C_2   0.067162 0.957143 0.511624 -0.247715
C25   C     C_2   0.932832 0.042841 0.488392 -0.246797
C26   C     C_R   0.063711 0.513934 0.681970 0.864604
H1    H     H_    0.242920 0.817264 0.099352 0.149387
H2    H     H_    0.565820 0.406297 0.808009 0.162061
H3    H     H_    0.487450 0.374214 0.427887 0.194758
H4    H     H_    0.512554 0.625741 0.572149 0.195347
H5    H     H_    0.833717 0.328669 0.870885 0.151536
H6    H     H_    0.683967 0.603893 0.225796 0.164718
H7    H     H_    0.301910 0.397425 0.785240 0.155653
H8    H     H_    0.129975 0.357035 0.179703 0.159206
H9    H     H_    0.898763 0.703565 0.807229 0.160928
H10   H     H_    0.011185 0.799965 0.971541 0.139311
H11   H     H_    0.047002 0.314849 0.005455 0.141733
H12   H     H_    0.514957 0.745910 0.161143 0.158316
N1    N     N_2   0.440860 0.456490 0.474790 -0.164576
N2    N     N_2   0.559140 0.543510 0.525210 -0.165349
N3    N     N_1   0.347991 0.064692 0.612395 -0.206381
N4    N     N_1   0.652115 0.935222 0.387520 -0.212059
O1    O     O_R   0.891570 0.738930 0.506190 -0.606935
O2    O     O_R   0.108430 0.261070 0.493810 -0.606762
O3    O     O_R   0.174650 0.711050 0.490030 -0.613662
O4    O     O_R   0.825350 0.288950 0.509970 -0.614416
O5    O     O_R   0.909850 0.521900 0.644940 -0.620189
O6    O     O_R   0.090150 0.478100 0.355060 -0.616838
O7    O     O_R   0.192930 0.494020 0.628780 -0.614728
O8    O     O_R   0.807070 0.505980 0.371220 -0.619891
Zn1   Zn    Zn3+2 0.810990 0.518620 0.510790 0.954370
Zn2   Zn    Zn3+2 0.189010 0.481380 0.489210 0.958104

loop_
_geom_bond_atom_site_label_1
_geom_bond_atom_site_label_2
_ccdc_geom_bond_type
O2    Zn2   S    
C2    C4    S    
C16   C21   A    
C3    C9    A    
N2    Zn1   S    
C20   H12   S    
C11   C16   A    
C19   N4    T    
C13   C17   A    
C12   C25   S    
C4    C8    A    
O7    Zn2   S    
O1    Zn1   S    
H3    N1    S    
C15   C23   A    
N1    Zn2   S    
C6    H11   S    
H4    N2    S    
C12   O2    A    
C8    H8    S    
C9    H7    S    
C9    C11   A    
C1    O3    A    
C5    C14   A    
C26   O5    A    
C18   C24   S    
C21   H2    S    
C20   C22   A    
O8    Zn1   S    
C3    C7    A    
C22   H1    S    
C21   C23   A    
C13   C15   A    
C14   C22   A    
C19   C25   S    
C11   C14   A    
C18   N3    T    
C4    C10   A    
C5    H10   S    
C10   H6    S    
O6    Zn2   S    
C17   C20   A    
C24   C25   D    
C1    C24   S    
C12   O4    A    
C26   O7    A    
N1    N2    D    
C5    C7    A    
C6    C8    A    
C2    O8    A    
O3    Zn2   S    
C2    O6    A    
C6    C15   A    
C7    H9    S    
O4    Zn1   S    
C1    O1    A    
C3    C26   S    
O5    Zn1   S    
C16   C17   A    
C10   C13   A    
C23   H5    S    
