data_mof_unit_50200.cif
_audit_creation_date              2012-10-26T19:41:32-0400
_audit_creation_method            fapswitch 2.2
_symmetry_space_group_name_H-M    P1
_symmetry_Int_Tables_number       1
_space_group_crystal_system       triclinic
_cell_length_a                    17.227661
_cell_length_b                    11.101125
_cell_length_c                    10.150703
_cell_angle_alpha                 112.455954
_cell_angle_beta                  95.736708
_cell_angle_gamma                 94.718167
_cell_volume                      1769.72240047

loop_
_atom_site_label
_atom_site_type_symbol
_atom_type_description
_atom_site_fract_x
_atom_site_fract_y
_atom_site_fract_z
_atom_type_partial_charge
C1    C     C_R   0.494301 0.253561 0.439244 0.566623
C2    C     C_R   0.648288 0.501340 0.483823 0.544773
C3    C     C_R   0.266557 0.485894 0.518780 -0.012988
C4    C     C_R   0.733454 0.514525 0.481435 -0.014498
C5    C     C_R   0.214783 0.437200 0.388707 -0.128765
C6    C     C_R   0.785091 0.564986 0.611731 -0.125712
C7    C     C_R   0.133301 0.420986 0.387581 0.063054
C8    C     C_R   0.866512 0.581798 0.613159 0.062088
C9    C     C_R   0.103811 0.459551 0.520956 0.017257
C10   C     C_R   0.896211 0.542128 0.479834 0.013998
C11   C     C_R   0.155613 0.503092 0.650095 -0.114761
C12   C     C_R   0.506078 0.746462 0.560724 0.566906
C13   C     C_R   0.844531 0.496663 0.350384 -0.118511
C14   C     C_R   0.236472 0.516135 0.649249 -0.135882
C15   C     C_R   0.763659 0.482939 0.350947 -0.137173
C16   C     C_2   0.020101 0.467311 0.531476 -0.044904
C17   C     C_2   0.980015 0.535093 0.469881 -0.054310
C18   C     C_2   0.917879 0.644572 0.754856 0.559442
C19   C     C_2   0.081214 0.359506 0.246537 0.560830
C20   C     C_3   0.520742 0.983924 0.754070 -0.405338
C21   C     C_3   0.474612 0.015471 0.246065 -0.404999
C22   C     C_3   0.429003 0.379710 0.823684 -0.305900
C23   C     C_2   0.491628 0.111046 0.402250 -0.015888
C24   C     C_3   0.575852 0.611364 0.173219 -0.306467
C25   C     C_3   0.590765 0.671538 0.928768 -0.205110
C26   C     C_3   0.395136 0.352179 0.078951 -0.203897
C27   C     C_2   0.509841 0.889068 0.597627 -0.016047
C28   C     C_2   0.504607 0.069899 0.510861 -0.133752
C29   C     C_2   0.502641 0.930823 0.488694 -0.133880
C30   C     C_2   0.506580 0.512011 0.080639 0.150780
C31   C     C_2   0.492389 0.489614 0.919735 0.151075
C32   C     C_R   0.351713 0.498695 0.516197 0.546673
Cu1   Cu    Cu3+1 0.513640 0.521550 0.643210 0.906092
Cu2   Cu    Cu3+1 0.486360 0.478450 0.356790 0.905016
H1    H     H_    0.237936 0.408424 0.287199 0.155212
H2    H     H_    0.517090 0.141816 0.620871 0.152244
H3    H     H_    0.931152 0.684478 0.967849 0.348567
H4    H     H_    0.978532 0.251479 0.133720 0.345738
H5    H     H_    0.524604 0.932843 0.829012 0.149757
H6    H     H_    0.575988 0.052436 0.779396 0.131217
H7    H     H_    0.469997 0.040766 0.775162 0.123079
H8    H     H_    0.464636 0.065820 0.171375 0.151827
H9    H     H_    0.525231 0.959695 0.216481 0.118892
H10   H     H_    0.420799 0.946019 0.229235 0.134150
H11   H     H_    0.370860 0.399877 0.856731 0.083789
H12   H     H_    0.761775 0.594687 0.713106 0.166486
H13   H     H_    0.415833 0.365026 0.712961 0.202466
H14   H     H_    0.446312 0.283986 0.816772 0.082108
H15   H     H_    0.631385 0.576004 0.137078 0.096263
H16   H     H_    0.567817 0.710580 0.179097 0.069873
H17   H     H_    0.585309 0.632669 0.286077 0.201784
H18   H     H_    0.613348 0.701197 0.846205 0.174645
H19   H     H_    0.562238 0.755806 0.994962 0.089583
H20   H     H_    0.645063 0.653262 0.981400 0.098345
H21   H     H_    0.376796 0.316084 0.159855 0.174501
H22   H     H_    0.344944 0.399994 0.054007 0.110890
H23   H     H_    0.724948 0.445418 0.249201 0.136564
H24   H     H_    0.405934 0.260677 0.992805 0.082921
H25   H     H_    0.275276 0.552039 0.750817 0.138219
H26   H     H_    0.007299 0.576472 0.401796 0.135600
H27   H     H_    0.992767 0.425945 0.599536 0.139453
H28   H     H_    0.133272 0.531712 0.752371 0.151616
H29   H     H_    0.866999 0.467064 0.248174 0.141480
H30   H     H_    0.494617 0.859358 0.378431 0.150899
N1    N     N_2   0.465840 0.446060 0.141630 -0.244943
N2    N     N_2   0.534160 0.553940 0.858370 -0.242564
O1    O     O_R   0.507280 0.332200 0.576490 -0.522275
O2    O     O_R   0.891411 0.637354 0.877839 -0.712296
O3    O     O_2   0.102962 0.368370 0.139107 -0.525846
O4    O     O_R   0.008221 0.288364 0.235171 -0.695058
O5    O     O_R   0.492720 0.667800 0.423510 -0.520854
O6    O     O_R   0.484240 0.295800 0.334620 -0.500717
O7    O     O_R   0.515760 0.704200 0.665380 -0.506979
O8    O     O_R   0.399260 0.520290 0.634950 -0.518038
O9    O     O_R   0.600740 0.479710 0.365050 -0.518910
O10   O     O_R   0.376220 0.483890 0.393080 -0.510241
O11   O     O_R   0.623780 0.516110 0.606920 -0.503668
O12   O     O_2   0.982291 0.705314 0.765345 -0.511604

loop_
_geom_bond_atom_site_label_1
_geom_bond_atom_site_label_2
_ccdc_geom_bond_type
C31   N2    D    
C22   H14   S    
H4    O4    S    
C27   C29   D    
C11   H28   S    
C26   H21   S    
C20   H7    S    
C14   H25   S    
C28   C29   S    
C9    C16   S    
C25   H19   S    
C32   O8    A    
C30   C31   S    
C20   H6    S    
C11   C14   A    
C10   C17   S    
C18   O2    S    
H3    O2    S    
C21   H9    S    
C16   C17   D    
Cu2   O9    S    
C24   H17   S    
C22   H13   S    
C29   H30   S    
C12   O7    A    
C15   H23   S    
Cu2   N1    S    
Cu1   N2    S    
C24   H16   S    
C1    O6    A    
C22   C31   S    
C12   C27   S    
C25   H20   S    
C4    C6    A    
C5    C7    A    
C20   H5    S    
C6    C8    A    
C8    C18   S    
C2    C4    S    
C21   H10   S    
C9    C11   A    
C13   H29   S    
C18   O12   D    
Cu1   Cu2   S    
C23   C28   D    
C26   H24   S    
C3    C14   A    
Cu1   O7    S    
C12   O5    A    
C1    C23   S    
C7    C19   S    
C13   C15   A    
C19   O3    D    
C16   H27   S    
Cu2   O6    S    
Cu1   O1    S    
C24   H15   S    
C7    C9    A    
C6    H12   S    
C26   N1    S    
C25   N2    S    
C3    C5    A    
C10   C13   A    
C26   H22   S    
C32   O10   A    
C20   C27   S    
C4    C15   A    
C21   C23   S    
C25   H18   S    
C2    O11   A    
Cu1   O11   S    
C5    H1    S    
C1    O1    A    
C3    C32   S    
C24   C30   S    
C30   N1    D    
C17   H26   S    
C21   H8    S    
Cu1   O8    S    
C22   H11   S    
C28   H2    S    
C8    C10   A    
C19   O4    S    
Cu2   O5    S    
C2    O9    A    
Cu2   O10   S    
