data_mof_unit_46747.cif
_audit_creation_date              2012-12-10T21:00:44-0500
_audit_creation_method            fapswitch 2.2
_symmetry_space_group_name_H-M    P1
_symmetry_Int_Tables_number       1
_space_group_crystal_system       triclinic
_cell_length_a                    18.115676
_cell_length_b                    18.218545
_cell_length_c                    18.384405
_cell_angle_alpha                 119.9988
_cell_angle_beta                  89.903043
_cell_angle_gamma                 119.818445
_cell_volume                      4305.8499598

loop_
_atom_site_label
_atom_site_type_symbol
_atom_type_description
_atom_site_fract_x
_atom_site_fract_y
_atom_site_fract_z
_atom_type_partial_charge
C1    C     C_R   0.110991 0.220121 0.609689 0.896607
C2    C     C_R   0.889009 0.779879 0.390311 0.896607
C3    C     C_3   0.975275 0.423184 0.416209 0.215541
C4    C     C_3   0.024725 0.576816 0.583791 0.215541
C5    C     C_3   0.451213 0.966382 0.922503 0.231983
C6    C     C_3   0.548786 0.033618 0.077497 0.231979
C7    C     C_3   0.554918 0.037338 0.961121 0.335479
C8    C     C_3   0.445082 0.962661 0.038879 0.335426
C9    C     C_3   0.550583 0.104428 0.053447 -0.370784
C10   C     C_3   0.449417 0.895572 0.946553 -0.370780
C11   C     C_3   0.446418 0.032480 0.014271 0.355833
C12   C     C_3   0.553582 0.967520 0.985729 0.355880
C13   C     C_3   0.447963 0.406447 0.482331 0.361999
C14   C     C_3   0.552037 0.593553 0.517669 0.361999
C15   C     C_3   0.550983 0.473368 0.515275 0.365694
C16   C     C_3   0.449017 0.526632 0.484725 0.365693
C17   C     C_3   0.550141 0.498957 0.447615 -0.160821
C18   C     C_3   0.449858 0.501043 0.552385 -0.160822
C19   C     C_3   0.445355 0.430350 0.413027 -0.349535
C20   C     C_3   0.554645 0.569650 0.586973 -0.349534
C21   C     C_R   0.214732 0.189018 0.811361 -0.139166
C22   C     C_R   0.785268 0.810982 0.188639 -0.139163
C23   C     C_R   0.392555 0.780568 0.888035 0.930765
C24   C     C_R   0.607445 0.219432 0.111965 0.930764
C25   C     C_R   0.177246 0.138971 0.720260 0.526602
C26   C     C_R   0.822754 0.861029 0.279740 0.526602
C27   C     C_R   0.086503 0.101116 0.685872 0.031006
C28   C     C_R   0.913497 0.898884 0.314128 0.031005
C29   C     C_R   0.035945 0.113418 0.743511 -0.084687
C30   C     C_R   0.964055 0.886582 0.256489 -0.084687
C31   C     C_R   0.074145 0.163917 0.834488 0.519465
C32   C     C_R   0.925855 0.836083 0.165512 0.519465
C33   C     C_R   0.164120 0.201698 0.868178 -0.326428
C34   C     C_R   0.835880 0.798301 0.131822 -0.326429
C35   C     C_R   0.989166 0.944507 0.535822 0.636077
C36   C     C_R   0.010834 0.055493 0.464178 0.636078
C37   C     C_R   0.945419 0.892278 0.445355 -0.290025
C38   C     C_R   0.054581 0.107722 0.554645 -0.290025
C39   C     C_R   0.956777 0.948550 0.409198 -0.222911
C40   C     C_R   0.043223 0.051450 0.590802 -0.222911
C41   C     C_R   0.645789 0.598407 0.794212 -0.383483
C42   C     C_R   0.354211 0.401593 0.205788 -0.383482
C43   C     C_R   0.594275 0.545156 0.830058 0.420346
C44   C     C_R   0.405725 0.454844 0.169942 0.420345
C45   C     C_R   0.110380 0.500406 0.889171 0.818494
C46   C     C_R   0.889620 0.499594 0.110829 0.818496
C47   C     C_R   0.592299 0.601732 0.916238 0.009187
C48   C     C_R   0.407701 0.398268 0.083762 0.009189
C49   C     C_R   0.640583 0.709769 0.965002 -0.357925
C50   C     C_R   0.359417 0.290231 0.034998 -0.357929
C51   C     C_R   0.691955 0.762706 0.929535 0.411217
C52   C     C_R   0.308045 0.237294 0.070464 0.411213
C53   C     C_R   0.694450 0.706125 0.843374 0.577433
C54   C     C_R   0.305549 0.293875 0.156626 0.577436
C55   C     C_R   0.591955 0.547375 0.013534 -0.258463
C56   C     C_R   0.408045 0.452624 0.986466 -0.258463
C57   C     C_R   0.550218 0.499343 0.055644 -0.032980
C58   C     C_R   0.449782 0.500657 0.944356 -0.032979
C59   C     C_R   0.457050 0.450911 0.041912 0.116333
C60   C     C_R   0.542950 0.549089 0.958088 0.116333
C61   C     C_R   0.121204 0.793120 0.954660 0.301648
C62   C     C_R   0.878794 0.206881 0.045343 0.301648
C63   C     C_R   0.112097 0.732160 0.984218 0.498921
C64   C     C_R   0.887901 0.267841 0.015784 0.498922
C65   C     C_R   0.034848 0.628566 0.938416 -0.175771
C66   C     C_R   0.965152 0.371434 0.061585 -0.175769
C67   C     C_R   0.392366 0.500188 0.608194 0.936901
C68   C     C_R   0.607634 0.499812 0.391806 0.936899
C69   C     C_R   0.968493 0.588525 0.864665 -0.406980
C70   C     C_R   0.031509 0.411473 0.135333 -0.406982
C71   C     C_R   0.976391 0.650037 0.837144 0.718047
C72   C     C_R   0.023609 0.349961 0.162855 0.718043
C73   C     C_R   0.050770 0.752985 0.882679 0.204953
C74   C     C_R   0.949229 0.247015 0.117322 0.204959
C75   C     C_R   0.965606 0.559245 0.022790 -0.220038
C76   C     C_R   0.034394 0.440755 0.977210 -0.220041
C77   C     C_R   0.946157 0.498220 0.054397 -0.077198
C78   C     C_R   0.053843 0.501780 0.945603 -0.077199
C79   C     C_R   0.981063 0.437961 0.031145 0.068606
C80   C     C_R   0.018938 0.562039 0.968855 0.068607
C81   C     C_R   0.393989 0.499630 0.888168 0.843198
C82   C     C_R   0.606011 0.500370 0.111832 0.843199
C83   C     C_R   0.109421 0.500606 0.608154 1.019758
C84   C     C_R   0.890579 0.499394 0.391846 1.019756
C85   C     C_3   0.073323 0.513839 0.475995 0.522624
C86   C     C_3   0.926677 0.486161 0.524005 0.522626
C87   C     C_3   0.045998 0.590078 0.508475 0.470559
C88   C     C_3   0.954002 0.409922 0.491525 0.470560
C89   C     C_3   0.947739 0.498811 0.447955 -0.480130
C90   C     C_3   0.052262 0.501189 0.552045 -0.480129
H1    H     H_    0.195089 0.241156 0.938395 0.162074
H2    H     H_    0.804911 0.758844 0.061605 0.162073
H3    H     H_    0.284022 0.218865 0.838331 0.177545
H4    H     H_    0.715978 0.781135 0.161668 0.177545
H5    H     H_    0.966791 0.085054 0.717692 0.181836
H6    H     H_    0.033209 0.914945 0.282308 0.181836
H7    H     H_    0.648943 0.556538 0.728371 0.204761
H8    H     H_    0.351057 0.443462 0.271629 0.204761
H9    H     H_    0.638726 0.753166 0.031251 0.198373
H10   H     H_    0.361274 0.246834 0.968749 0.198370
H11   H     H_    0.663262 0.582945 0.022688 0.174273
H12   H     H_    0.336738 0.417055 0.977312 0.174273
H13   H     H_    0.909217 0.509675 0.829478 0.226101
H14   H     H_    0.090786 0.490322 0.170518 0.226101
H15   H     H_    0.939068 0.605497 0.039915 0.198432
H16   H     H_    0.060932 0.394503 0.960085 0.198433
H17   H     H_    0.401211 0.373294 0.342560 0.242183
H18   H     H_    0.598789 0.626706 0.657440 0.242183
O1    O     O_3   0.251620 0.500000 0.748430 -0.541104
O2    O     O_3   0.748380 0.500000 0.251570 -0.541104
O3    O     O_R   0.134680 0.560740 0.864590 -0.643731
O4    O     O_R   0.865320 0.439260 0.135410 -0.643730
O5    O     O_R   0.306670 0.439270 0.571150 -0.571681
O6    O     O_R   0.693330 0.560730 0.428850 -0.571681
O7    O     O_R   0.135450 0.268370 0.694460 -0.669477
O8    O     O_R   0.864550 0.731630 0.305540 -0.669477
O9    O     O_R   0.429670 0.731610 0.863510 -0.637496
O10   O     O_R   0.570330 0.268390 0.136490 -0.637503
O11   O     O_R   0.134680 0.268390 0.572240 -0.553435
O12   O     O_R   0.865320 0.731610 0.427760 -0.553435
O13   O     O_R   0.306670 0.731630 0.863510 -0.593060
O14   O     O_R   0.693330 0.268370 0.136490 -0.593054
O15   O     O_R   0.135450 0.439270 0.865360 -0.650969
O16   O     O_R   0.864550 0.560730 0.134640 -0.650970
O17   O     O_R   0.429670 0.560710 0.692610 -0.662420
O18   O     O_R   0.570330 0.439290 0.307390 -0.662421
O19   O     O_R   0.308540 0.439240 0.865360 -0.656054
O20   O     O_R   0.691460 0.560760 0.134640 -0.656054
O21   O     O_R   0.133580 0.439310 0.571150 -0.591453
O22   O     O_R   0.866420 0.560690 0.428850 -0.591453
O23   O     O_R   0.430770 0.560690 0.864590 -0.650183
O24   O     O_R   0.569230 0.439310 0.135410 -0.650183
O25   O     O_R   0.133580 0.560760 0.692610 -0.607889
O26   O     O_R   0.866420 0.439240 0.307390 -0.607889
Zn1   Zn    Zn3+2 0.207400 0.586780 0.791530 1.044552
Zn2   Zn    Zn3+2 0.792600 0.413220 0.208470 1.044557
Zn3   Zn    Zn3+2 0.208510 0.413230 0.792630 0.967518
Zn4   Zn    Zn3+2 0.791490 0.586770 0.207370 0.967519
Zn5   Zn    Zn3+2 0.383150 0.586740 0.791530 1.001678
Zn6   Zn    Zn3+2 0.616850 0.413260 0.208470 1.001675
Zn7   Zn    Zn3+2 0.207400 0.413250 0.618010 1.134562
Zn8   Zn    Zn3+2 0.792600 0.586750 0.381990 1.134561
F1    F     F_    0.093142 0.683283 0.517718 -0.562229
F2    F     F_    0.906858 0.316717 0.482282 -0.562228
O27   O     O_3   0.231701 0.130046 0.668437 -0.729687
H19   H     H_    0.197084 0.091008 0.605371 0.345113
O28   O     O_3   0.768299 0.869954 0.331563 -0.729686
H20   H     H_    0.802916 0.908992 0.394628 0.345114
O29   O     O_3   0.022228 0.175723 0.888556 -0.740547
H21   H     H_    0.059129 0.213823 0.950767 0.329888
O30   O     O_3   0.977773 0.824277 0.111444 -0.740545
H22   H     H_    0.940872 0.786177 0.049233 0.329888
F3    F     F_    0.981467 0.891976 0.571345 -0.593812
F4    F     F_    0.018533 0.108024 0.428655 -0.593812
F5    F     F_    0.744253 0.754875 0.807065 -0.611391
F6    F     F_    0.255747 0.245125 0.192935 -0.611390
O31   O     O_3   0.546274 0.438873 0.782902 -0.731158
H23   H     H_    0.554414 0.411292 0.723747 0.351199
O32   O     O_3   0.453726 0.561127 0.217098 -0.731158
H24   H     H_    0.445586 0.588708 0.276253 0.351199
F7    F     F_    0.148543 0.527286 0.450761 -0.526021
F8    F     F_    0.851458 0.472714 0.549239 -0.526020
O33   O     O_3   0.739289 0.869112 0.981165 -0.718996
H25   H     H_    0.771921 0.895582 0.947415 0.400433
O34   O     O_3   0.260711 0.130887 0.018835 -0.719001
H26   H     H_    0.228079 0.104418 0.052585 0.400433
O35   O     O_3   0.051002 0.811992 0.856397 -0.650240
H27   H     H_    0.088295 0.885602 0.907610 0.362061
O36   O     O_3   0.948996 0.188007 0.143604 -0.650238
H28   H     H_    0.911699 0.114397 0.092391 0.362062
O37   O     O_3   0.200095 0.890788 0.997164 -0.601327
H29   H     H_    0.211497 0.910347 0.954804 0.378074
O38   O     O_3   0.799900 0.109215 0.002842 -0.601328
H30   H     H_    0.788499 0.089658 0.045203 0.378077
O39   O     O_3   0.180842 0.776632 0.056929 -0.641408
H31   H     H_    0.167776 0.726210 0.070585 0.328490
O40   O     O_3   0.819155 0.223371 0.943075 -0.641409
H32   H     H_    0.832224 0.273790 0.929415 0.328491
F9    F     F_    0.909433 0.610316 0.767469 -0.545457
F10   F     F_    0.090569 0.389681 0.232528 -0.545459
O41   O     O_3   0.948369 0.342036 0.327709 -0.610924
H33   H     H_    0.976443 0.307739 0.329140 0.416847
O42   O     O_3   0.051631 0.657964 0.672291 -0.610926
H34   H     H_    0.023558 0.692262 0.670860 0.416846
O43   O     O_3   0.612582 0.074649 0.919420 -0.596765
H35   H     H_    0.599903 0.119731 0.915341 0.315581
O44   O     O_3   0.387417 0.925350 0.080580 -0.596779
H36   H     H_    0.400090 0.880261 0.084652 0.315563
O45   O     O_3   0.400170 0.931296 0.841322 -0.660286
H37   H     H_    0.416281 0.994552 0.846275 0.340294
O46   O     O_3   0.599832 0.068703 0.158677 -0.660288
H38   H     H_    0.583661 0.005443 0.153750 0.340293
O47   O     O_3   0.389133 0.065025 0.029292 -0.626557
H39   H     H_    0.402606 0.103551 0.002101 0.342445
O48   O     O_3   0.610866 0.934975 0.970708 -0.626550
H40   H     H_    0.597401 0.896460 0.997909 0.342462
O49   O     O_3   0.604426 0.443275 0.528246 -0.672516
H41   H     H_    0.582888 0.420188 0.567281 0.348755
O50   O     O_3   0.395574 0.556725 0.471753 -0.672515
H42   H     H_    0.417112 0.579811 0.432718 0.348755
O51   O     O_3   0.393532 0.309058 0.466677 -0.705923
H43   H     H_    0.406125 0.264272 0.417479 0.373186
O52   O     O_3   0.606468 0.690942 0.533323 -0.705923
H44   H     H_    0.593875 0.735728 0.582521 0.373187

loop_
_geom_bond_atom_site_label_1
_geom_bond_atom_site_label_2
_ccdc_geom_bond_type
C38   C40   A    
O52   H44   S    
C63   C65   A    
O34   H26   S    
C46   O4    A    
O1    Zn1   S    
C85   F7    S    
O51   H43   S    
O2    Zn2   S    
O33   H25   S    
C76   C79   A    
C73   O35   S    
C6    C9    S    
O27   H19   S    
C36   F4    S    
O2    Zn6   S    
C47   C49   A    
C4    C87   S    
O41   H33   S    
O17   Zn5   S    
C66   C79   S    
C84   O26   A    
O31   H23   S    
C13   C18   S    
O6    Zn8   S    
O16   Zn4   S    
C35   C37   A    
C76   C78   A    
C55   H11   S    
C83   O21   A    
C42   H8    S    
C54   F6    S    
C31   O29   S    
C86   C88   S    
C81   O23   A    
O21   Zn7   S    
O49   H41   S    
C58   C60   A    
C65   C69   A    
C27   C29   A    
C18   C20   S    
O2    Zn8   S    
O36   H28   S    
C71   F9    S    
C26   O28   S    
C69   C71   A    
O20   Zn4   S    
C74   O36   S    
C62   C64   A    
C47   C60   S    
C2    O8    A    
O28   H20   S    
C13   O51   S    
C28   C30   A    
C49   C51   A    
C87   C89   S    
C6    O46   S    
C30   H6    S    
O30   H22   S    
C31   C33   A    
C51   O33   S    
C45   C78   S    
C61   O37   S    
C21   C33   A    
C75   C80   A    
C41   C43   A    
C4    C90   S    
O47   H39   S    
C48   C50   A    
O50   H42   S    
C65   C80   S    
C55   C60   A    
C81   O19   A    
C22   H4    S    
C14   C17   S    
C46   O16   A    
O9    Zn5   S    
C35   F3    S    
C42   C44   A    
O4    Zn2   S    
O10   Zn6   S    
C6    C12   S    
C52   C54   A    
O8    Zn4   S    
C85   C87   S    
C8    O44   S    
C16   C19   S    
C7    C12   S    
C22   C34   A    
C68   O6    A    
C70   C72   A    
C13   C19   S    
O46   H38   S    
O7    Zn3   S    
O2    Zn4   S    
O12   Zn8   S    
C23   O13   A    
C58   C81   S    
O35   H27   S    
C29   H5    S    
O23   Zn5   S    
C2    O12   A    
C6    C8    S    
C28   C39   S    
C61   C73   A    
C18   C67   S    
O38   H30   S    
C62   O38   S    
C45   O15   A    
C15   C20   S    
C51   C53   A    
C32   C34   A    
O42   H34   S    
C1    O11   A    
C14   C20   S    
C52   O34   S    
C49   H9    S    
C3    O41   S    
C50   C52   A    
O32   H24   S    
C27   C40   S    
C29   C31   A    
C82   O20   A    
C14   O52   S    
C24   O14   A    
C77   C79   A    
C55   C57   A    
O13   Zn1   S    
C63   O39   S    
C9    C11   S    
O37   H29   S    
C41   C53   A    
C16   O50   S    
C10   C12   S    
C1    C38   S    
C86   F8    S    
C72   C74   A    
C88   C90   S    
C53   F5    S    
C13   C15   S    
C5    C11   S    
C25   C27   A    
O11   Zn7   S    
C12   O48   S    
C14   C16   S    
C3    C85   S    
C25   O27   S    
C84   C89   S    
O14   Zn2   S    
C82   O24   A    
C36   C38   A    
C68   O18   A    
C78   C80   A    
C48   C59   S    
C5    C7    S    
C20   H18   S    
C15   C17   S    
C83   C90   S    
C21   C25   A    
C17   C68   S    
C76   H16   S    
C3    C88   S    
C70   H14   S    
C24   O10   A    
C7    O43   S    
C36   C39   A    
O18   Zn6   S    
C11   O47   S    
C43   O31   S    
C86   C89   S    
C23   O9    A    
C46   C77   S    
O26   Zn2   S    
C85   C90   S    
C45   O3    A    
C9    C24   S    
C75   H15   S    
C10   C23   S    
O24   Zn6   S    
C1    O7    A    
O15   Zn3   S    
C26   C28   A    
C56   C59   A    
O1    Zn5   S    
C3    C89   S    
O1    Zn3   S    
C16   C18   S    
C67   O17   A    
C35   C40   A    
C67   O5    A    
C56   H12   S    
C5    C10   S    
C37   C39   A    
O39   H31   S    
O29   H21   S    
C42   C54   A    
C30   C32   A    
C64   O40   S    
C69   H13   S    
C2    C37   S    
O3    Zn1   S    
O43   H35   S    
C66   C70   A    
C32   O30   S    
C21   H3    S    
C8    C11   S    
C15   O49   S    
C84   O22   A    
C17   C19   S    
C56   C58   A    
C41   H7    S    
O5    Zn7   S    
C4    O42   S    
O45   H37   S    
O22   Zn8   S    
C34   H2    S    
C50   H10   S    
C83   O25   A    
C57   C59   A    
C5    O45   S    
O48   H40   S    
C7    C9    S    
O44   H36   S    
C4    C86   S    
C8    C10   S    
O40   H32   S    
C22   C26   A    
C75   C77   A    
C71   C73   A    
O25   Zn1   S    
C44   O32   S    
C72   F10   S    
C57   C82   S    
C62   C74   A    
O1    Zn7   S    
O19   Zn3   S    
C87   F1    S    
C43   C47   A    
C88   F2    S    
C44   C48   A    
C64   C66   A    
C61   C63   A    
C33   H1    S    
C19   H17   S    
