data_mof_unit_33753.cif
_audit_creation_date              2012-12-11T14:56:38-0500
_audit_creation_method            fapswitch 2.2
_symmetry_space_group_name_H-M    P1
_symmetry_Int_Tables_number       1
_space_group_crystal_system       triclinic
_cell_length_a                    10.529972
_cell_length_b                    10.641466
_cell_length_c                    17.043897
_cell_angle_alpha                 80.037637
_cell_angle_beta                  89.861189
_cell_angle_gamma                 119.154642
_cell_volume                      1634.36473053

loop_
_atom_site_label
_atom_site_type_symbol
_atom_type_description
_atom_site_fract_x
_atom_site_fract_y
_atom_site_fract_z
_atom_type_partial_charge
C1    C     C_R   0.279237 0.888784 0.132796 0.556637
C2    C     C_R   0.798767 0.423747 0.262569 -0.128152
C3    C     C_R   0.788632 0.410571 0.183794 -0.129705
C4    C     C_R   0.651108 0.342830 0.156265 0.028153
C5    C     C_1   0.685340 0.830654 0.201616 -0.027184
C6    C     C_1   0.704119 0.806637 0.270410 -0.032728
C7    C     C_1   0.228218 0.854035 0.215628 -0.042863
C8    C     C_1   0.179503 0.834936 0.283205 -0.044490
C9    C     C_1   0.662149 0.359017 0.780504 -0.002389
C10   C     C_1   0.684968 0.403052 0.709826 -0.011273
C11   C     C_R   0.618482 0.713472 0.804364 -0.171045
C12   C     C_R   0.636329 0.280545 0.086005 0.531695
C13   C     C_R   0.602001 0.698889 0.726135 -0.133764
C14   C     C_R   0.667337 0.823551 0.664662 -0.005288
C15   C     C_R   0.754762 0.962544 0.681755 -0.104820
C16   C     C_R   0.771211 0.978523 0.760592 0.206147
C17   C     C_R   0.693359 0.853508 0.822565 0.022341
C18   C     C_R   0.074536 0.889441 0.793421 -0.135028
C19   C     C_R   0.039040 0.873526 0.716582 -0.168477
C20   C     C_R   0.057226 0.773194 0.681466 0.008373
C21   C     C_R   0.098186 0.676785 0.728061 0.229009
C22   C     C_R   0.135745 0.695426 0.804919 -0.087566
C23   C     C_R   0.643571 0.855254 0.124157 0.540707
C24   C     C_R   0.132545 0.807374 0.835701 -0.027802
C25   C     C_R   0.711579 0.772152 0.353679 0.559323
C26   C     C_R   0.689397 0.396451 0.394507 0.549372
C27   C     C_R   0.108661 0.812787 0.359983 0.552632
C28   C     C_R   0.676975 0.800539 0.585086 0.546615
C29   C     C_R   0.717501 0.446651 0.625799 0.539751
C30   C     C_R   0.031392 0.774417 0.597309 0.546158
C31   C     C_R   0.213980 0.857766 0.903013 0.560456
C32   C     C_R   0.640429 0.291273 0.861993 0.557360
C33   C     C_R   0.648189 0.867268 0.899306 0.561250
C34   C     C_R   0.524763 0.304031 0.205406 -0.129014
C35   C     C_R   0.535252 0.318875 0.284596 -0.133975
C36   C     C_R   0.671609 0.372000 0.314030 0.029189
Cr1   Cr    Cr6+3 0.402240 0.783890 0.019450 1.032004
Cr2   Cr    Cr6+3 0.382360 0.097900 0.991800 1.036690
Cr3   Cr    Cr6+3 0.715380 0.118170 0.988700 1.084146
Cr4   Cr    Cr6+3 0.936650 0.882420 0.465510 1.028268
Cr5   Cr    Cr6+3 0.605770 0.565620 0.493360 1.052190
Cr6   Cr    Cr6+3 0.921340 0.550490 0.496380 1.086676
H1    H     H_    0.417140 0.252259 0.184675 0.143780
H2    H     H_    0.004347 0.945400 0.682902 0.162120
H3    H     H_    0.177565 0.629312 0.838143 0.172447
H4    H     H_    0.437553 0.284989 0.323179 0.139240
H5    H     H_    0.906632 0.474068 0.283193 0.146149
H6    H     H_    0.887183 0.443821 0.146111 0.142648
H7    H     H_    0.562147 0.615603 0.850914 0.146002
H8    H     H_    0.541242 0.589129 0.713875 0.162750
H9    H     H_    0.814028 0.057438 0.633776 0.172654
H10   H     H_    0.067435 0.974260 0.817049 0.186549
O1    O     O_R   0.521780 0.757110 0.108900 -0.515558
O2    O     O_R   0.513330 0.228330 0.898660 -0.502368
O3    O     O_R   0.739230 0.266130 0.888050 -0.446828
O4    O     O_R   0.712580 0.991850 0.918770 -0.442193
O5    O     O_3   0.499990 0.999980 0.999980 -0.275554
O6    O     O_R   0.083770 0.911170 0.376030 -0.508492
O7    O     O_R   0.808770 0.880340 0.383890 -0.483302
O8    O     O_R   0.584340 0.689460 0.394160 -0.491095
O9    O     O_R   0.614320 0.443940 0.423590 -0.509943
O10   O     O_R   0.805020 0.410040 0.421340 -0.513853
O11   O     O_R   0.049240 0.685450 0.403290 -0.495699
O12   O     O_R   0.275160 0.783810 0.101120 -0.493659
O13   O     O_R   0.077520 0.903010 0.551800 -0.500332
O14   O     O_R   0.802980 0.872780 0.546830 -0.526881
O15   O     O_R   0.578090 0.681300 0.569920 -0.490909
O16   O     O_R   0.608530 0.436370 0.586530 -0.491307
O17   O     O_R   0.798770 0.401880 0.597100 -0.443618
O18   O     O_R   0.043450 0.677890 0.566230 -0.438912
O19   O     O_3   0.821250 0.666180 0.485090 -0.337015
O20   O     O_R   0.237900 0.972600 0.090980 -0.508610
O21   O     O_R   0.511190 0.220540 0.061620 -0.527552
O22   O     O_R   0.736920 0.257720 0.063840 -0.517447
O23   O     O_R   0.710450 0.984050 0.081720 -0.495870
O24   O     O_R   0.524090 0.765520 0.933110 -0.525558
O25   O     O_R   0.277300 0.791600 0.938160 -0.499035
O26   O     O_R   0.240210 0.981010 0.915190 -0.501003
Cl1   Cl    Cl    0.117803 0.539601 0.693378 -0.500062
Cl2   Cl    Cl    0.890417 0.156424 0.776904 -0.521260

loop_
_geom_bond_atom_site_label_1
_geom_bond_atom_site_label_2
_ccdc_geom_bond_type
Cr4   O19   S    
C12   O22   A    
C19   C20   A    
Cr5   O9    S    
C18   H10   S    
C7    C8    T    
Cr5   O15   S    
Cr2   O20   S    
C20   C30   S    
C18   C24   A    
C26   O9    A    
C18   C19   A    
C5    C6    T    
C6    C25   S    
C15   C16   A    
Cr2   O5    S    
C3    H6    S    
Cr6   O18   S    
C34   C35   A    
Cr3   O22   S    
C9    C32   S    
Cr3   O3    S    
C35   C36   A    
C16   C17   A    
C5    C23   S    
C12   O21   A    
C31   O25   A    
C25   O8    A    
C15   H9    S    
C4    C12   S    
C9    C10   T    
Cr6   O10   S    
C32   O3    A    
Cr5   O19   S    
Cr1   O1    S    
C33   O4    A    
Cr4   O7    S    
Cr4   O14   S    
C13   C14   A    
C17   C33   S    
C32   O2    A    
C30   O18   A    
C23   O1    A    
Cr5   O16   S    
C29   O17   A    
C4    C34   A    
C1    O20   A    
Cr4   O6    S    
C28   O15   A    
Cr2   O26   S    
Cr1   O25   S    
Cr6   O17   S    
C16   Cl2   S    
C28   O14   A    
C11   H7    S    
C29   O16   A    
C33   O24   A    
Cr3   O4    S    
Cr2   O2    S    
C21   Cl1   S    
C27   O11   A    
C26   C36   S    
Cr1   O24   S    
Cr3   O23   S    
Cr4   O13   S    
C22   C24   A    
C3    C4    A    
C1    O12   A    
Cr1   O12   S    
C19   H2    S    
C31   O26   A    
C2    C36   A    
C11   C17   A    
C1    C7    S    
C34   H1    S    
Cr5   O8    S    
C23   O23   A    
C27   O6    A    
C2    H5    S    
C2    C3    A    
C26   O10   A    
C24   C31   S    
C11   C13   A    
C10   C29   S    
Cr6   O19   S    
C30   O13   A    
C13   H8    S    
C22   H3    S    
C20   C21   A    
C8    C27   S    
C14   C15   A    
C25   O7    A    
C14   C28   S    
C21   C22   A    
C35   H4    S    
Cr6   O11   S    
Cr1   O5    S    
Cr2   O21   S    
Cr3   O5    S    
