data_mof_unit_65477.cif
_audit_creation_date              2012-12-10T20:48:27-0500
_audit_creation_method            fapswitch 2.2
_symmetry_space_group_name_H-M    P1
_symmetry_Int_Tables_number       1
_space_group_crystal_system       triclinic
_cell_length_a                    16.020798
_cell_length_b                    19.268969
_cell_length_c                    19.256632
_cell_angle_alpha                 94.846989
_cell_angle_beta                  95.041537
_cell_angle_gamma                 90.349315
_cell_volume                      5899.88233831

loop_
_atom_site_label
_atom_site_type_symbol
_atom_type_description
_atom_site_fract_x
_atom_site_fract_y
_atom_site_fract_z
_atom_type_partial_charge
C1    C     C_R   0.508924 0.310943 0.492479 0.516141
C2    C     C_R   0.466735 0.806072 0.573298 -0.038501
C3    C     C_R   0.510349 0.126787 0.544568 -0.106447
C4    C     C_R   0.491984 0.689400 0.508042 0.507633
C5    C     C_R   0.509176 0.199234 0.549018 -0.058714
C6    C     C_R   0.515619 0.087860 0.479820 0.189347
C7    C     C_R   0.513317 0.234486 0.488222 -0.002297
C8    C     C_R   0.520259 0.196112 0.423062 -0.056498
C9    C     C_R   0.522035 0.122663 0.419034 -0.021718
C10   C     C_R   0.487684 0.489893 0.233229 0.029769
C11   C     C_R   0.529038 0.541699 0.201714 -0.152498
C12   C     C_1   0.111021 0.482947 0.482919 -0.038392
C13   C     C_R   0.526447 0.540280 0.129250 -0.091692
C14   C     C_R   0.482180 0.486653 0.086595 0.227216
C15   C     C_R   0.441423 0.434789 0.118128 -0.106072
C16   C     C_R   0.508483 0.507873 0.690378 0.515212
C17   C     C_R   0.443631 0.436441 0.190900 -0.137758
C18   C     C_R   0.555006 0.470579 0.882210 -0.020234
C19   C     C_R   0.555696 0.463783 0.808594 -0.055637
C20   C     C_R   0.510224 0.525608 0.914690 0.189503
C21   C     C_R   0.511705 0.512196 0.767855 -0.011755
C22   C     C_R   0.469552 0.567168 0.801727 -0.163501
C23   C     C_1   0.888913 0.517441 0.517980 -0.038203
C24   C     C_R   0.469483 0.574426 0.874227 -0.015403
C25   C     C_R   0.491327 0.492093 0.309948 0.514826
C26   C     C_R   0.723993 0.509940 0.510027 0.504176
C27   C     C_R   0.275927 0.490123 0.490167 0.505452
C28   C     C_1   0.813580 0.514061 0.514405 0.022750
C29   C     C_2   0.978901 0.521192 0.521925 -0.116215
C30   C     C_2   0.021040 0.479199 0.479087 -0.118918
C31   C     C_1   0.603154 0.407995 0.776213 0.243524
C32   C     C_R   0.603005 0.421753 0.925792 0.062622
C33   C     C_R   0.670937 0.446301 0.972715 -0.067252
C34   C     C_1   0.186348 0.486230 0.486248 0.022609
C35   C     C_R   0.714475 0.400761 0.015211 -0.105587
C36   C     C_R   0.690532 0.330560 0.011157 -0.095176
C37   C     C_R   0.622973 0.305781 0.964613 -0.101559
C38   C     C_R   0.579189 0.351159 0.922084 -0.069110
C39   C     C_1   0.425478 0.631921 0.906646 0.235712
C40   C     C_1   0.499835 0.236139 0.616387 0.224145
C41   C     C_1   0.443407 0.774528 0.634380 0.226484
C42   C     C_1   0.525478 0.231950 0.360235 0.215187
C43   C     C_R   0.529674 0.081479 0.351179 0.051902
C44   C     C_R   0.603280 0.085625 0.317040 -0.078479
C45   C     C_R   0.490761 0.766206 0.513211 0.016197
C46   C     C_R   0.610677 0.046240 0.253535 -0.104793
C47   C     C_R   0.544862 0.002402 0.223849 -0.099743
C48   C     C_R   0.471508 0.997898 0.257601 -0.113796
C49   C     C_R   0.463800 0.037275 0.321052 -0.074338
C50   C     C_R   0.515896 0.800687 0.456994 -0.164154
C51   C     C_R   0.516895 0.873067 0.459781 -0.095888
C52   C     C_R   0.493028 0.912794 0.519529 0.210888
C53   C     C_R   0.468069 0.878753 0.575605 -0.111993
H1    H     H_    0.988154 0.441702 0.440781 0.138070
H2    H     H_    0.450150 0.909420 0.621669 0.127386
H3    H     H_    0.536443 0.897567 0.415182 0.146893
H4    H     H_    0.689842 0.500648 0.976476 0.114791
H5    H     H_    0.766687 0.419916 0.051375 0.113166
H6    H     H_    0.724245 0.295392 0.044145 0.116507
H7    H     H_    0.604340 0.251454 0.961672 0.117293
H8    H     H_    0.526398 0.331541 0.886729 0.122732
H9    H     H_    0.654895 0.119080 0.339775 0.113469
H10   H     H_    0.667505 0.049593 0.227409 0.113602
H11   H     H_    0.550729 0.971890 0.174731 0.117781
H12   H     H_    0.534467 0.771537 0.410372 0.139469
H13   H     H_    0.420611 0.963894 0.234595 0.115945
H14   H     H_    0.406621 0.033426 0.346691 0.124824
H15   H     H_    0.407951 0.392865 0.086094 0.126749
H16   H     H_    0.411570 0.395655 0.213965 0.151400
H17   H     H_    0.436705 0.605279 0.771582 0.168255
H18   H     H_    0.559884 0.580772 0.106951 0.139721
H19   H     H_    0.563577 0.583509 0.233056 0.139666
H20   H     H_    0.011767 0.558702 0.560229 0.143219
H21   H     H_    0.506855 0.100811 0.592034 0.150183
N1    N     N_2   0.493147 0.986740 0.525780 -0.246082
N2    N     N_2   0.516285 0.013767 0.473985 -0.241869
N3    N     N_2   0.480186 0.481423 0.012448 -0.225975
N4    N     N_2   0.508279 0.533990 0.988303 -0.248999
N5    N     N_1   0.641299 0.363456 0.750669 -0.246337
N6    N     N_1   0.390208 0.678005 0.932648 -0.275948
N7    N     N_1   0.492144 0.265613 0.670299 -0.274290
N8    N     N_1   0.424766 0.749355 0.683377 -0.279317
N9    N     N_1   0.529626 0.260538 0.310123 -0.295672
O1    O     O_3   0.500000 0.500000 0.500000 -0.448501
O2    O     O_R   0.688130 0.469010 0.547620 -0.531198
O3    O     O_R   0.315580 0.449250 0.449280 -0.537094
O4    O     O_R   0.680710 0.547310 0.468650 -0.537260
O5    O     O_R   0.315580 0.534430 0.534450 -0.533112
O6    O     O_R   0.456860 0.545290 0.655940 -0.538418
O7    O     O_R   0.446440 0.450430 0.339790 -0.535421
O8    O     O_R   0.557290 0.347960 0.537250 -0.522564
O9    O     O_R   0.539410 0.656320 0.467010 -0.546675
O10   O     O_R   0.456880 0.340240 0.450910 -0.530109
O11   O     O_R   0.446420 0.655480 0.544820 -0.526647
O12   O     O_R   0.557280 0.467820 0.657110 -0.519949
O13   O     O_R   0.539420 0.536460 0.347160 -0.548267
Zn1   Zn    Zn3+2 0.430910 0.557800 0.557800 0.965163
Zn2   Zn    Zn3+2 0.574380 0.447110 0.559460 0.981750
Zn3   Zn    Zn3+2 0.563780 0.559000 0.446630 0.940688
Zn4   Zn    Zn3+2 0.430930 0.436090 0.436110 0.962011

loop_
_geom_bond_atom_site_label_1
_geom_bond_atom_site_label_2
_ccdc_geom_bond_type
C17   H16   S    
C16   C21   S    
C35   C36   A    
C43   C44   A    
C3    C6    A    
C19   C31   S    
C6    C9    A    
O12   Zn2   S    
C7    C8    A    
N3    N4    D    
C30   H1    S    
C25   O7    A    
C29   C30   D    
C35   H5    S    
O1    Zn1   S    
C23   C29   S    
C36   C37   A    
C19   C21   A    
C8    C42   S    
C18   C19   A    
C29   H20   S    
C15   H15   S    
C10   C17   A    
O13   Zn3   S    
C24   C39   S    
C51   H3    S    
C26   O4    A    
C14   N3    S    
C3    H21   S    
O2    Zn2   S    
C20   C24   A    
C8    C9    A    
C32   C38   A    
O3    Zn4   S    
O5    Zn1   S    
C38   H8    S    
C36   H6    S    
C16   O6    A    
C1    O8    A    
C13   C14   A    
O7    Zn4   S    
C44   C46   A    
O4    Zn3   S    
C4    C45   S    
C53   H2    S    
C27   C34   S    
C9    C43   S    
C51   C52   A    
O1    Zn4   S    
C10   C11   A    
C47   H11   S    
C5    C7    A    
C11   H19   S    
C43   C49   A    
C13   H18   S    
O11   Zn1   S    
C44   H9    S    
O6    Zn1   S    
C27   O3    A    
N1    N2    D    
C37   C38   A    
C47   C48   A    
C50   C51   A    
C23   C28   T    
C31   N5    T    
O10   Zn4   S    
C4    O11   A    
C10   C25   S    
C48   C49   A    
C22   C24   A    
C18   C32   S    
C12   C34   T    
C52   C53   A    
C15   C17   A    
C46   C47   A    
C16   O12   A    
C33   H4    S    
C49   H14   S    
C12   C30   S    
C1    C7    S    
O1    Zn3   S    
C40   N7    T    
C42   N9    T    
C3    C5    A    
C2    C53   A    
C6    N2    S    
C26   C28   S    
C20   N4    S    
C46   H10   S    
O1    Zn2   S    
C39   N6    T    
C32   C33   A    
C11   C13   A    
C45   C50   A    
C26   O2    A    
C41   N8    T    
C33   C35   A    
C18   C20   A    
O8    Zn2   S    
C27   O5    A    
C50   H12   S    
C37   H7    S    
C2    C45   A    
C52   N1    S    
C25   O13   A    
C1    O10   A    
C5    C40   S    
C14   C15   A    
C2    C41   S    
C48   H13   S    
C21   C22   A    
C22   H17   S    
O9    Zn3   S    
C4    O9    A    
