data_mof_unit_56514.cif
_audit_creation_date              2012-12-11T15:07:32-0500
_audit_creation_method            fapswitch 2.2
_symmetry_space_group_name_H-M    P1
_symmetry_Int_Tables_number       1
_space_group_crystal_system       triclinic
_cell_length_a                    21.649264
_cell_length_b                    7.198068
_cell_length_c                    18.668002
_cell_angle_alpha                 89.879385
_cell_angle_beta                  95.352812
_cell_angle_gamma                 89.7245
_cell_volume                      2896.35925404

loop_
_atom_site_label
_atom_site_type_symbol
_atom_type_description
_atom_site_fract_x
_atom_site_fract_y
_atom_site_fract_z
_atom_type_partial_charge
O1    O     O_R   0.449650 0.506500 0.414480 -0.540642
O2    O     O_R   0.550350 0.006500 0.585520 -0.541337
O3    O     O_R   0.432010 0.173150 0.560250 -0.518968
O4    O     O_R   0.567990 0.673150 0.439750 -0.516028
C1    C     C_R   0.416336 0.344835 0.581106 0.696054
C2    C     C_R   0.583196 0.844330 0.418335 0.702147
O5    O     O_R   0.442320 0.176650 0.413480 -0.508257
O6    O     O_R   0.557680 0.676650 0.586520 -0.509615
O7    O     O_R   0.560730 0.008380 0.437700 -0.537334
O8    O     O_R   0.439270 0.508380 0.562300 -0.537387
C3    C     C_R   0.425708 0.346075 0.389811 0.732998
C4    C     C_R   0.574504 0.845366 0.609976 0.737391
O9    O     O_3   0.538840 0.339860 0.508120 -0.356842
O10   O     O_3   0.461160 0.839860 0.491880 -0.353801
V1    V     V_3+5 0.492800 0.064220 0.498490 1.557386
V2    V     V_3+5 0.507200 0.564220 0.501510 1.560421
C5    C     C_R   0.881672 0.785372 0.701297 0.142319
C6    C     C_R   0.120534 0.252602 0.294003 0.124985
H1    H     H_    0.967165 0.833138 0.766594 0.128318
H2    H     H_    0.034480 0.300202 0.229515 0.120995
H3    H     H_    0.800314 0.644371 0.599010 0.165711
H4    H     H_    0.203535 0.113076 0.395413 0.169939
C7    C     C_R   0.889596 0.930489 0.819007 -0.078825
C8    C     C_R   0.109946 0.425548 0.181528 -0.079584
C9    C     C_R   0.588452 0.935936 0.735652 -0.170197
C10   C     C_R   0.410749 0.450541 0.265529 -0.171446
C11   C     C_R   0.623318 0.992201 0.797703 0.342187
C12   C     C_R   0.375088 0.511968 0.204568 0.340921
C13   C     C_R   0.687588 0.978328 0.803212 -0.182477
C14   C     C_R   0.311073 0.492814 0.198880 -0.177129
C15   C     C_R   0.719276 0.898720 0.747732 0.014840
C16   C     C_R   0.280568 0.401827 0.252715 0.013416
C17   C     C_R   0.682792 0.828331 0.684899 0.026952
C18   C     C_R   0.318077 0.324586 0.313874 0.026587
C19   C     C_R   0.786146 0.886308 0.753600 0.072537
C20   C     C_R   0.213949 0.382928 0.246373 0.073044
C21   C     C_R   0.815738 0.800309 0.697231 0.062234
C22   C     C_R   0.185853 0.280512 0.299830 0.068005
C23   C     C_R   0.779137 0.722370 0.639510 -0.225503
C24   C     C_R   0.223487 0.198882 0.356231 -0.229663
C25   C     C_R   0.714776 0.731100 0.633297 0.202513
C26   C     C_R   0.287544 0.214336 0.362933 0.206484
C27   C     C_R   0.824794 0.950401 0.814751 -0.205690
C28   C     C_R   0.174278 0.455490 0.187176 -0.207628
C29   C     C_R   0.917199 0.852459 0.761807 -0.152084
C30   C     C_R   0.083859 0.328870 0.235785 -0.159606
C31   C     C_R   0.616449 0.858478 0.677929 -0.117902
C32   C     C_R   0.383880 0.361700 0.321739 -0.113706
H5    H     H_    0.806317 0.007207 0.861625 0.105773
H6    H     H_    0.191765 0.526674 0.142579 0.109045
H7    H     H_    0.538662 0.958269 0.731560 0.151642
H8    H     H_    0.460187 0.477820 0.270079 0.145655
H9    H     H_    0.711139 0.031201 0.852144 0.137556
H10   H     H_    0.286817 0.549534 0.150833 0.137927
C33   C     C_R   0.616643 0.873041 0.294204 -0.166153
C34   C     C_R   0.380435 0.433405 0.699646 -0.149548
C35   C     C_R   0.632225 0.855256 0.368329 -0.071720
C36   C     C_R   0.367161 0.357661 0.631031 -0.079441
C37   C     C_R   0.694513 0.859078 0.395410 -0.148031
C38   C     C_R   0.306324 0.306003 0.608453 -0.167629
C39   C     C_R   0.742758 0.872491 0.349344 0.046670
C40   C     C_R   0.257741 0.325601 0.653830 0.053514
C41   C     C_R   0.726587 0.890628 0.274243 -0.022190
C42   C     C_R   0.272304 0.394832 0.724416 -0.019455
C43   C     C_R   0.663110 0.892476 0.246489 0.045825
C44   C     C_R   0.333829 0.451997 0.747119 0.046645
C45   C     C_R   0.806468 0.869378 0.376502 0.090520
C46   C     C_R   0.195069 0.280759 0.630011 0.090986
C47   C     C_R   0.853155 0.886763 0.328324 0.230175
C48   C     C_R   0.149265 0.284387 0.679903 0.225606
C49   C     C_R   0.836972 0.905562 0.253493 0.038783
C50   C     C_R   0.164247 0.350578 0.750718 0.038438
C51   C     C_R   0.773650 0.908402 0.226701 0.002984
C52   C     C_R   0.225296 0.410957 0.771998 0.005597
C53   C     C_R   0.757279 0.929589 0.151905 0.068040
C54   C     C_R   0.239470 0.487530 0.841371 0.067398
C55   C     C_R   0.694649 0.932806 0.125407 -0.182909
C56   C     C_R   0.299998 0.545630 0.862649 -0.179599
C57   C     C_R   0.647816 0.914610 0.171659 0.277718
C58   C     C_R   0.347011 0.527904 0.816606 0.276476
C59   C     C_R   0.882758 0.921213 0.204375 -0.152471
C60   C     C_R   0.119086 0.362383 0.800674 -0.145883
C61   C     C_R   0.866455 0.941905 0.130402 -0.076067
C62   C     C_R   0.132956 0.440473 0.868922 -0.082806
C63   C     C_R   0.803720 0.947002 0.104401 -0.170008
C64   C     C_R   0.192968 0.504937 0.888758 -0.169707
H11   H     H_    0.568009 0.873299 0.274597 0.159917
H12   H     H_    0.427560 0.476399 0.715408 0.159590
H13   H     H_    0.703983 0.855155 0.453089 0.146391
H14   H     H_    0.297819 0.254316 0.554473 0.158384
H15   H     H_    0.931662 0.917079 0.222438 0.154677
H16   H     H_    0.072142 0.315164 0.787147 0.159863
H17   H     H_    0.791186 0.962203 0.047060 0.106456
H18   H     H_    0.203727 0.564414 0.941762 0.113632
H19   H     H_    0.681886 0.949642 0.068210 0.180634
H20   H     H_    0.311023 0.604491 0.915678 0.179450
O11   O     O_R   0.060820 0.290050 0.937800 -0.533627
O12   O     O_R   0.939180 0.790050 0.062200 -0.532783
O13   O     O_R   0.057690 0.616620 0.086540 -0.539911
O14   O     O_R   0.942310 0.116620 0.913460 -0.538328
C65   C     C_R   0.071194 0.447241 0.112490 0.695652
C66   C     C_R   0.928477 0.948128 0.887844 0.696455
O15   O     O_R   0.068010 0.619890 0.939770 -0.535977
O16   O     O_R   0.931990 0.119890 0.060230 -0.536010
O17   O     O_R   0.949640 0.787940 0.914460 -0.534380
O18   O     O_R   0.050360 0.287940 0.085540 -0.534303
C67   C     C_R   0.084342 0.451122 0.919373 0.688423
C68   C     C_R   0.915503 0.951460 0.080468 0.684446
O19   O     O_3   0.961210 0.453080 0.991940 -0.372896
O20   O     O_3   0.038790 0.953080 0.008060 -0.373227
V3    V     V_3+5 0.007200 0.728820 0.001500 1.443882
V4    V     V_3+5 0.992800 0.228820 0.998500 1.447327
C69   C     C_3   0.825117 0.847035 0.456669 -0.339599
C70   C     C_3   0.823851 0.033724 0.495397 -0.684444
H21   H     H_    0.857270 0.130910 0.473788 0.259514
H22   H     H_    0.776781 0.096763 0.488478 0.231848
H23   H     H_    0.837180 0.014094 0.553766 0.215820
H24   H     H_    0.795074 0.744792 0.480665 0.180726
H25   H     H_    0.871776 0.784428 0.467426 0.228459
C71   C     C_3   0.175943 0.247698 0.550364 -0.335935
C72   C     C_3   0.174980 0.431748 0.508984 -0.708387
H26   H     H_    0.143909 0.532978 0.532849 0.252732
H27   H     H_    0.222170 0.491787 0.510236 0.232709
H28   H     H_    0.157257 0.410581 0.452045 0.213220
H29   H     H_    0.206834 0.144853 0.527534 0.184406
H30   H     H_    0.129507 0.185110 0.540199 0.236990
Br1   Br    Br    0.939652 0.889812 0.365432 -0.641884
Br2   Br    Br    0.065219 0.203598 0.651027 -0.635563
Br3   Br    Br    0.563684 0.923982 0.128680 -0.372558
Br4   Br    Br    0.428325 0.611871 0.852195 -0.401053
C73   C     C_3   0.916370 0.688543 0.644886 -0.373533
C74   C     C_3   0.916502 0.477861 0.655182 -0.671248
H31   H     H_    0.942430 0.440327 0.707428 0.239773
H32   H     H_    0.868641 0.422906 0.654269 0.222658
H33   H     H_    0.939504 0.410925 0.611137 0.260603
H34   H     H_    0.896766 0.726397 0.589985 0.181951
H35   H     H_    0.965431 0.735534 0.648229 0.220825
C75   C     C_3   0.088440 0.126704 0.344198 -0.354110
C76   C     C_3   0.097685 0.922082 0.325535 -0.660821
H36   H     H_    0.073616 0.891245 0.271713 0.229373
H37   H     H_    0.147565 0.886590 0.324967 0.221348
H38   H     H_    0.078081 0.832443 0.366129 0.256930
H39   H     H_    0.104409 0.153246 0.401307 0.181764
H40   H     H_    0.037847 0.156494 0.339778 0.231219
Br5   Br    Br    0.582710 0.099256 0.874543 -0.390396
Br6   Br    Br    0.413972 0.632941 0.129496 -0.389733
Br7   Br    Br    0.678630 0.571743 0.558745 -0.589339
Br8   Br    Br    0.325196 0.041983 0.432552 -0.584095

loop_
_geom_bond_atom_site_label_1
_geom_bond_atom_site_label_2
_ccdc_geom_bond_type
C22   C24   A    
C41   C43   A    
C43   C57   A    
C5    C73   S    
O1    C3    A    
H4    C24   S    
C26   Br8   S    
C2    O7    A    
C70   H21   S    
O12   C68   A    
C23   C25   A    
O18   V4    S    
O5    C3    A    
C14   H10   S    
C52   C54   A    
C1    C36   S    
C7    C29   A    
C16   C20   A    
O15   V3    S    
C19   C21   A    
C5    C29   A    
C75   H39   S    
C76   H38   S    
C71   H30   S    
C35   C37   A    
C7    C66   S    
C11   C13   A    
C36   C38   A    
C57   Br3   S    
C62   C67   S    
C60   H16   S    
C61   C68   S    
C66   O17   A    
C38   C40   A    
C8    C65   S    
C37   H13   S    
C6    C75   S    
O20   V3    S    
C72   H28   S    
C40   C42   A    
C64   H18   S    
C59   C61   A    
C69   H25   S    
C63   H17   S    
C53   C63   A    
C56   H20   S    
C74   H31   S    
C18   C26   A    
C15   C17   A    
C19   C27   A    
C9    C31   A    
C10   C32   A    
C24   C26   A    
O17   V3    S    
O2    C4    A    
O6    V2    S    
C13   C15   A    
C51   C53   A    
C2    C35   S    
C3    C32   S    
C4    C31   S    
C6    C30   A    
C11   Br5   S    
C33   C43   A    
C55   C57   A    
C37   C39   A    
C58   Br4   S    
C50   C52   A    
C73   H34   S    
C45   C69   S    
O19   V4    S    
C49   C51   A    
O11   V4    S    
C71   H29   S    
C27   H5    S    
O5    V1    S    
C41   C51   A    
C55   H19   S    
C45   C47   A    
C42   C44   A    
O4    V2    S    
C9    H7    S    
C73   H35   S    
C10   H8    S    
C39   C45   A    
C25   Br7   S    
O6    C4    A    
O13   V3    S    
O14   C66   A    
O1    V2    S    
C5    C21   A    
C59   H15   S    
O2    V1    S    
C53   C55   A    
C72   H26   S    
C33   H11   S    
O4    C2    A    
O13   C65   A    
C8    C28   A    
O14   V4    S    
C60   C62   A    
C33   C35   A    
C17   C31   A    
C15   C19   A    
C20   C28   A    
C18   C32   A    
C73   C74   S    
C54   C64   A    
O16   C68   A    
O3    V1    S    
C71   C72   S    
O16   V4    S    
C69   C70   S    
C48   Br2   S    
C65   O18   A    
O12   V3    S    
C61   C63   A    
C48   C50   A    
C7    C27   A    
C12   Br6   S    
H3    C23   S    
C39   C41   A    
C54   C56   A    
O3    C1    A    
C70   H22   S    
C76   H36   S    
H1    C29   S    
C38   H14   S    
C9    C11   A    
C44   C58   A    
C10   C12   A    
C47   C49   A    
C40   C46   A    
C8    C30   A    
C12   C14   A    
C6    C22   A    
C17   C25   A    
C1    O8    A    
C21   C23   A    
O8    V2    S    
C46   C71   S    
C14   C16   A    
C76   H37   S    
C13   H9    S    
C75   H40   S    
C74   H33   S    
C34   C44   A    
C20   C22   A    
C34   C36   A    
C56   C58   A    
O7    V1    S    
C50   C60   A    
C72   H27   S    
C70   H23   S    
C34   H12   S    
C75   C76   S    
C69   H24   S    
O11   C67   A    
C47   Br1   S    
C28   H6    S    
C74   H32   S    
O9    V2    S    
C46   C48   A    
C42   C52   A    
O10   V1    S    
C62   C64   A    
O15   C67   A    
H2    C30   S    
C16   C18   A    
C49   C59   A    
