data_mof_unit_53803.cif
_audit_creation_date              2012-12-10T16:41:53-0500
_audit_creation_method            fapswitch 2.2
_symmetry_space_group_name_H-M    P1
_symmetry_Int_Tables_number       1
_space_group_crystal_system       triclinic
_cell_length_a                    10.881483
_cell_length_b                    8.688326
_cell_length_c                    7.455479
_cell_angle_alpha                 102.927551
_cell_angle_beta                  94.255979
_cell_angle_gamma                 92.392858
_cell_volume                      683.859280925

loop_
_atom_site_label
_atom_site_type_symbol
_atom_type_description
_atom_site_fract_x
_atom_site_fract_y
_atom_site_fract_z
_atom_type_partial_charge
C1    C     C_R   0.496272 0.199770 0.453307 0.917024
C2    C     C_2   0.506022 0.968160 0.572938 -0.322639
C3    C     C_R   0.265735 0.506245 0.503016 0.844378
C4    C     C_R   0.503970 0.800251 0.546687 0.881436
C5    C     C_R   0.733743 0.490662 0.496529 0.762251
C6    C     C_2   0.926766 0.513055 0.368023 -0.263530
C7    C     C_2   0.861699 0.454637 0.486731 0.269298
C8    C     C_2   0.058620 0.497307 0.357117 -0.075123
C9    C     C_2   0.134999 0.525326 0.511112 -0.226936
C10   C     C_2   0.494666 0.031900 0.427059 -0.317589
Cu1   Cu    Cu3+1 0.513740 0.517380 0.684380 0.989378
Cu2   Cu    Cu3+1 0.486260 0.482620 0.315620 0.982954
H1    H     H_    0.882055 0.580324 0.277753 0.161314
H2    H     H_    0.092941 0.470408 0.221102 0.201362
H3    H     H_    0.100780 0.564329 0.645846 0.194654
H4    H     H_    0.484020 0.960385 0.286438 0.174170
H5    H     H_    0.516802 0.039697 0.713553 0.176494
H6    H     H_    0.403602 0.377876 0.948601 0.236758
H7    H     H_    0.596465 0.622038 0.051385 0.232508
N1    N     N_2   0.465540 0.456420 0.038510 -0.215636
N2    N     N_2   0.534460 0.543580 0.961490 -0.218743
O1    O     O_R   0.508930 0.286130 0.619780 -0.591070
O2    O     O_R   0.485720 0.256780 0.308360 -0.582513
O3    O     O_R   0.333540 0.514670 0.655670 -0.580941
O4    O     O_R   0.310330 0.485320 0.344250 -0.581760
O5    O     O_R   0.514280 0.743220 0.691640 -0.583560
O6    O     O_R   0.491070 0.713870 0.380220 -0.587671
O7    O     O_R   0.689670 0.514680 0.655750 -0.563387
O8    O     O_R   0.666460 0.485330 0.344330 -0.601157
S1    S     S_3+6 0.915273 0.314821 0.612504 0.018898
O9    O     O_2   0.012111 0.217927 0.515225 -0.246219
O10   O     O_2   0.968576 0.399847 0.802436 -0.329056
O11   O     O_3   0.796290 0.191371 0.632661 -0.522155
H8    H     H_    0.763310 0.239151 0.751503 0.366806

loop_
_geom_bond_atom_site_label_1
_geom_bond_atom_site_label_2
_ccdc_geom_bond_type
C4    O5    A    
Cu1   Cu2   S    
C6    C7    D    
C3    C9    S    
Cu2   O8    S    
C5    O7    A    
Cu1   O1    S    
C2    C4    S    
Cu1   O5    S    
Cu2   O4    S    
Cu2   N1    S    
O11   H8    S    
C9    H3    S    
C1    O1    A    
C7    S1    S    
C10   H4    S    
C2    H5    S    
S1    O10   D    
Cu2   O2    S    
C3    O3    A    
Cu1   O7    S    
C6    C8    S    
H7    N2    S    
C1    O2    A    
C5    O8    A    
S1    O9    D    
Cu2   O6    S    
C2    C10   D    
Cu1   O3    S    
C3    O4    A    
C4    O6    A    
N1    N2    D    
H6    N1    S    
C5    C7    S    
C8    H2    S    
S1    O11   S    
Cu1   N2    S    
C1    C10   S    
C8    C9    D    
C6    H1    S    
