data_mof_unit_27049.cif
_audit_creation_date              2012-12-11T16:28:33-0500
_audit_creation_method            fapswitch 2.2
_symmetry_space_group_name_H-M    P1
_symmetry_Int_Tables_number       1
_space_group_crystal_system       triclinic
_cell_length_a                    16.567371
_cell_length_b                    7.272589
_cell_length_c                    15.259525
_cell_angle_alpha                 89.999482
_cell_angle_beta                  94.782877
_cell_angle_gamma                 90.0
_cell_volume                      1832.18248726

loop_
_atom_site_label
_atom_site_type_symbol
_atom_type_description
_atom_site_fract_x
_atom_site_fract_y
_atom_site_fract_z
_atom_type_partial_charge
O1    O     O_R   0.663460 0.361760 0.165970 -0.530074
O2    O     O_R   0.336540 0.638240 0.834030 -0.532664
O3    O     O_R   0.836540 0.861760 0.334030 -0.530073
O4    O     O_R   0.163460 0.138240 0.665970 -0.532664
O5    O     O_R   0.827100 0.689870 0.163730 -0.535269
O6    O     O_R   0.172900 0.310130 0.836270 -0.537947
O7    O     O_R   0.672900 0.189870 0.336270 -0.535269
O8    O     O_R   0.327100 0.810130 0.663730 -0.537946
H1    H     H_    0.214189 0.960569 0.509493 0.104075
H2    H     H_    0.787522 0.993326 0.488023 0.106157
H3    H     H_    0.285811 0.460572 0.990507 0.104074
H4    H     H_    0.712478 0.493324 0.011978 0.106157
C1    C     C_R   0.853247 0.522866 0.143593 0.709348
C2    C     C_R   0.146609 0.477090 0.856249 0.710027
C3    C     C_R   0.646753 0.022866 0.356407 0.709347
C4    C     C_R   0.353391 0.977091 0.643751 0.710028
O9    O     O_R   0.663490 0.691370 0.155500 -0.539170
O10   O     O_R   0.336510 0.308630 0.844500 -0.537143
O11   O     O_R   0.836510 0.191370 0.344500 -0.539169
O12   O     O_R   0.163490 0.808630 0.655500 -0.537142
O13   O     O_R   0.671770 0.863320 0.325740 -0.541274
O14   O     O_R   0.328230 0.136680 0.674260 -0.539426
O15   O     O_R   0.828230 0.363320 0.174260 -0.541274
O16   O     O_R   0.171770 0.636680 0.825740 -0.539425
C5    C     C_R   0.631920 0.523992 0.139049 0.689580
C6    C     C_R   0.365888 0.476722 0.863472 0.667015
C7    C     C_R   0.868080 0.023991 0.360951 0.689580
C8    C     C_R   0.134112 0.976722 0.636528 0.667014
H5    H     H_    0.150990 0.063678 0.242925 0.115907
H6    H     H_    0.852764 0.945675 0.757218 0.110654
H7    H     H_    0.349009 0.563689 0.257074 0.115907
H8    H     H_    0.647236 0.445666 0.742783 0.110655
O17   O     O_3   0.752910 0.528800 0.305860 -0.379036
O18   O     O_3   0.247090 0.471200 0.694140 -0.374448
O19   O     O_3   0.747090 0.028800 0.194140 -0.379037
O20   O     O_3   0.252910 0.971200 0.805860 -0.374447
V1    V     V_3+5 0.749460 0.803010 0.239640 1.378022
V2    V     V_3+5 0.250540 0.196990 0.760360 1.388305
V3    V     V_3+5 0.750540 0.303010 0.260360 1.378022
V4    V     V_3+5 0.249460 0.696990 0.739640 1.388304
C9    C     C_1   0.468937 0.994831 0.530251 -0.013326
C10   C     C_1   0.531273 0.005298 0.469983 -0.026905
C11   C     C_1   0.031062 0.494830 0.969749 -0.013320
C12   C     C_1   0.968727 0.505299 0.030017 -0.026904
H9    H     H_    0.752261 0.959091 0.635426 0.121416
H10   H     H_    0.250970 0.993789 0.362728 0.121616
H11   H     H_    0.747739 0.459082 0.864575 0.121416
H12   H     H_    0.249029 0.493799 0.137271 0.121616
C13   C     C_R   0.047808 0.059475 0.321915 0.082858
C14   C     C_R   0.957338 0.971087 0.679691 0.066012
C15   C     C_R   0.452191 0.559481 0.178084 0.082859
C16   C     C_R   0.542662 0.471083 0.820309 0.066013
C17   C     C_R   0.130306 0.043324 0.307818 -0.126301
C18   C     C_R   0.874286 0.959930 0.692730 -0.099098
C19   C     C_R   0.369693 0.543332 0.192180 -0.126301
C20   C     C_R   0.625714 0.459923 0.807271 -0.099098
C21   C     C_R   0.187803 0.005035 0.375444 -0.167515
C22   C     C_R   0.815662 0.967109 0.623266 -0.175361
C23   C     C_R   0.312196 0.505044 0.124555 -0.167515
C24   C     C_R   0.684338 0.467102 0.876735 -0.175361
C25   C     C_R   0.165233 0.986655 0.459767 -0.124851
C26   C     C_R   0.837237 0.986340 0.538427 -0.123239
C27   C     C_R   0.334766 0.486659 0.040233 -0.124850
C28   C     C_R   0.662763 0.486336 0.961574 -0.123239
C29   C     C_R   0.083090 0.999817 0.479270 0.061548
C30   C     C_R   0.919335 0.995935 0.519202 0.065121
C31   C     C_R   0.416910 0.499819 0.020730 0.061548
C32   C     C_R   0.580665 0.495934 0.980798 0.065121
C33   C     C_R   0.021111 0.027245 0.409004 0.026946
C34   C     C_R   0.981703 0.985217 0.590301 0.019567
C35   C     C_R   0.478889 0.527248 0.090995 0.026946
C36   C     C_R   0.518297 0.485214 0.909699 0.019567
C37   C     C_R   0.064424 0.986202 0.568415 -0.159097
C38   C     C_R   0.937911 0.017498 0.429852 -0.168098
C39   C     C_R   0.435576 0.486201 0.931585 -0.159097
C40   C     C_R   0.562089 0.517500 0.070148 -0.168098
C41   C     C_1   0.416138 0.986429 0.581628 -0.202462
C42   C     C_1   0.584065 0.013566 0.418599 -0.211734
C43   C     C_1   0.083862 0.486428 0.918372 -0.202467
C44   C     C_1   0.915934 0.513568 0.081401 -0.211735
C45   C     C_3   0.996677 0.120144 0.240141 -0.403977
C46   C     C_3   0.979950 0.958070 0.177266 -0.307687
C47   C     C_3   0.926968 0.014634 0.095097 -0.698757
H13   H     H_    0.867642 0.065042 0.112346 0.261062
H14   H     H_    0.957182 0.123963 0.059232 0.222563
H15   H     H_    0.915868 0.895054 0.050765 0.210969
H16   H     H_    0.037958 0.903075 0.156442 0.183406
H17   H     H_    0.950627 0.846790 0.212404 0.212888
H18   H     H_    0.941723 0.192567 0.254151 0.200028
H19   H     H_    0.030130 0.227246 0.205571 0.170307
C48   C     C_3   0.017701 0.969510 0.761208 -0.368879
C49   C     C_3   0.985364 0.953972 0.852573 -0.355930
C50   C     C_3   0.055231 0.965062 0.924862 -0.712770
H20   H     H_    0.110369 0.895634 0.905271 0.248969
H21   H     H_    0.070597 0.110338 0.940017 0.227120
H22   H     H_    0.038305 0.897109 0.985453 0.216621
H23   H     H_    0.942267 0.067499 0.863062 0.198055
H24   H     H_    0.954004 0.819760 0.858009 0.201544
H25   H     H_    0.056998 0.847874 0.756219 0.194847
H26   H     H_    0.052648 0.099371 0.761697 0.199883
C51   C     C_3   0.503323 0.620147 0.259858 -0.403977
C52   C     C_3   0.520050 0.458071 0.322733 -0.307689
C53   C     C_3   0.573031 0.514632 0.404902 -0.698759
H27   H     H_    0.632356 0.565044 0.387655 0.261061
H28   H     H_    0.542815 0.623959 0.440767 0.222563
H29   H     H_    0.584131 0.395051 0.449235 0.210970
H30   H     H_    0.462042 0.403071 0.343555 0.183408
H31   H     H_    0.549375 0.346795 0.287595 0.212889
H32   H     H_    0.558276 0.692572 0.245847 0.200028
H33   H     H_    0.469869 0.727247 0.294428 0.170307
C54   C     C_3   0.482300 0.469508 0.738793 -0.368881
C55   C     C_3   0.514636 0.453968 0.647428 -0.355932
C56   C     C_3   0.444769 0.465061 0.575138 -0.712759
H34   H     H_    0.389629 0.395644 0.594731 0.248969
H35   H     H_    0.429409 0.610340 0.559978 0.227115
H36   H     H_    0.461695 0.397096 0.514549 0.216621
H37   H     H_    0.557735 0.567492 0.636938 0.198056
H38   H     H_    0.545995 0.319755 0.641993 0.201543
H39   H     H_    0.443002 0.347873 0.743782 0.194848
H40   H     H_    0.447353 0.599370 0.738302 0.199882

loop_
_geom_bond_atom_site_label_1
_geom_bond_atom_site_label_2
_ccdc_geom_bond_type
C22   C26   A    
C51   C52   S    
C19   C23   A    
C9    C10   S    
C54   C55   S    
O10   C6    A    
C45   C46   S    
C49   H24   S    
C30   C34   A    
H6    C18   S    
C50   H20   S    
H1    C25   S    
C28   C32   A    
O19   V1    S    
H3    C27   S    
C9    C41   T    
C55   H37   S    
O12   V4    S    
C29   C33   A    
C3    C42   S    
O5    V1    S    
C11   C43   T    
C46   H16   S    
C30   C38   A    
C29   C37   A    
C1    O15   A    
C54   H39   S    
C4    C41   S    
C2    O16   A    
H11   C24   S    
O17   V3    S    
C31   C35   A    
O6    V2    S    
C52   H31   S    
C48   H26   S    
C7    C38   S    
O11   C7    A    
O5    C1    A    
C46   H17   S    
C56   H36   S    
C45   H18   S    
O7    C3    A    
C1    C44   S    
C50   H21   S    
C13   C33   A    
O1    C5    A    
H2    C26   S    
C15   C35   A    
C36   C39   A    
C8    C37   S    
C55   C56   S    
O4    C8    A    
C49   H23   S    
C27   C31   A    
H9    C22   S    
C26   C30   A    
C12   C44   T    
C53   H28   S    
C48   C49   S    
C17   C21   A    
O9    V1    S    
O12   C8    A    
C16   C54   S    
C51   H33   S    
C20   C24   A    
C54   H40   S    
C11   C12   S    
C16   C36   A    
C25   C29   A    
O6    C2    A    
C47   H13   S    
C32   C36   A    
C34   C37   A    
C6    C39   S    
C33   C38   A    
O2    C6    A    
C14   C18   A    
C2    C43   S    
O11   V3    S    
H7    C19   S    
C45   H19   S    
C47   H14   S    
O4    V2    S    
C10   C42   T    
C50   H22   S    
H10   C21   S    
O18   V4    S    
C31   C39   A    
C52   H30   S    
H12   C23   S    
C56   H34   S    
C18   C22   A    
H4    C28   S    
C4    O14   A    
C21   C25   A    
C32   C40   A    
C13   C45   S    
C23   C27   A    
C24   C28   A    
C5    C40   S    
O9    C5    A    
O3    C7    A    
C14   C34   A    
C55   H38   S    
C35   C40   A    
H5    C17   S    
C13   C17   A    
O20   V2    S    
C49   C50   S    
O16   V4    S    
H8    C20   S    
C53   H29   S    
C15   C19   A    
O10   V2    S    
C52   C53   S    
O1    V3    S    
O2    V4    S    
C14   C48   S    
C3    O13   A    
C47   H15   S    
O13   V1    S    
O3    V1    S    
O8    C4    A    
C46   C47   S    
C53   H27   S    
O7    V3    S    
O8    V4    S    
C48   H25   S    
C51   H32   S    
O15   V3    S    
C15   C51   S    
C16   C20   A    
C56   H35   S    
O14   V2    S    
