data_mof_unit_43527.cif
_audit_creation_date              2012-12-10T19:52:17-0500
_audit_creation_method            fapswitch 2.2
_symmetry_space_group_name_H-M    P1
_symmetry_Int_Tables_number       1
_space_group_crystal_system       triclinic
_cell_length_a                    14.940226
_cell_length_b                    14.164004
_cell_length_c                    10.642243
_cell_angle_alpha                 90.595999
_cell_angle_beta                  89.971562
_cell_angle_gamma                 90.079604
_cell_volume                      2251.91717201

loop_
_atom_site_label
_atom_site_type_symbol
_atom_type_description
_atom_site_fract_x
_atom_site_fract_y
_atom_site_fract_z
_atom_type_partial_charge
C1    C     C_R   0.326959 0.499954 0.503359 0.944581
C2    C     C_3   0.587485 0.548122 0.928952 0.789071
C3    C     C_R   0.088978 0.583071 0.524007 -0.286414
C4    C     C_R   0.096542 0.422748 0.599180 -0.279504
C5    C     C_R   0.180828 0.584076 0.505225 0.410452
C6    C     C_R   0.186619 0.418530 0.568861 0.448975
C7    C     C_R   0.230195 0.500164 0.522710 -0.298030
C8    C     C_R   0.046847 0.502802 0.570688 -0.029380
C9    C     C_R   0.907845 0.417619 0.520092 -0.171100
C10   C     C_R   0.899604 0.578175 0.602584 -0.211530
C11   C     C_R   0.816852 0.418318 0.498053 -0.220236
C12   C     C_R   0.808912 0.579700 0.577364 -0.184662
C13   C     C_R   0.767656 0.500039 0.524000 -0.010339
C14   C     C_R   0.949836 0.498117 0.570489 0.183471
C15   C     C_R   0.465608 0.104057 0.399055 -0.364596
C16   C     C_R   0.438010 0.894044 0.428884 -0.382087
C17   C     C_R   0.499309 0.499405 0.257621 0.930025
C18   C     C_R   0.465435 0.203080 0.400600 0.708699
C19   C     C_R   0.440233 0.794949 0.427713 0.747070
C20   C     C_R   0.535360 0.205792 0.599549 -0.113334
C21   C     C_R   0.561169 0.795720 0.570375 -0.108937
C22   C     C_R   0.535100 0.106617 0.602960 -0.293244
C23   C     C_R   0.562626 0.894893 0.572226 -0.284953
C24   C     C_R   0.500104 0.053330 0.501466 0.108942
C25   C     C_R   0.499920 0.946491 0.501568 0.100168
C26   C     C_R   0.672410 0.500084 0.503503 0.862056
C27   C     C_R   0.498154 0.500121 0.742493 0.944226
C28   C     C_3   0.420309 0.560145 0.074195 -0.425408
C29   C     C_3   0.486009 0.396317 0.071238 -0.447854
C30   C     C_3   0.415693 0.558515 0.929369 0.326761
C31   C     C_3   0.486206 0.394890 0.927793 0.322428
C32   C     C_3   0.589919 0.537355 0.074302 -0.538794
C33   C     C_3   0.499102 0.498292 0.121425 -0.063335
C34   C     C_3   0.497549 0.499548 0.879159 -0.123695
H1    H     H_    0.429133 0.634441 0.107205 0.200118
H2    H     H_    0.540201 0.349214 0.105531 0.169070
H3    H     H_    0.785499 0.356036 0.457611 0.156231
H4    H     H_    0.771279 0.642934 0.599610 0.140145
H5    H     H_    0.439632 0.068182 0.316672 0.162987
H6    H     H_    0.387327 0.928651 0.373559 0.160774
H7    H     H_    0.563468 0.245532 0.677341 0.144509
H8    H     H_    0.610069 0.757023 0.623665 0.137179
H9    H     H_    0.561207 0.072641 0.685693 0.144191
H10   H     H_    0.613874 0.930175 0.626968 0.145666
H11   H     H_    0.356249 0.534198 0.114876 0.200908
H12   H     H_    0.421337 0.368556 0.107495 0.252353
H13   H     H_    0.422379 0.632826 0.896805 0.117641
H14   H     H_    0.543314 0.352388 0.894177 0.029465
H15   H     H_    0.601328 0.607519 0.119505 0.204356
H16   H     H_    0.646139 0.493889 0.108850 0.142903
H17   H     H_    0.050708 0.644908 0.498563 0.161606
H18   H     H_    0.064360 0.361509 0.639423 0.156933
H19   H     H_    0.945770 0.355809 0.491975 0.127573
H20   H     H_    0.931003 0.640388 0.643113 0.129907
N1    N     N_R   0.499980 0.252470 0.500000 -0.134614
N2    N     N_R   0.499980 0.747530 0.500000 -0.142967
O1    O     O_R   0.369070 0.579480 0.500010 -0.562997
O2    O     O_R   0.369070 0.420520 0.500010 -0.579723
O3    O     O_R   0.499990 0.579480 0.314790 -0.592305
O4    O     O_R   0.499990 0.420520 0.314790 -0.577886
O5    O     O_R   0.630940 0.579480 0.499990 -0.637023
O6    O     O_R   0.630940 0.420520 0.499990 -0.635136
O7    O     O_R   0.500020 0.579480 0.685200 -0.634405
O8    O     O_R   0.500020 0.420520 0.685200 -0.614987
Zn1   Zn    Zn3+2 0.500010 0.606140 0.500000 0.990217
Zn2   Zn    Zn3+2 0.500010 0.393860 0.500000 0.994355
F1    F     F_    0.429170 0.249430 0.302429 -0.710249
F2    F     F_    0.382875 0.746129 0.352853 -0.656310
O9    O     O_3   0.333345 0.517231 0.889359 -0.578044
C35   C     C_3   0.270676 0.585073 0.847899 0.082808
H21   H     H_    0.219768 0.546912 0.790859 0.176547
H22   H     H_    0.301317 0.638067 0.784417 0.099266
C36   C     C_3   0.222777 0.632723 0.959128 -0.359238
H23   H     H_    0.193492 0.577631 0.020449 0.241012
H24   H     H_    0.271268 0.675041 0.015270 0.225920
C37   C     C_3   0.148307 0.698024 0.914861 -0.956885
H25   H     H_    0.177076 0.757534 0.861002 0.257968
H26   H     H_    0.112192 0.727477 0.997594 0.275682
H27   H     H_    0.099721 0.658698 0.854993 0.261115
O10   O     O_3   0.405831 0.353503 0.880536 -0.544529
C38   C     C_3   0.405708 0.253838 0.892305 0.097301
H28   H     H_    0.389108 0.234409 0.990530 0.161219
H29   H     H_    0.471161 0.221534 0.866518 0.104198
C39   C     C_3   0.334602 0.212461 0.804614 -0.249050
H30   H     H_    0.268575 0.244769 0.826567 0.251399
H31   H     H_    0.352496 0.229326 0.706099 0.252592
C40   C     C_3   0.327430 0.105524 0.817180 -1.011777
H32   H     H_    0.392182 0.071406 0.793180 0.274063
H33   H     H_    0.275366 0.078360 0.751796 0.276165
H34   H     H_    0.308242 0.086691 0.914610 0.273057
O11   O     O_3   0.578470 0.647782 0.907850 -0.686065
C41   C     C_3   0.657587 0.696747 0.872699 0.192021
H35   H     H_    0.637277 0.769644 0.848106 0.125802
H36   H     H_    0.687580 0.666357 0.785889 0.167854
C42   C     C_3   0.726542 0.704445 0.979355 -0.374274
H37   H     H_    0.695868 0.741259 0.061394 0.216580
H38   H     H_    0.748583 0.633325 0.009022 0.240344
C43   C     C_3   0.809036 0.759402 0.937378 -0.973672
H39   H     H_    0.841738 0.722839 0.856707 0.263899
H40   H     H_    0.857673 0.764237 0.016052 0.271899
H41   H     H_    0.790089 0.832009 0.909347 0.261071
O12   O     O_3   0.666100 0.514668 0.863900 -0.687222
C44   C     C_3   0.697153 0.422181 0.886344 -0.009036
H42   H     H_    0.677699 0.376994 0.804798 0.166543
H43   H     H_    0.671976 0.389499 0.973283 0.121516
C45   C     C_3   0.799287 0.424625 0.893028 -0.294058
H44   H     H_    0.826348 0.459031 0.807717 0.248888
H45   H     H_    0.820346 0.466870 0.976527 0.211892
C46   C     C_3   0.838485 0.325525 0.901952 -0.967141
H46   H     H_    0.813479 0.289947 0.987652 0.262334
H47   H     H_    0.912603 0.330106 0.907025 0.267346
H48   H     H_    0.819932 0.282881 0.817686 0.263898
O13   O     O_3   0.220294 0.665433 0.460068 -0.575127
C47   C     C_3   0.224614 0.734774 0.557075 0.149574
H49   H     H_    0.294518 0.738231 0.592342 0.163020
H50   H     H_    0.180490 0.720413 0.639383 0.092092
C48   C     C_3   0.198472 0.830859 0.504650 -0.314072
H51   H     H_    0.238293 0.845902 0.419039 0.260564
H52   H     H_    0.126530 0.829641 0.478133 0.207369
C49   C     C_3   0.214282 0.909284 0.601601 -1.017051
H53   H     H_    0.174545 0.896072 0.687903 0.268853
H54   H     H_    0.193404 0.977956 0.562302 0.279390
H55   H     H_    0.286409 0.913542 0.626429 0.276516
O14   O     O_3   0.232147 0.335673 0.592358 -0.639881
C50   C     C_3   0.229666 0.276344 0.484294 0.153270
H56   H     H_    0.294713 0.239055 0.479304 0.185527
H57   H     H_    0.222759 0.315452 0.394110 0.138215
C51   C     C_3   0.155883 0.201822 0.495479 -0.418280
H58   H     H_    0.163360 0.163933 0.585807 0.233356
H59   H     H_    0.089258 0.236308 0.494022 0.213236
C52   C     C_3   0.160538 0.130731 0.386862 -0.942433
H60   H     H_    0.151416 0.167113 0.295797 0.271697
H61   H     H_    0.106580 0.077387 0.397239 0.264474
H62   H     H_    0.226177 0.093911 0.386516 0.268499

loop_
_geom_bond_atom_site_label_1
_geom_bond_atom_site_label_2
_ccdc_geom_bond_type
C19   N2    A    
C15   C18   A    
C40   H32   S    
O7    Zn1   S    
C38   C39   S    
C36   H23   S    
C42   H37   S    
C39   C40   S    
C6    O14   S    
C4    C8    A    
C52   H62   S    
C51   H58   S    
C30   O9    S    
C47   H49   S    
C42   C43   S    
C31   O10   S    
C29   H2    S    
C4    H18   S    
C26   O5    A    
C37   H26   S    
O9    C35   S    
C48   H52   S    
C45   H44   S    
C2    O12   S    
N2    Zn1   S    
C29   C33   S    
C2    C32   S    
C11   H3    S    
C39   H31   S    
O2    Zn2   S    
C28   H1    S    
C50   C51   S    
C8    C14   S    
C37   H27   S    
C35   H21   S    
C49   H55   S    
C2    C34   S    
O4    Zn2   S    
C12   H4    S    
C36   H24   S    
C2    O11   S    
C17   C33   S    
C20   N1    A    
C38   H29   S    
C49   H54   S    
C20   H7    S    
C37   H25   S    
C27   C34   S    
C28   H11   S    
O6    Zn2   S    
C30   H13   S    
C24   C25   S    
C4    C6    A    
C3    C8    A    
C10   C14   A    
C48   C49   S    
O11   C41   S    
C5    C7    A    
C30   C34   S    
C3    C5    A    
C18   F1    S    
C41   C42   S    
C38   H28   S    
C23   H10   S    
O8    Zn2   S    
C9    C14   A    
C1    O1    A    
C22   H9    S    
C15   H5    S    
C35   C36   S    
C41   H36   S    
C31   C34   S    
C19   F2    S    
C44   H43   S    
C39   H30   S    
C9    C11   A    
C32   H16   S    
C10   C12   A    
C18   N1    A    
C16   H6    S    
C15   C24   A    
C20   C22   A    
C28   C33   S    
C43   H40   S    
C31   H14   S    
C21   C23   A    
C50   H56   S    
C36   C37   S    
C22   C24   A    
C13   C26   S    
C46   H48   S    
C9    H19   S    
C52   H60   S    
C51   C52   S    
N1    Zn2   S    
C49   H53   S    
O13   C47   S    
C16   C25   A    
C3    H17   S    
C5    O13   S    
C1    C7    S    
O1    Zn1   S    
O10   C38   S    
C52   H61   S    
C51   H59   S    
C21   N2    A    
C47   H50   S    
C42   H38   S    
C6    C7    A    
C43   H41   S    
C29   H12   S    
C32   C33   S    
C46   H47   S    
C17   O3    A    
C29   C31   S    
C48   H51   S    
O3    Zn1   S    
C11   C13   A    
C45   H45   S    
C16   C19   A    
C28   C30   S    
C41   H35   S    
C44   C45   S    
C23   C25   A    
C26   O6    A    
O12   C44   S    
C10   H20   S    
C32   H15   S    
C47   C48   S    
C27   O8    A    
C17   O4    A    
C21   H8    S    
O5    Zn1   S    
C12   C13   A    
C43   H39   S    
C40   H34   S    
C46   H46   S    
C44   H42   S    
C50   H57   S    
C40   H33   S    
C27   O7    A    
C35   H22   S    
C1    O2    A    
O14   C50   S    
C45   C46   S    
