data_mof_unit_62561.cif
_audit_creation_date              2012-12-10T20:43:47-0500
_audit_creation_method            fapswitch 2.2
_symmetry_space_group_name_H-M    P1
_symmetry_Int_Tables_number       1
_space_group_crystal_system       triclinic
_cell_length_a                    10.858692
_cell_length_b                    19.2124
_cell_length_c                    19.231595
_cell_angle_alpha                 95.178288
_cell_angle_beta                  91.564952
_cell_angle_gamma                 96.441314
_cell_volume                      3967.68422359

loop_
_atom_site_label
_atom_site_type_symbol
_atom_type_description
_atom_site_fract_x
_atom_site_fract_y
_atom_site_fract_z
_atom_type_partial_charge
C1    C     C_R   0.512688 0.690431 0.508420 0.517457
C2    C     C_R   0.510445 0.767393 0.510216 0.029597
C3    C     C_R   0.597563 0.811203 0.475601 0.101335
C4    C     C_R   0.487712 0.309838 0.491355 0.516399
C5    C     C_R   0.583140 0.882737 0.474524 -0.103969
C6    C     C_R   0.473979 0.506561 0.765061 0.036305
C7    C     C_R   0.573473 0.488224 0.804654 -0.191043
C8    C     C_R   0.566909 0.487040 0.876465 -0.121211
C9    C     C_R   0.459679 0.504012 0.910706 0.217382
C10   C     C_R   0.358751 0.522034 0.871605 0.106019
C11   C     C_R   0.365016 0.523382 0.798544 0.123711
C12   C     C_R   0.555281 0.202208 0.535587 -0.146797
C13   C     C_R   0.416276 0.480533 0.119601 -0.056275
C14   C     C_R   0.407269 0.480070 0.191763 0.058345
C15   C     C_R   0.532964 0.492422 0.089515 0.202045
C16   C     C_R   0.511753 0.493425 0.311120 0.532099
C17   C     C_R   0.516163 0.491320 0.234926 0.036628
C18   C     C_R   0.632071 0.502426 0.204727 -0.155199
C19   C     C_R   0.640218 0.502291 0.132600 -0.107090
C20   C     C_R   0.485346 0.506531 0.688911 0.516971
C21   C     C_R   0.834248 0.515533 0.515079 0.539855
C22   C     C_R   0.163867 0.485359 0.485435 0.530266
C23   C     C_R   0.562750 0.129883 0.529398 0.137912
C24   C     C_2   0.028929 0.478526 0.482610 0.063196
C25   C     C_2   0.966912 0.524403 0.521281 0.138278
C26   C     C_R   0.490252 0.233141 0.484908 -0.024954
C27   C     C_3   0.178575 0.480590 0.729004 -0.260873
C28   C     C_3   0.964532 0.619910 0.615967 -0.289228
C29   C     C_3   0.441564 0.089992 0.293413 -0.291443
C30   C     C_3   0.804977 0.780112 0.489254 -0.262033
C31   C     C_3   0.571153 0.092146 0.645378 -0.268845
C32   C     C_R   0.506328 0.087617 0.470770 0.260817
C33   C     C_R   0.443317 0.118552 0.418594 0.128467
C34   C     C_R   0.433880 0.191000 0.426807 -0.111736
C35   C     C_R   0.402927 0.868685 0.545783 0.090141
C36   C     C_R   0.414782 0.797383 0.545728 -0.155146
C37   C     C_R   0.485229 0.911664 0.509111 0.210800
H1    H     H_    0.600964 0.234124 0.580277 0.147986
H2    H     H_    0.216565 0.580361 0.781791 0.276544
H3    H     H_    0.106782 0.498675 0.694879 0.160842
H4    H     H_    0.132094 0.452976 0.771190 0.156988
H5    H     H_    0.229751 0.443320 0.696753 0.150696
H6    H     H_    0.070765 0.622471 0.527026 0.263608
H7    H     H_    0.029049 0.662164 0.645098 0.160876
H8    H     H_    0.933404 0.580518 0.652583 0.154301
H9    H     H_    0.883535 0.643616 0.595791 0.129716
H10   H     H_    0.365297 0.024127 0.364698 0.282402
H11   H     H_    0.387790 0.057004 0.250048 0.156751
H12   H     H_    0.331718 0.472152 0.087322 0.179230
H13   H     H_    0.538335 0.076300 0.294208 0.155795
H14   H     H_    0.441569 0.145998 0.283316 0.161229
H15   H     H_    0.726314 0.808669 0.398496 0.251138
H16   H     H_    0.877391 0.754451 0.460289 0.157183
H17   H     H_    0.776764 0.748311 0.532845 0.155332
H18   H     H_    0.844933 0.833727 0.510961 0.148355
H19   H     H_    0.721529 0.125334 0.588480 0.252757
H20   H     H_    0.561013 0.144554 0.672751 0.128328
H21   H     H_    0.627150 0.063208 0.679620 0.157981
H22   H     H_    0.478073 0.061786 0.635828 0.204625
H23   H     H_    0.716659 0.510927 0.237079 0.154411
H24   H     H_    0.645817 0.472225 0.904927 0.159536
H25   H     H_    0.730452 0.511002 0.110182 0.148123
H26   H     H_    0.657442 0.475076 0.779979 0.147589
H27   H     H_    0.347363 0.765316 0.573170 0.168412
H28   H     H_    0.383516 0.214424 0.387293 0.163236
H29   H     H_    0.650608 0.916009 0.448281 0.143515
I1    I     I_    0.935215 0.391521 0.417087 -0.305427
I2    I     I_    0.225298 0.467893 0.230631 -0.289724
I3    I     I_    0.195420 0.544733 0.924446 -0.363106
I4    I     I_    0.255969 0.909393 0.600590 -0.382861
N1    N     N_2   0.517472 0.014735 0.462615 -0.243702
N2    N     N_2   0.471615 0.984336 0.511990 -0.184514
N3    N     N_2   0.448418 0.501932 0.983935 -0.201368
N4    N     N_2   0.546379 0.494832 0.016544 -0.239087
N5    N     N_2   0.262049 0.540589 0.758619 -0.476192
N6    N     N_2   0.028140 0.587219 0.558746 -0.503946
N7    N     N_2   0.385168 0.077011 0.358996 -0.506456
N8    N     N_2   0.700139 0.784311 0.442324 -0.480255
N9    N     N_2   0.632703 0.100030 0.580283 -0.486358
O1    O     O_3   0.500000 0.500000 0.500000 -0.456072
O2    O     O_R   0.783160 0.551820 0.473170 -0.538359
O3    O     O_R   0.222430 0.530340 0.530340 -0.530271
O4    O     O_R   0.771990 0.472690 0.551320 -0.536935
O5    O     O_R   0.222420 0.445150 0.445160 -0.500416
O6    O     O_R   0.435070 0.449940 0.339290 -0.506880
O7    O     O_R   0.419380 0.543640 0.654290 -0.503810
O8    O     O_R   0.586230 0.658380 0.469080 -0.504080
O9    O     O_R   0.559310 0.348040 0.537340 -0.537887
O10   O     O_R   0.435110 0.654980 0.544320 -0.557683
O11   O     O_R   0.419350 0.338590 0.449260 -0.536969
O12   O     O_R   0.586210 0.538520 0.349230 -0.536044
O13   O     O_R   0.559330 0.467910 0.657200 -0.558863
Zn1   Zn    Zn3+2 0.396020 0.434560 0.434560 0.992268
Zn2   Zn    Zn3+2 0.611960 0.561120 0.448760 0.962730
Zn3   Zn    Zn3+2 0.595990 0.448060 0.560420 0.937692
Zn4   Zn    Zn3+2 0.396040 0.556260 0.556260 0.948913

loop_
_geom_bond_atom_site_label_1
_geom_bond_atom_site_label_2
_ccdc_geom_bond_type
C1    O8    A    
C5    C37   A    
N3    N4    D    
C35   C36   A    
C7    C8    A    
C15   C19   A    
C20   O13   A    
C12   C23   A    
C28   H9    S    
H19   N9    S    
C22   O3    A    
C31   H21   S    
C35   C37   A    
C18   C19   A    
H15   N8    S    
C19   H25   S    
O8    Zn2   S    
C1    C2    S    
C31   H22   S    
C24   I1    S    
O6    Zn1   S    
C26   C34   A    
C21   O4    A    
C35   I4    S    
C8    C9    A    
C20   O7    A    
H2    N5    S    
O1    Zn4   S    
C9    C10   A    
C8    H24   S    
O9    Zn3   S    
C13   C14   A    
C14   C17   A    
C9    N3    S    
C27   N5    S    
C34   H28   S    
C33   C34   A    
C32   N1    S    
C4    O11   A    
C29   H13   S    
C30   H16   S    
C28   H8    S    
O3    Zn4   S    
C29   H11   S    
C24   C25   D    
C6    C11   A    
C16   C17   S    
C28   H7    S    
O13   Zn3   S    
C12   C26   A    
C22   O5    A    
C30   H17   S    
C27   H4    S    
C27   H3    S    
O4    Zn3   S    
C17   C18   A    
O1    Zn3   S    
C7    H26   S    
O7    Zn4   S    
C13   H12   S    
C18   H23   S    
C21   O2    A    
C13   C15   A    
C16   O6    A    
C22   C24   S    
H10   N7    S    
O1    Zn2   S    
C28   N6    S    
O11   Zn1   S    
C29   H14   S    
C2    C36   A    
H6    N6    S    
C21   C25   S    
C1    O10   A    
C5    H29   S    
C3    C5    A    
C4    C26   S    
C31   N9    S    
C6    C7    A    
C4    O9    A    
C6    C20   S    
C30   H18   S    
C25   N6    S    
C23   C32   A    
C31   H20   S    
O10   Zn4   S    
C2    C3    A    
N1    N2    D    
C11   N5    S    
C32   C33   A    
O12   Zn2   S    
O2    Zn2   S    
C27   H5    S    
C33   N7    S    
O5    Zn1   S    
C12   H1    S    
C10   C11   A    
C30   N8    S    
C10   I3    S    
C15   N4    S    
C29   N7    S    
C16   O12   A    
C37   N2    S    
C14   I2    S    
C23   N9    S    
O1    Zn1   S    
C36   H27   S    
C3    N8    S    
