data_mof_unit_8527.cif
_audit_creation_date              2012-12-11T15:39:21-0500
_audit_creation_method            fapswitch 2.2
_symmetry_space_group_name_H-M    P1
_symmetry_Int_Tables_number       1
_space_group_crystal_system       triclinic
_cell_length_a                    17.326737
_cell_length_b                    24.327447
_cell_length_c                    14.851676
_cell_angle_alpha                 90.397799
_cell_angle_beta                  125.355469
_cell_angle_gamma                 89.422081
_cell_volume                      5105.42233775

loop_
_atom_site_label
_atom_site_type_symbol
_atom_type_description
_atom_site_fract_x
_atom_site_fract_y
_atom_site_fract_z
_atom_type_partial_charge
C1    C     C_R   0.353034 0.348097 0.908737 -0.126215
C2    C     C_R   0.647371 0.347432 0.090488 -0.136803
C3    C     C_R   0.810213 0.876752 0.907249 -0.127316
C4    C     C_R   0.147571 0.847412 0.090321 -0.136399
C5    C     C_R   0.309910 0.637950 0.998035 -0.119823
C6    C     C_R   0.618695 0.683488 0.999579 -0.118665
C7    C     C_R   0.810627 0.138389 0.998624 -0.108607
C8    C     C_R   0.152371 0.169285 0.000809 -0.108820
C9    C     C_R   0.566887 0.499151 0.369048 -0.000077
C10   C     C_R   0.552238 0.499364 0.726966 0.024017
C11   C     C_R   0.069521 0.999085 0.370161 0.002798
C12   C     C_R   0.049828 0.998527 0.723875 0.020076
C13   C     C_R   0.198739 0.500256 0.631393 0.039227
C14   C     C_R   0.825490 0.500018 0.279485 0.051432
C15   C     C_R   0.700558 0.001252 0.630481 0.045044
C16   C     C_R   0.326082 0.999965 0.283937 0.051520
C17   C     C_R   0.072739 0.551313 0.465091 -0.083059
C18   C     C_R   0.976963 0.550947 0.382033 -0.117673
C19   C     C_R   0.571944 0.053188 0.469512 -0.086536
C20   C     C_R   0.475796 0.052112 0.388254 -0.118943
C21   C     C_R   0.119586 0.501699 0.514868 0.051708
C22   C     C_R   0.927894 0.501549 0.338308 0.102520
C23   C     C_R   0.620915 0.003561 0.514680 0.055319
C24   C     C_R   0.428290 0.002372 0.342765 0.104597
C25   C     C_R   0.077221 0.452676 0.456062 -0.160831
C26   C     C_R   0.981499 0.452740 0.366886 -0.188352
C27   C     C_R   0.579422 0.954900 0.453798 -0.162393
C28   C     C_R   0.482959 0.954422 0.367126 -0.189754
C29   C     C_3   0.959044 0.603560 0.422123 0.280936
C30   C     C_3   0.065362 0.605040 0.511807 0.278828
C31   C     C_3   0.456932 0.102072 0.434160 0.285300
C32   C     C_3   0.563130 0.104062 0.522701 0.277377
C33   C     C_R   0.158412 0.689031 0.892510 -0.173036
C34   C     C_R   0.706179 0.769250 0.094959 -0.153924
C35   C     C_R   0.658632 0.189054 0.893863 -0.157048
C36   C     C_R   0.310988 0.210404 0.102660 -0.152310
C37   C     C_R   0.610195 0.234363 0.893881 -0.176629
C38   C     C_R   0.377051 0.241456 0.103214 -0.184641
C39   C     C_R   0.111118 0.734871 0.892792 -0.173609
C40   C     C_R   0.752946 0.815172 0.094533 -0.181612
C41   C     C_R   0.636613 0.257568 0.994517 0.145497
C42   C     C_R   0.355580 0.261447 0.002992 0.152657
C43   C     C_R   0.136838 0.757614 0.993528 0.150283
C44   C     C_R   0.740821 0.830767 0.996297 0.155872
C45   C     C_R   0.402037 0.627453 0.090466 0.559793
C46   C     C_R   0.551881 0.652759 0.908424 0.514327
C47   C     C_R   0.902471 0.127395 0.090849 0.558895
C48   C     C_R   0.072080 0.146157 0.909006 0.526008
C49   C     C_R   0.695529 0.227680 0.092349 -0.202017
C50   C     C_R   0.282671 0.237774 0.903493 -0.179778
C51   C     C_R   0.193914 0.726956 0.090724 -0.206845
C52   C     C_R   0.671223 0.805626 0.896687 -0.182718
C53   C     C_R   0.239959 0.680107 0.089759 -0.172196
C54   C     C_R   0.629147 0.758637 0.898086 -0.202853
C55   C     C_R   0.742861 0.181450 0.091812 -0.169757
C56   C     C_R   0.217444 0.205513 0.902818 -0.201703
C57   C     C_R   0.232296 0.666159 0.993068 0.164683
C58   C     C_R   0.648694 0.738815 0.997545 0.158723
C59   C     C_R   0.733845 0.167003 0.994534 0.157353
C60   C     C_R   0.226481 0.196743 0.001746 0.169102
C61   C     C_R   0.609544 0.548566 0.631179 -0.161727
C62   C     C_R   0.610946 0.548565 0.538969 -0.165941
C63   C     C_R   0.111410 0.047408 0.632076 -0.159348
C64   C     C_R   0.115002 0.047653 0.541361 -0.166655
C65   C     C_R   0.600967 0.498859 0.484911 0.138392
C66   C     C_R   0.596932 0.498942 0.668370 0.143028
C67   C     C_R   0.103818 0.998244 0.486052 0.142371
C68   C     C_R   0.095295 0.997838 0.666184 0.145709
C69   C     C_R   0.609746 0.449024 0.537069 -0.177337
C70   C     C_R   0.608347 0.449086 0.629301 -0.162384
C71   C     C_R   0.109747 0.948179 0.536095 -0.181073
C72   C     C_R   0.105837 0.947988 0.626479 -0.164379
C73   C     C_R   0.547946 0.453779 0.303158 -0.120973
C74   C     C_R   0.520533 0.453612 0.752033 -0.119721
C75   C     C_R   0.050622 0.953885 0.304300 -0.137778
C76   C     C_R   0.019291 0.953141 0.750841 -0.115054
C77   C     C_R   0.247903 0.545426 0.694691 -0.167414
C78   C     C_R   0.767336 0.545764 0.247261 -0.064204
C79   C     C_R   0.748982 0.046067 0.695001 -0.169804
C80   C     C_R   0.268142 0.045535 0.252188 -0.056163
C81   C     C_R   0.552489 0.544917 0.306295 -0.041703
C82   C     C_R   0.520678 0.545650 0.752510 -0.122984
C83   C     C_R   0.053248 0.044915 0.306722 -0.046236
C84   C     C_R   0.017956 0.044882 0.748462 -0.134739
C85   C     C_R   0.244660 0.454337 0.696123 -0.112684
C86   C     C_R   0.769351 0.453821 0.253195 -0.156645
C87   C     C_R   0.745977 0.955032 0.694202 -0.129851
C88   C     C_R   0.269679 0.953723 0.255080 -0.160013
C89   C     C_R   0.308859 0.623030 0.906974 -0.243205
C90   C     C_R   0.650573 0.651359 0.091350 -0.273147
C91   C     C_R   0.809186 0.123493 0.907213 -0.244807
C92   C     C_R   0.165370 0.144937 0.092059 -0.274780
C93   C     C_R   0.445201 0.348460 0.092539 -0.118694
C94   C     C_R   0.555307 0.347960 0.907376 -0.143099
C95   C     C_R   0.902163 0.875466 0.092102 -0.126391
C96   C     C_R   0.055378 0.848031 0.907240 -0.142395
C97   C     C_R   0.385676 0.316328 0.001204 0.044128
C98   C     C_R   0.615626 0.315474 0.997918 0.050035
C99   C     C_R   0.812475 0.862920 0.999135 0.041237
C100  C     C_R   0.116022 0.815542 0.997592 0.047367
H1    H     H_    0.312528 0.334940 0.823541 0.084604
H2    H     H_    0.685590 0.333380 0.174888 0.082334
H3    H     H_    0.752600 0.873104 0.821304 0.092525
H4    H     H_    0.186085 0.833266 0.174695 0.084589
H5    H     H_    0.934565 0.637178 0.360780 0.075422
H6    H     H_    0.084744 0.601056 0.596758 0.058143
H7    H     H_    0.430914 0.137371 0.376174 0.068958
H8    H     H_    0.583688 0.096522 0.607369 0.059590
H9    H     H_    0.144106 0.676536 0.814322 0.121846
H10   H     H_    0.720814 0.755574 0.172539 0.117451
H11   H     H_    0.643622 0.176173 0.815527 0.122698
H12   H     H_    0.324670 0.200176 0.181378 0.105622
H13   H     H_    0.560458 0.254181 0.815617 0.113479
H14   H     H_    0.437607 0.255381 0.182128 0.101849
H15   H     H_    0.062925 0.755345 0.814848 0.114016
H16   H     H_    0.803629 0.835410 0.172072 0.113254
H17   H     H_    0.711836 0.242293 0.170466 0.115358
H18   H     H_    0.269156 0.249024 0.825223 0.110256
H19   H     H_    0.209641 0.741310 0.168727 0.111979
H20   H     H_    0.656661 0.817375 0.818308 0.110745
H21   H     H_    0.288732 0.659025 0.166796 0.169672
H22   H     H_    0.586942 0.736108 0.821501 0.163330
H23   H     H_    0.792919 0.161071 0.169267 0.170691
H24   H     H_    0.157969 0.190468 0.824306 0.153376
H25   H     H_    0.607908 0.587789 0.664664 0.109996
H26   H     H_    0.610306 0.587828 0.504999 0.111125
H27   H     H_    0.111306 0.086524 0.666953 0.109866
H28   H     H_    0.116860 0.086936 0.509163 0.109034
H29   H     H_    0.608501 0.409799 0.501709 0.113073
H30   H     H_    0.605828 0.409912 0.661344 0.112607
H31   H     H_    0.107555 0.909026 0.499964 0.113907
H32   H     H_    0.100714 0.908763 0.656301 0.112650
H33   H     H_    0.563428 0.411260 0.328477 0.088581
H34   H     H_    0.531093 0.410886 0.741975 0.095322
H35   H     H_    0.068559 0.911576 0.330398 0.090066
H36   H     H_    0.029898 0.910341 0.741425 0.093822
H37   H     H_    0.243522 0.586346 0.665084 0.128923
H38   H     H_    0.786189 0.587980 0.250284 0.128775
H39   H     H_    0.744846 0.087536 0.667164 0.137620
H40   H     H_    0.288876 0.087439 0.261088 0.120227
H41   H     H_    0.576259 0.585999 0.337243 0.124696
H42   H     H_    0.531534 0.588246 0.743379 0.128817
H43   H     H_    0.076050 0.086146 0.337317 0.127013
H44   H     H_    0.025699 0.086712 0.733137 0.155794
H45   H     H_    0.233736 0.412010 0.669082 0.084007
H46   H     H_    0.791068 0.411193 0.265912 0.101923
H47   H     H_    0.735546 0.913059 0.665280 0.085048
H48   H     H_    0.291518 0.911108 0.267566 0.102978
H49   H     H_    0.250500 0.625575 0.821103 0.143655
H50   H     H_    0.692906 0.664748 0.176421 0.139033
H51   H     H_    0.750919 0.126497 0.821356 0.143577
H52   H     H_    0.210269 0.158960 0.176393 0.135894
H53   H     H_    0.491089 0.335783 0.177814 0.081553
H54   H     H_    0.506894 0.334582 0.822875 0.085950
H55   H     H_    0.929440 0.869187 0.177556 0.094750
H56   H     H_    0.006821 0.834646 0.822766 0.087622
H57   H     H_    0.113442 0.413534 0.485925 0.114268
H58   H     H_    0.948021 0.413760 0.330335 0.117519
H59   H     H_    0.617254 0.916113 0.480750 0.116318
H60   H     H_    0.450097 0.915525 0.328976 0.119110
N1    N     N_R   0.394180 0.396910 0.943210 -0.039392
N2    N     N_R   0.605820 0.396910 0.056790 -0.034966
N3    N     N_R   0.894180 0.896910 0.943210 -0.040239
N4    N     N_R   0.105820 0.896910 0.056790 -0.035767
N5    N     N_R   0.450950 0.603070 0.056740 -0.097625
N6    N     N_R   0.549050 0.603070 0.943260 -0.079122
N7    N     N_R   0.950950 0.103070 0.056740 -0.099424
N8    N     N_R   0.049050 0.103070 0.943260 -0.080809
N9    N     N_R   0.525650 0.471570 0.206150 -0.045099
N10   N     N_R   0.474350 0.471570 0.793850 -0.042745
N11   N     N_R   0.025650 0.971570 0.206150 -0.043097
N12   N     N_R   0.974350 0.971570 0.793850 -0.041052
N13   N     N_R   0.319480 0.528420 0.793810 -0.031740
N14   N     N_R   0.680520 0.528420 0.206190 -0.053570
N15   N     N_R   0.819480 0.028420 0.793810 -0.031590
N16   N     N_R   0.180520 0.028420 0.206190 -0.051872
N17   N     N_R   0.525640 0.528390 0.206120 -0.044996
N18   N     N_R   0.474360 0.528390 0.793880 -0.034838
N19   N     N_R   0.025640 0.028390 0.206120 -0.044352
N20   N     N_R   0.974360 0.028390 0.793880 -0.035533
N21   N     N_R   0.319490 0.471590 0.793840 -0.039603
N22   N     N_R   0.680510 0.471590 0.206160 -0.044648
N23   N     N_R   0.819490 0.971590 0.793840 -0.037891
N24   N     N_R   0.180510 0.971590 0.206160 -0.043395
N25   N     N_R   0.394130 0.603080 0.943110 -0.068591
N26   N     N_R   0.605870 0.603080 0.056890 -0.064503
N27   N     N_R   0.894130 0.103080 0.943110 -0.073118
N28   N     N_R   0.105870 0.103080 0.056890 -0.066293
N29   N     N_R   0.450990 0.396900 0.056840 -0.038345
N30   N     N_R   0.549010 0.396900 0.943160 -0.037224
N31   N     N_R   0.950990 0.896900 0.056840 -0.039429
N32   N     N_R   0.049010 0.896900 0.943160 -0.038317
Ni1   Ni    Ni4+2 0.434860 0.434850 0.869700 0.207666
Ni2   Ni    Ni4+2 0.565140 0.434850 0.130300 0.201490
Ni3   Ni    Ni4+2 0.934860 0.934850 0.869700 0.210649
Ni4   Ni    Ni4+2 0.065140 0.934850 0.130300 0.204912
Ni5   Ni    Ni4+2 0.565130 0.565140 0.130240 0.204610
Ni6   Ni    Ni4+2 0.434870 0.565140 0.869760 0.231359
Ni7   Ni    Ni4+2 0.065130 0.065140 0.130240 0.204498
Ni8   Ni    Ni4+2 0.934870 0.065140 0.869760 0.223507
O1    O     O_3   0.898291 0.599404 0.457919 -0.664332
C101  C     C_3   0.927351 0.561531 0.544505 0.211906
H61   H     H_    0.974053 0.582886 0.625062 0.101518
H62   H     H_    0.965312 0.525057 0.542394 0.098853
C102  C     C_3   0.840233 0.541350 0.536407 -0.265354
H63   H     H_    0.801751 0.577038 0.540459 0.200828
H64   H     H_    0.791773 0.520131 0.456166 0.206879
C103  C     C_3   0.868140 0.501574 0.629886 -1.015324
H65   H     H_    0.904734 0.464933 0.625683 0.265282
H66   H     H_    0.803947 0.487731 0.622559 0.282377
H67   H     H_    0.915630 0.522099 0.711160 0.270939
O2    O     O_3   0.111922 0.651518 0.505468 -0.671754
C104  C     C_3   0.117729 0.652508 0.413897 0.213720
H68   H     H_    0.110593 0.696101 0.388198 0.118772
H69   H     H_    0.059619 0.630290 0.339995 0.082015
C105  C     C_3   0.214450 0.631034 0.447253 -0.294706
H70   H     H_    0.271415 0.655508 0.517675 0.201880
H71   H     H_    0.224330 0.587506 0.473932 0.206858
C106  C     C_3   0.224052 0.634967 0.351614 -1.002373
H72   H     H_    0.168899 0.609881 0.280629 0.273002
H73   H     H_    0.294739 0.619279 0.378341 0.276190
H74   H     H_    0.216928 0.678395 0.325026 0.256928
O3    O     O_3   0.397247 0.093936 0.470468 -0.663176
C107  C     C_3   0.428135 0.053514 0.553369 0.207879
H75   H     H_    0.474201 0.073238 0.635834 0.102725
H76   H     H_    0.467520 0.018925 0.547856 0.098123
C108  C     C_3   0.341978 0.029968 0.543342 -0.260667
H77   H     H_    0.302758 0.063685 0.551757 0.202038
H78   H     H_    0.293764 0.010795 0.460760 0.207114
C109  C     C_3   0.371352 0.986781 0.631997 -1.015672
H79   H     H_    0.408970 0.952112 0.623537 0.264701
H80   H     H_    0.307659 0.970470 0.622958 0.281170
H81   H     H_    0.418357 0.005229 0.715517 0.271422
O4    O     O_3   0.606854 0.153230 0.521177 -0.667048
C110  C     C_3   0.611441 0.159597 0.429405 0.213047
H82   H     H_    0.598444 0.203755 0.406143 0.115312
H83   H     H_    0.556297 0.136779 0.354242 0.081337
C111  C     C_3   0.710415 0.144180 0.461874 -0.279546
H84   H     H_    0.764221 0.168418 0.535597 0.209028
H85   H     H_    0.724615 0.099878 0.483420 0.202017
C112  C     C_3   0.720114 0.155515 0.367882 -1.014737
H86   H     H_    0.667949 0.130994 0.293804 0.274593
H87   H     H_    0.792414 0.143900 0.393844 0.275775
H88   H     H_    0.708450 0.199890 0.346318 0.256436
O5    O     O_3   0.440604 0.641763 0.198625 -0.697784
C113  C     C_3   0.462516 0.698488 0.214612 0.122690
H89   H     H_    0.466351 0.711591 0.288912 0.143136
H90   H     H_    0.406798 0.724554 0.145075 0.103871
C114  C     C_3   0.558200 0.709218 0.234530 -0.316891
H91   H     H_    0.612448 0.680325 0.297866 0.207671
H92   H     H_    0.551088 0.702538 0.156169 0.191972
C115  C     C_3   0.590418 0.768171 0.272734 -0.999853
H93   H     H_    0.538188 0.797673 0.209066 0.268608
H94   H     H_    0.659796 0.774661 0.286438 0.266621
H95   H     H_    0.598546 0.776248 0.351512 0.262824
O6    O     O_3   0.475885 0.673206 0.807960 -0.696880
C116  C     C_3   0.423570 0.712030 0.824776 0.143728
H96   H     H_    0.456484 0.753174 0.843268 0.121951
H97   H     H_    0.419308 0.700416 0.894146 0.108668
C117  C     C_3   0.323361 0.717001 0.719623 -0.234564
H98   H     H_    0.326489 0.731555 0.651044 0.194459
H99   H     H_    0.289546 0.676113 0.697511 0.215663
C118  C     C_3   0.263192 0.757086 0.734511 -1.008752
H100  H     H_    0.258843 0.743305 0.802579 0.267119
H101  H     H_    0.190501 0.758959 0.657171 0.285391
H102  H     H_    0.294121 0.798907 0.753520 0.263595
O7    O     O_3   0.942488 0.143526 0.198422 -0.699469
C119  C     C_3   0.969816 0.199310 0.211665 0.121900
H103  H     H_    0.977826 0.214830 0.287164 0.141455
H104  H     H_    0.914881 0.225791 0.142259 0.107406
C120  C     C_3   0.064741 0.205295 0.226841 -0.313699
H105  H     H_    0.117896 0.176708 0.292124 0.206839
H106  H     H_    0.055263 0.194857 0.148251 0.195592
C121  C     C_3   0.101456 0.263983 0.258295 -0.990209
H107  H     H_    0.049703 0.293123 0.193222 0.268227
H108  H     H_    0.169375 0.267025 0.266958 0.270382
H109  H     H_    0.113839 0.275545 0.338155 0.261715
O8    O     O_3   0.011358 0.169057 0.804880 -0.708351
C122  C     C_3   0.984146 0.223219 0.811413 0.147109
H110  H     H_    0.951863 0.242598 0.729355 0.137526
H111  H     H_    0.045343 0.249396 0.871717 0.105383
C123  C     C_3   0.910041 0.222785 0.836925 -0.292299
H112  H     H_    0.850936 0.195263 0.777468 0.215642
H113  H     H_    0.942885 0.207039 0.921864 0.192410
C124  C     C_3   0.870646 0.280249 0.829190 -0.993129
H114  H     H_    0.928501 0.308325 0.888860 0.267219
H115  H     H_    0.818048 0.278341 0.849132 0.272878
H116  H     H_    0.835103 0.296778 0.744299 0.265955

loop_
_geom_bond_atom_site_label_1
_geom_bond_atom_site_label_2
_ccdc_geom_bond_type
C118  H102  S    
C79   H39   S    
C113  H90   S    
N8    N28   A    
C55   C59   A    
C120  C121  S    
C121  H109  S    
O1    C101  S    
C6    C58   S    
C19   C20   A    
N14   N22   A    
C105  C106  S    
C70   H30   S    
C82   H42   S    
N11   N19   A    
C107  H75   S    
C2    N2    A    
C8    C48   A    
C47   O7    S    
C76   H36   S    
C118  H100  S    
C32   O4    S    
C102  H63   S    
C65   C69   A    
C12   C68   S    
C111  C112  S    
C64   H28   S    
C123  H112  S    
C33   C39   A    
C101  H62   S    
C96   C100  A    
N10   N18   A    
C37   C41   A    
C34   C40   A    
C56   H24   S    
C115  H94   S    
C35   C37   A    
C77   H37   S    
C38   C42   A    
C124  H116  S    
C30   O2    S    
C38   H14   S    
C5    C57   S    
C95   C99   A    
C88   N24   A    
C37   H13   S    
C94   C98   A    
C27   H59   S    
C120  H105  S    
C2    H2    S    
C78   H38   S    
C28   H60   S    
C14   C78   A    
O2    C104  S    
C12   C84   A    
C109  H81   S    
C35   C59   A    
C112  H86   S    
C122  C123  S    
C7    C59   S    
C84   N20   A    
N31   Ni4   S    
C21   C25   A    
N30   Ni1   S    
C111  H84   S    
C120  H106  S    
N29   Ni2   S    
C41   C49   A    
C49   H17   S    
C20   C24   A    
C11   C67   S    
C103  H65   S    
C114  C115  S    
C101  C102  S    
C92   H52   S    
N23   Ni3   S    
C110  H82   S    
C4    N4    A    
N26   Ni5   S    
C26   H58   S    
N22   Ni2   S    
C23   C27   A    
N25   Ni6   S    
C121  H107  S    
N21   Ni1   S    
C33   C57   A    
C87   N23   A    
C1    N1    A    
C67   C71   A    
O8    C122  S    
C95   N31   A    
C63   H27   S    
N12   N20   A    
C95   H55   S    
C15   C23   S    
C54   H22   S    
N13   N21   A    
N2    Ni2   S    
C16   C24   S    
N17   Ni5   S    
O5    C113  S    
C30   H6    S    
N4    N32   A    
C80   H40   S    
C17   C30   S    
C110  H83   S    
C29   H5    S    
C69   C70   A    
C9    C73   A    
C117  C118  S    
C46   N6    A    
C19   C32   S    
C61   C66   A    
C46   O6    S    
C76   N12   A    
C52   C54   A    
C72   H32   S    
C111  H85   S    
C10   C66   S    
C88   H48   S    
C18   C22   A    
C55   H23   S    
C114  H92   S    
C29   O1    S    
C101  H61   S    
C13   C21   S    
C64   C67   A    
C79   N15   A    
C43   C100  S    
C14   C86   A    
O3    C107  S    
C117  H99   S    
C90   H50   S    
C16   C88   A    
C42   C97   S    
C45   O5    S    
C106  H72   S    
C62   H26   S    
N16   N24   A    
C117  H98   S    
C39   C43   A    
C90   N26   A    
N28   Ni7   S    
C11   C83   A    
C25   C26   A    
N24   Ni4   S    
C5    C45   A    
C93   H53   S    
C10   C82   A    
C109  H79   S    
N5    N25   A    
C56   C60   A    
C16   C80   A    
C31   H7    S    
C7    C47   A    
C19   C23   A    
C104  H69   S    
C94   N30   A    
C36   H12   S    
C124  H114  S    
N20   Ni8   S    
N5    Ni5   S    
C106  H73   S    
C47   N7    A    
C51   H19   S    
C108  H77   S    
C48   N8    A    
C119  C120  S    
N3    Ni3   S    
C29   C30   S    
C68   C72   A    
N7    N27   A    
O6    C116  S    
C82   N18   A    
C116  H96   S    
C92   N28   A    
C17   C18   A    
C114  H91   S    
N1    Ni1   S    
N6    Ni6   S    
C18   C29   S    
C116  C117  S    
C105  H70   S    
C109  H80   S    
C73   H33   S    
C80   N16   A    
N9    Ni2   S    
C87   H47   S    
C42   C50   A    
C115  H95   S    
C8    C92   A    
C52   H20   S    
N1    N29   A    
C108  H78   S    
C119  H104  S    
C81   H41   S    
C1    H1    S    
C39   H15   S    
C50   H18   S    
C4    C100  A    
C13   C77   A    
C25   H57   S    
C34   H10   S    
C110  C111  S    
C31   O3    S    
C9    C65   S    
C112  H87   S    
C33   H9    S    
O4    C110  S    
N16   Ni7   S    
C1    C97   A    
C36   C38   A    
C107  C108  S    
C93   C97   A    
C7    C91   A    
N2    N30   A    
C35   H11   S    
C78   N14   A    
C54   C58   A    
C102  C103  S    
C3    H3    S    
C118  H101  S    
C91   N27   A    
C113  H89   S    
N14   Ni5   S    
C77   N13   A    
C93   N29   A    
C6    C46   A    
C62   C65   A    
N3    N31   A    
N13   Ni6   S    
N6    N26   A    
N15   N23   A    
C89   N25   A    
C32   H8    S    
C31   C32   S    
N7    Ni7   S    
C24   C28   A    
C86   H46   S    
N11   Ni4   S    
C36   C60   A    
C49   C55   A    
C107  H76   S    
C44   C52   A    
C40   H16   S    
N10   Ni1   S    
C61   H25   S    
O7    C119  S    
N4    Ni4   S    
C104  C105  S    
C86   N22   A    
C85   N21   A    
C15   C79   A    
C66   C70   A    
C63   C68   A    
C75   N11   A    
C123  H113  S    
C83   N19   A    
N27   Ni8   S    
C112  H88   S    
C3    N3    A    
C96   N32   A    
C48   O8    S    
C12   C76   A    
N32   Ni3   S    
N12   Ni3   S    
C122  H110  S    
C81   N17   A    
C71   C72   A    
C124  H115  S    
C103  H66   S    
C11   C75   A    
C8    C60   S    
C106  H74   S    
C91   H51   S    
C94   H54   S    
C10   C74   A    
C14   C22   S    
C73   N9    A    
C96   H56   S    
C75   H35   S    
N19   Ni7   S    
C43   C51   A    
C103  H67   S    
C104  H68   S    
C74   H34   S    
C89   H49   S    
C44   C99   S    
C53   C57   A    
C4    H4    S    
N9    N17   A    
C121  H108  S    
C122  H111  S    
N18   Ni6   S    
C61   C62   A    
N8    Ni8   S    
C50   C56   A    
N15   Ni8   S    
C74   N10   A    
C71   H31   S    
C63   C64   A    
C3    C99   A    
C40   C44   A    
C108  C109  S    
C6    C90   A    
C119  H103  S    
C2    C98   A    
C123  C124  S    
C69   H29   S    
C22   C26   A    
C15   C87   A    
C13   C85   A    
C27   C28   A    
C34   C58   A    
C84   H44   S    
C41   C98   S    
C83   H43   S    
C53   H21   S    
C51   C53   A    
C85   H45   S    
C116  H97   S    
C102  H64   S    
C45   N5    A    
C20   C31   S    
C5    C89   A    
C105  H71   S    
C9    C81   A    
C115  H93   S    
C113  C114  S    
C17   C21   A    
