data_mof_unit_28808.cif
_audit_creation_date              2012-12-11T18:47:33-0500
_audit_creation_method            fapswitch 2.2
_symmetry_space_group_name_H-M    P1
_symmetry_Int_Tables_number       1
_space_group_crystal_system       triclinic
_cell_length_a                    8.171011
_cell_length_b                    15.012247
_cell_length_c                    14.904235
_cell_angle_alpha                 98.817807
_cell_angle_beta                  97.786801
_cell_angle_gamma                 98.695183
_cell_volume                      1762.14398869

loop_
_atom_site_label
_atom_site_type_symbol
_atom_type_description
_atom_site_fract_x
_atom_site_fract_y
_atom_site_fract_z
_atom_type_partial_charge
Ba1   Ba    Ba6+2 0.844900 0.542440 0.457470 1.641922
Ba2   Ba    Ba6+2 0.344940 0.457640 0.542540 1.656654
C1    C     C_3   0.654248 0.878134 0.239153 -0.368514
C2    C     C_R   0.107359 0.477354 0.206757 0.061549
C3    C     C_R   0.919669 0.478805 0.765860 -0.272425
C4    C     C_3   0.076864 0.730831 0.212781 0.360423
C5    C     C_R   0.817265 0.448709 0.826786 -0.015576
C6    C     C_R   0.878471 0.465264 0.921150 -0.166073
C7    C     C_R   0.047162 0.506271 0.956037 0.022502
C8    C     C_R   0.146389 0.543065 0.893676 -0.018557
C9    C     C_R   0.120154 0.511425 0.050607 0.005096
C10   C     C_R   0.289544 0.556554 0.081624 -0.026040
C11   C     C_R   0.379643 0.596562 0.019869 -0.109838
C12   C     C_3   0.621133 0.784103 0.266052 0.361719
C13   C     C_R   0.309021 0.591171 0.928650 -0.048770
C14   C     C_R   0.033156 0.469930 0.114573 -0.131550
C15   C     C_R   0.270623 0.524332 0.235817 -0.291787
C16   C     C_3   0.045709 0.756830 0.117997 -0.365624
C17   C     C_R   0.080565 0.529548 0.797708 0.033226
C18   C     C_R   0.330029 0.821132 0.434789 -0.010184
C19   C     C_R   0.584553 0.790550 0.519608 0.055547
C20   C     C_R   0.770954 0.228242 0.518440 -0.252754
C21   C     C_R   0.874360 0.169520 0.547931 -0.008993
C22   C     C_R   0.814392 0.075435 0.534025 -0.165632
C23   C     C_3   0.406926 0.322298 0.258986 0.305155
C24   C     C_R   0.645719 0.039129 0.493471 0.023589
C25   C     C_R   0.546359 0.099475 0.456580 -0.004015
C26   C     C_R   0.572972 0.945080 0.487149 0.009283
C27   C     C_R   0.404859 0.913241 0.440950 -0.019600
C28   C     C_3   0.279802 0.737841 0.662476 0.357799
C29   C     C_R   0.314529 0.973899 0.401985 -0.109502
C30   C     C_R   0.384055 0.064629 0.408983 -0.058642
C31   C     C_R   0.658485 0.882528 0.528651 -0.139367
C32   C     C_R   0.423597 0.759836 0.469749 -0.293533
C33   C     C_R   0.611605 0.193817 0.468463 0.032445
C34   C     C_3   0.344373 0.294020 0.156285 -0.396656
C35   C     C_3   0.357199 0.839389 0.693054 0.295579
C36   C     C_3   0.919026 0.258503 0.330813 0.311059
C37   C     C_3   0.887658 0.155007 0.300207 -0.396802
C38   C     C_3   0.779938 0.670088 0.740044 0.312535
C39   C     C_3   0.814318 0.699754 0.844154 -0.398277
C40   C     C_3   0.141725 0.919496 0.719203 0.205731
C41   C     C_3   0.848801 0.086311 0.761952 0.160584
C42   C     C_3   0.029154 0.224015 0.773138 0.855977
C43   C     C_3   0.132873 0.303011 0.843729 -0.185432
C44   C     C_3   0.634772 0.255615 0.869248 0.288677
C45   C     C_3   0.572221 0.280035 0.960135 -0.408811
C46   C     C_R   0.364612 0.560932 0.174170 -0.004810
H1    H     H_    0.703695 0.785743 0.332115 0.095669
H2    H     H_    0.678668 0.608996 0.722204 0.061100
H3    H     H_    0.787236 0.895456 0.229981 0.149780
H4    H     H_    0.918692 0.759297 0.863979 0.138992
H5    H     H_    0.849609 0.643200 0.878006 0.063288
H6    H     H_    0.700120 0.719247 0.868823 0.122017
H7    H     H_    0.488023 0.769650 0.275482 -0.064027
H8    H     H_    0.628453 0.930798 0.293762 0.072462
H9    H     H_    0.304222 0.346111 0.292339 0.019384
H10   H     H_    0.515446 0.379219 0.270002 0.064973
H11   H     H_    0.225541 0.243743 0.143813 0.136138
H12   H     H_    0.489942 0.844156 0.724738 0.058666
H13   H     H_    0.321983 0.354565 0.125227 0.059537
H14   H     H_    0.439873 0.262123 0.123118 0.131442
H15   H     H_    0.571412 0.878777 0.173791 0.115096
H16   H     H_    0.073880 0.703017 0.065412 0.074889
H17   H     H_    0.922094 0.251058 0.738097 -0.254227
H18   H     H_    0.170991 0.361316 0.809423 0.081656
H19   H     H_    0.060260 0.324290 0.898283 0.028747
H20   H     H_    0.246511 0.281805 0.876746 0.117096
H21   H     H_    0.768487 0.285359 0.874189 -0.001165
H22   H     H_    0.628669 0.180387 0.856208 0.078036
H23   H     H_    0.360378 0.874521 0.632538 -0.098820
H24   H     H_    0.670430 0.276451 0.018131 0.089497
H25   H     H_    0.458529 0.230102 0.962320 0.121025
H26   H     H_    0.994772 0.664440 0.211541 0.092333
H27   H     H_    0.541073 0.349942 0.968827 0.121761
H28   H     H_    0.328012 0.528254 0.306432 0.074661
H29   H     H_    0.507281 0.632338 0.040841 0.107432
H30   H     H_    0.908891 0.429865 0.094685 0.086758
H31   H     H_    0.870169 0.466923 0.693148 0.070523
H32   H     H_    0.792212 0.445088 0.965636 0.067762
H33   H     H_    0.386203 0.624319 0.885877 0.104471
H34   H     H_    0.805452 0.279700 0.353084 -0.001237
H35   H     H_    0.366648 0.688830 0.463636 0.079121
H36   H     H_    0.187629 0.952817 0.365814 0.109310
H37   H     H_    0.780876 0.903559 0.570227 0.064033
H38   H     H_    0.210124 0.722964 0.227490 -0.066396
H39   H     H_    0.819073 0.300962 0.529112 0.057867
H40   H     H_    0.901991 0.032661 0.554798 0.067311
H41   H     H_    0.306125 0.107059 0.377472 0.096641
H42   H     H_    0.912538 0.764118 0.100278 0.149896
H43   H     H_    0.127827 0.822668 0.117082 0.115586
H44   H     H_    0.370378 0.701815 0.629476 -0.075672
H45   H     H_    0.025212 0.277676 0.388857 0.062116
H46   H     H_    0.164277 0.731091 0.611875 0.022898
H47   H     H_    0.053484 0.867543 0.666540 0.038098
H48   H     H_    0.190495 0.979109 0.688434 0.060628
H49   H     H_    0.070191 0.943817 0.773346 0.077445
H50   H     H_    0.909623 0.045887 0.711957 0.017150
H51   H     H_    0.746197 0.114784 0.725407 0.027559
H52   H     H_    0.790915 0.038756 0.803523 0.068240
H53   H     H_    0.777382 0.133699 0.244428 0.131388
H54   H     H_    0.862994 0.119975 0.358374 0.061024
H55   H     H_    0.999575 0.133399 0.274547 0.121490
H56   H     H_    0.895643 0.652977 0.716409 0.009910
O1    O     O_2   0.826460 0.445380 0.275370 -0.461016
O2    O     O_2   0.218449 0.178650 0.552046 -0.466781
O3    O     O_3   0.136408 0.190701 0.714227 -0.593228
O4    O     O_3   0.098920 0.448470 0.388920 -0.498245
O5    O     O_3   0.590770 0.611390 0.551120 -0.485692
O6    O     O_2   0.326540 0.275010 0.446300 -0.465244
O7    O     O_3   0.455498 0.246736 0.293385 -0.647628
O8    O     O_2   0.472264 0.445811 0.820604 -0.496185
O9    O     O_3   0.531154 0.277997 0.795599 -0.560690
O10   O     O_3   0.628660 0.613390 0.338240 -0.484633
O11   O     O_2   0.703068 0.548629 0.175512 -0.493545
O12   O     O_3   0.732269 0.742855 0.700652 -0.650281
O13   O     O_3   0.954784 0.299252 0.256002 -0.636741
O14   O     O_3   0.656240 0.718469 0.196742 -0.605852
O15   O     O_2   0.863170 0.725020 0.553760 -0.470414
O16   O     O_3   0.060910 0.661460 0.386100 -0.484864
O17   O     O_2   0.993432 0.823841 0.450172 -0.499014
O18   O     O_3   0.274679 0.882207 0.760729 -0.617393
O19   O     O_3   0.968840 0.155010 0.821326 -0.666225
O20   O     O_3   0.039218 0.799358 0.278248 -0.604866
O21   O     O_2   0.363260 0.554650 0.724690 -0.468543
O22   O     O_3   0.090800 0.551610 0.611090 -0.495975
O23   O     O_3   0.561050 0.386690 0.661770 -0.441776
O24   O     O_3   0.242293 0.701080 0.739486 -0.622436
O25   O     O_3   0.598950 0.388690 0.448890 -0.480921
O26   O     O_3   0.128800 0.338610 0.613910 -0.479494
P1    P     P_3+3 0.996570 0.418570 0.288410 0.977907
P2    P     P_3+3 0.693070 0.712070 0.580610 0.967040
P3    P     P_3+3 0.106130 0.778136 0.388440 0.933837
P4    P     P_3+3 0.193140 0.581510 0.711600 0.981540
P5    P     P_3+3 0.089043 0.219046 0.605078 0.985814
P6    P     P_3+3 0.587743 0.609193 0.219681 0.938316
P7    P     P_3+3 0.500800 0.274369 0.413422 0.941215
P8    P     P_3+3 0.598972 0.390838 0.780509 0.981361

loop_
_geom_bond_atom_site_label_1
_geom_bond_atom_site_label_2
_ccdc_geom_bond_type
O21   P4    D    
Ba2   O5    S    
O26   P5    S    
C41   H50   S    
C4    O20   S    
C10   C46   A    
Ba1   P2    S    
C5    C6    A    
C13   H33   S    
C17   P4    S    
C20   C33   A    
O7    P7    S    
C24   C25   A    
Ba2   P4    S    
O20   P3    S    
C40   H48   S    
C16   H43   S    
C26   C27   A    
C41   H51   S    
Ba1   Ba2   S    
Ba1   O25   S    
C8    C13   A    
C36   C37   S    
C12   H1    S    
C19   C31   A    
O11   P6    D    
Ba2   O25   S    
O16   P3    S    
Ba1   O15   S    
C31   H37   S    
O4    P1    S    
O3    P5    S    
Ba1   O5    S    
C36   O13   S    
C30   H41   S    
C6    C7    A    
C44   H21   S    
C43   H19   S    
C15   H28   S    
C21   C22   A    
C15   C46   A    
C37   H53   S    
O23   P8    S    
C18   P3    S    
C3    H31   S    
C7    C8    A    
C39   H4    S    
C18   C32   A    
Ba2   O23   S    
C34   H11   S    
C12   H7    S    
Ba1   O10   S    
C36   H34   S    
C42   H17   S    
C23   H9    S    
C43   H20   S    
C34   H14   S    
C45   H24   S    
C4    H26   S    
C2    P1    S    
C28   O24   S    
C18   C27   A    
C4    C16   S    
C11   H29   S    
C40   H47   S    
C16   H42   S    
O8    P8    D    
C41   H52   S    
C45   H25   S    
O1    P1    D    
C40   H49   S    
C3    C5    A    
C1    H3    S    
C19   C32   A    
Ba1   O4    S    
C25   C33   A    
C29   H36   S    
C28   C35   S    
Ba1   O16   S    
C2    C14   A    
C19   P2    S    
O24   P4    S    
C38   H56   S    
C7    C9    A    
C1    H8    S    
C29   C30   A    
O12   P2    S    
C8    C17   A    
O5    P2    S    
O15   P2    D    
C20   H39   S    
Ba1   O22   S    
C22   H40   S    
C39   H5    S    
C1    C12   S    
C2    C15   A    
Ba2   O22   S    
C28   H44   S    
C38   C39   S    
C26   C31   A    
C11   C13   A    
C32   H35   S    
C34   H13   S    
C41   O19   S    
O14   P6    S    
C42   C43   S    
C40   O18   S    
C37   H54   S    
C12   O14   S    
C42   O3    S    
C44   C45   S    
Ba2   O6    S    
C44   O9    S    
C25   C30   A    
O9    P8    S    
C46   P6    S    
O6    P7    D    
C22   C24   A    
Ba1   P1    S    
C5    P8    S    
C9    C10   A    
C37   H55   S    
C3    C17   A    
C1    H15   S    
O2    P5    D    
C42   O19   S    
C24   C26   A    
C4    H38   S    
C21   P5    S    
C35   H23   S    
C45   H27   S    
C27   C29   A    
C33   P7    S    
C16   H16   S    
C38   O12   S    
C38   H2    S    
C36   H45   S    
Ba2   O4    S    
Ba2   O26   S    
C14   H30   S    
O13   P1    S    
C39   H6    S    
C44   H22   S    
C9    C14   A    
C23   O7    S    
C23   C34   S    
C35   O18   S    
Ba2   O21   S    
O25   P7    S    
C10   C11   A    
O22   P4    S    
C28   H46   S    
C23   H10   S    
C43   H18   S    
C6    H32   S    
O10   P6    S    
C20   C21   A    
O17   P3    D    
Ba1   O1    S    
C35   H12   S    
