data_mof_unit_54718.cif
_audit_creation_date              2012-12-11T15:39:12-0500
_audit_creation_method            fapswitch 2.2
_symmetry_space_group_name_H-M    P1
_symmetry_Int_Tables_number       1
_space_group_crystal_system       triclinic
_cell_length_a                    14.34747
_cell_length_b                    14.796491
_cell_length_c                    33.196508
_cell_angle_alpha                 97.63666
_cell_angle_beta                  90.375416
_cell_angle_gamma                 118.937915
_cell_volume                      6092.32961074

loop_
_atom_site_label
_atom_site_type_symbol
_atom_type_description
_atom_site_fract_x
_atom_site_fract_y
_atom_site_fract_z
_atom_type_partial_charge
C1    C     C_R   0.616915 0.910238 0.437020 0.542394
C2    C     C_R   0.742286 0.424622 0.187802 0.031766
C3    C     C_R   0.709802 0.873599 0.653704 -0.113520
C4    C     C_R   0.637141 0.768449 0.655273 -0.001922
C5    C     C_R   0.633612 0.858223 0.585709 -0.011830
C6    C     C_R   0.052128 0.781331 0.063797 0.543757
C7    C     C_R   0.744003 0.486899 0.066233 0.546270
C8    C     C_R   0.742991 0.789248 0.066416 0.553465
C9    C     C_R   0.020850 0.731595 0.947298 0.538651
C10   C     C_R   0.712419 0.438097 0.949109 0.533567
C11   C     C_R   0.739525 0.718375 0.945080 0.561369
C12   C     C_R   0.829835 0.440427 0.165291 -0.119099
C13   C     C_R   0.827840 0.453553 0.124517 -0.125113
C14   C     C_R   0.781165 0.356166 0.246587 -0.114411
C15   C     C_R   0.773961 0.343480 0.287491 -0.111818
C16   C     C_R   0.733083 0.395458 0.314079 0.031197
C17   C     C_R   0.705317 0.464860 0.299625 -0.115025
C18   C     C_R   0.711975 0.477049 0.258701 -0.113335
C19   C     C_R   0.746931 0.420395 0.231703 0.030102
C20   C     C_R   0.606912 0.345783 0.368547 -0.117823
C21   C     C_R   0.594071 0.205610 0.456654 0.543436
C22   C     C_R   0.572542 0.299061 0.403259 -0.124634
C23   C     C_R   0.740696 0.300136 0.413017 -0.125294
C24   C     C_R   0.775158 0.347154 0.378358 -0.120762
C25   C     C_R   0.706940 0.366696 0.354990 0.032788
C26   C     C_R   0.637491 0.272089 0.424848 0.022340
C27   C     C_R   0.244660 0.877957 0.393400 0.020470
C28   C     C_R   0.232148 0.959053 0.380878 -0.126732
C29   C     C_R   0.208117 0.956709 0.339783 -0.114666
C30   C     C_R   0.195650 0.873137 0.310822 0.040289
C31   C     C_R   0.200990 0.788934 0.323284 -0.112806
C32   C     C_R   0.295596 0.892763 0.434394 0.541859
C33   C     C_R   0.225115 0.791088 0.364352 -0.127592
C34   C     C_R   0.195627 0.807889 0.163252 -0.112449
C35   C     C_R   0.167776 0.786529 0.121372 -0.124979
C36   C     C_R   0.089844 0.900599 0.129709 -0.128345
C37   C     C_R   0.117282 0.921384 0.171708 -0.114391
C38   C     C_R   0.166708 0.872001 0.188636 0.039597
C39   C     C_1   0.177556 0.877280 0.232028 -0.029938
C40   C     C_1   0.184972 0.876662 0.268111 -0.029792
C41   C     C_R   0.110386 0.829009 0.104439 0.020555
C42   C     C_R   0.637472 0.878466 0.395518 0.020597
C43   C     C_R   0.613750 0.904856 0.551801 0.542746
C44   C     C_R   0.552627 0.799979 0.368417 -0.130057
C45   C     C_R   0.564958 0.787687 0.326721 -0.117253
C46   C     C_R   0.662204 0.852993 0.311859 0.038483
C47   C     C_R   0.749268 0.925943 0.338859 -0.114232
C48   C     C_R   0.737156 0.938548 0.380528 -0.124857
C49   C     C_R   0.778953 0.919883 0.174813 -0.115220
C50   C     C_R   0.793975 0.906945 0.133369 -0.128742
C51   C     C_R   0.618714 0.752458 0.121563 -0.125060
C52   C     C_R   0.603807 0.765765 0.162920 -0.114825
C53   C     C_R   0.685408 0.847198 0.189734 0.039841
C54   C     C_R   0.589912 0.199985 0.570787 0.541620
C55   C     C_1   0.676957 0.850171 0.232766 -0.033000
C56   C     C_1   0.670354 0.850856 0.268837 -0.033309
C57   C     C_R   0.715777 0.820391 0.106697 0.021837
C58   C     C_R   0.623957 0.253248 0.613393 0.010920
C59   C     C_R   0.555745 0.279369 0.636266 -0.119538
C60   C     C_R   0.574038 0.305633 0.678587 -0.112417
C61   C     C_R   0.660694 0.306480 0.698455 0.039869
C62   C     C_R   0.733732 0.288836 0.675782 -0.097724
C63   C     C_R   0.715869 0.263047 0.633368 -0.124589
C64   C     C_R   0.765774 0.349891 0.844745 -0.103605
C65   C     C_R   0.288961 0.886719 0.548433 0.545394
C66   C     C_R   0.773930 0.373947 0.887158 -0.127750
C67   C     C_R   0.595014 0.351903 0.884318 -0.128770
C68   C     C_R   0.587118 0.327884 0.841896 -0.115495
C69   C     C_R   0.673909 0.330590 0.822056 0.043089
C70   C     C_1   0.671675 0.321886 0.778514 0.000188
C71   C     C_1   0.668554 0.316037 0.742025 0.002550
C72   C     C_R   0.690506 0.380062 0.907253 0.020527
C73   C     C_R   0.063706 0.750455 0.907664 0.012349
C74   C     C_R   0.102812 0.849200 0.895970 -0.133575
C75   C     C_R   0.124520 0.861855 0.855740 -0.131752
C76   C     C_R   0.737984 0.450538 0.105769 0.021001
C77   C     C_R   0.105995 0.775760 0.826743 0.021211
C78   C     C_R   0.068790 0.676658 0.838521 0.013718
C79   C     C_R   0.049720 0.665104 0.879069 -0.123318
C80   C     C_R   0.193279 0.773660 0.761791 0.009034
C81   C     C_R   0.197305 0.782078 0.720536 -0.125350
C82   C     C_R   0.128234 0.808033 0.701183 -0.003787
C83   C     C_R   0.054516 0.826456 0.723449 0.002991
C84   C     C_R   0.049090 0.816072 0.764584 -0.108809
C85   C     C_R   0.117521 0.789284 0.783806 0.003433
C86   C     C_R   0.179835 0.921501 0.647804 -0.101413
C87   C     C_R   0.647839 0.427609 0.127716 -0.123628
C88   C     C_R   0.219961 0.941148 0.610013 -0.123631
C89   C     C_R   0.173716 0.758967 0.592100 -0.123452
C90   C     C_R   0.133495 0.739459 0.629804 -0.116822
C91   C     C_R   0.141127 0.821704 0.658403 0.031422
C92   C     C_R   0.222472 0.861145 0.582879 0.019762
C93   C     C_R   0.712178 0.707350 0.900966 0.004949
C94   C     C_R   0.623895 0.617371 0.879848 -0.127711
C95   C     C_R   0.602240 0.608495 0.837842 -0.119937
C96   C     C_R   0.668781 0.689134 0.816480 0.017386
C97   C     C_R   0.758040 0.778784 0.837412 0.000744
C98   C     C_R   0.650185 0.415143 0.168421 -0.119871
C99   C     C_R   0.779894 0.786594 0.879073 -0.121916
C100  C     C_R   0.576385 0.724727 0.763060 -0.106820
C101  C     C_R   0.570918 0.747306 0.723969 -0.101194
C102  C     C_R   0.630946 0.728985 0.694176 0.022250
C103  C     C_R   0.691498 0.681802 0.702929 -0.083604
C104  C     C_R   0.697903 0.659516 0.742288 0.004672
C105  C     C_R   0.642286 0.684016 0.772908 0.007427
C106  C     C_R   0.566247 0.706044 0.621142 -0.008027
C107  C     C_R   0.564748 0.751022 0.586819 -0.140182
C108  C     C_R   0.710100 0.918597 0.619130 -0.022941
Cr1   Cr    Cr6+3 0.424820 0.846020 0.489780 1.013413
Cr2   Cr    Cr6+3 0.657880 0.078580 0.505700 1.033615
Cr3   Cr    Cr6+3 0.417280 0.075360 0.504550 1.020868
Cr4   Cr    Cr6+3 0.903360 0.812540 0.006510 1.010370
Cr5   Cr    Cr6+3 0.914630 0.587050 0.006280 1.009987
Cr6   Cr    Cr6+3 0.673560 0.582680 0.008540 1.013801
H1    H     H_    0.577236 0.424274 0.114085 0.129850
H2    H     H_    0.793073 0.281485 0.429430 0.126115
H3    H     H_    0.184622 0.731143 0.102687 0.125163
H4    H     H_    0.191072 0.723680 0.301031 0.106636
H5    H     H_    0.234526 0.727655 0.372907 0.124075
H6    H     H_    0.246837 0.027169 0.402428 0.126107
H7    H     H_    0.094518 0.971111 0.191160 0.105753
H8    H     H_    0.044843 0.933751 0.117653 0.124180
H9    H     H_    0.898596 0.471316 0.108381 0.128722
H10   H     H_    0.203736 0.022061 0.330420 0.106279
H11   H     H_    0.825009 0.976391 0.327535 0.106835
H12   H     H_    0.804002 0.999453 0.400641 0.128754
H13   H     H_    0.530978 0.709431 0.174272 0.104445
H14   H     H_    0.556997 0.685236 0.101718 0.122235
H15   H     H_    0.497279 0.730718 0.305930 0.104969
H16   H     H_    0.848639 0.395327 0.903830 0.129095
H17   H     H_    0.853306 0.364163 0.368837 0.103409
H18   H     H_    0.833165 0.351672 0.829584 0.137273
H19   H     H_    0.484638 0.273349 0.621827 0.145833
H20   H     H_    0.515480 0.312599 0.824481 0.109380
H21   H     H_    0.529444 0.356053 0.898761 0.126481
H22   H     H_    0.517569 0.320039 0.695947 0.120140
H23   H     H_    0.112932 0.915554 0.917588 0.124449
H24   H     H_    0.016786 0.587844 0.887645 0.126858
H25   H     H_    0.103393 0.661998 0.637809 0.125393
H26   H     H_    0.794489 0.288326 0.297709 0.104636
H27   H     H_    0.256138 0.770757 0.703513 0.119592
H28   H     H_    0.152219 0.938071 0.846815 0.123231
H29   H     H_    0.990848 0.827755 0.781737 0.144743
H30   H     H_    0.186922 0.985800 0.669907 0.124204
H31   H     H_    0.256665 0.020502 0.603502 0.133932
H32   H     H_    0.173283 0.695665 0.571387 0.134708
H33   H     H_    0.571709 0.554200 0.895749 0.131875
H34   H     H_    0.849945 0.855652 0.894463 0.138462
H35   H     H_    0.764325 0.921604 0.680179 0.159259
H36   H     H_    0.523884 0.783745 0.717452 0.124312
H37   H     H_    0.533179 0.539335 0.822052 0.120845
H38   H     H_    0.737357 0.667080 0.679700 0.133153
H39   H     H_    0.506757 0.702516 0.561308 0.133300
H40   H     H_    0.580821 0.400443 0.185091 0.106097
H41   H     H_    0.675144 0.506958 0.319678 0.106686
H42   H     H_    0.687424 0.528857 0.247876 0.109658
H43   H     H_    0.552227 0.359073 0.350868 0.103896
O1    O     O_R   0.318160 0.824460 0.443680 -0.521159
O2    O     O_R   0.645130 0.163230 0.552140 -0.497256
O3    O     O_R   0.498360 0.178430 0.555780 -0.515475
O4    O     O_R   0.328690 0.978040 0.538950 -0.500823
O5    O     O_3   0.499990 0.999990 0.500010 -0.239550
O6    O     O_R   0.828710 0.851830 0.052170 -0.514522
O7    O     O_R   0.005980 0.823990 0.047210 -0.501683
O8    O     O_R   0.031900 0.688850 0.050170 -0.514352
O9    O     O_R   0.830940 0.518420 0.048680 -0.498331
O10   O     O_R   0.668160 0.499860 0.053480 -0.516699
O11   O     O_R   0.689170 0.693840 0.050110 -0.494645
O12   O     O_R   0.525040 0.857250 0.449830 -0.504237
O13   O     O_R   0.803860 0.812940 0.962540 -0.511829
O14   O     O_R   0.982950 0.787950 0.964120 -0.518088
O15   O     O_R   0.007050 0.649970 0.960540 -0.516373
O16   O     O_R   0.807910 0.482370 0.965590 -0.503720
O17   O     O_R   0.643310 0.460980 0.963840 -0.526721
O18   O     O_R   0.666140 0.657800 0.967020 -0.494833
O19   O     O_3   0.830520 0.660760 0.007110 -0.258942
O20   O     O_R   0.684760 0.998800 0.456360 -0.516218
O21   O     O_R   0.647540 0.166310 0.470260 -0.502264
O22   O     O_R   0.500960 0.181750 0.467450 -0.517722
O23   O     O_R   0.331100 0.981120 0.457080 -0.500781
O24   O     O_R   0.315560 0.821140 0.532010 -0.516340
O25   O     O_R   0.522630 0.854180 0.531710 -0.502665
O26   O     O_R   0.682160 0.995480 0.544690 -0.492642
H44   H     H_    0.492761 0.278659 0.411740 0.128222
H45   H     H_    0.901438 0.447439 0.179734 0.104516
H46   H     H_    0.234151 0.769522 0.176096 0.107427
H47   H     H_    0.869752 0.960138 0.122870 0.120728
H48   H     H_    0.842444 0.983295 0.195473 0.103980
H49   H     H_    0.474774 0.752824 0.378970 0.125953
H50   H     H_    0.801582 0.290191 0.690965 0.141449
H51   H     H_    0.770518 0.244940 0.616497 0.160525
C109  C     C_1   0.268941 0.751501 0.781074 0.202089
N1    N     N_1   0.329478 0.733707 0.796547 -0.312745
C110  C     C_1   0.983959 0.855426 0.704673 0.203452
N2    N     N_1   0.927930 0.879163 0.689530 -0.308671
C111  C     C_1   0.041714 0.584557 0.809139 0.218826
N3    N     N_1   0.019867 0.510793 0.785596 -0.286970
H52   H     H_    0.808190 0.311726 0.226183 0.104255
H53   H     H_    0.534863 0.745574 0.786447 0.151922
C112  C     C_1   0.766374 0.617335 0.751330 0.184014
N4    N     N_1   0.821283 0.583581 0.758619 -0.289118
C113  C     C_1   0.491425 0.596958 0.621429 0.194791
N5    N     N_1   0.431550 0.509532 0.621700 -0.300069
C114  C     C_1   0.826265 0.865466 0.816959 0.180824
N6    N     N_1   0.880551 0.934987 0.800580 -0.300607
C115  C     C_1   0.787411 0.027327 0.619826 0.229829
N7    N     N_1   0.850095 0.114354 0.620507 -0.303251

loop_
_geom_bond_atom_site_label_1
_geom_bond_atom_site_label_2
_ccdc_geom_bond_type
Cr1   O25   S    
C10   O17   A    
C65   C92   S    
C99   H34   S    
C98   H40   S    
C45   H15   S    
C101  C102  A    
C104  C112  S    
C73   C74   A    
C36   H8    S    
C95   C96   A    
Cr3   O4    S    
C21   C26   S    
C2    C12   A    
C90   H25   S    
Cr2   O5    S    
C86   H30   S    
Cr6   O10   S    
C62   H50   S    
C65   O24   A    
C77   C78   A    
C27   C33   A    
C12   C13   A    
C14   H52   S    
C28   C29   A    
C100  C105  A    
C80   C85   A    
C42   C44   A    
C83   C84   A    
C51   H14   S    
C36   C37   A    
C37   C38   A    
C18   C19   A    
Cr1   O5    S    
Cr5   O8    S    
C38   C39   S    
C13   H9    S    
C63   H51   S    
C55   C56   T    
Cr4   O14   S    
C106  C107  A    
Cr2   O21   S    
C15   C16   A    
C29   H10   S    
C101  H36   S    
C58   C63   A    
C34   C35   A    
C111  N3    T    
C23   C26   A    
C1    O12   A    
C34   H46   S    
C22   H44   S    
C8    O11   A    
C23   H2    S    
C1    O20   A    
C66   C72   A    
C88   C92   A    
C16   C17   A    
C115  N7    T    
C6    C41   S    
C4    C102  S    
C112  N4    T    
C23   C24   A    
C31   C33   A    
C70   C71   T    
C51   C57   A    
C103  C104  A    
C93   C99   A    
C87   H1    S    
C61   C62   A    
C87   C98   A    
C11   C93   S    
C10   O16   A    
C81   H27   S    
C110  N2    T    
C5    C43   S    
C6    O8    A    
C77   C85   S    
C59   C60   A    
Cr3   O22   S    
C80   C109  S    
C54   O3    A    
C36   C41   A    
C102  C103  A    
Cr3   O5    S    
C9    C73   S    
C50   H47   S    
C104  C105  A    
C97   C99   A    
C52   H13   S    
Cr1   O12   S    
C47   H11   S    
Cr5   O15   S    
C32   O1    A    
C53   C55   S    
C89   H32   S    
Cr4   O7    S    
C74   H23   S    
Cr4   O13   S    
C3    H35   S    
C113  N5    T    
C67   C68   A    
C64   H18   S    
C67   C72   A    
C84   C85   A    
C108  C115  S    
C74   C75   A    
Cr5   O9    S    
C78   C79   A    
C68   C69   A    
C42   C48   A    
C84   H29   S    
C58   C59   A    
C45   C46   A    
C4    C106  A    
C59   H19   S    
C81   C82   A    
C82   C91   S    
C51   C52   A    
C60   C61   A    
C43   O26   A    
C64   C66   A    
C67   H21   S    
Cr3   O3    S    
C31   H4    S    
C29   C30   A    
C75   H28   S    
C44   H49   S    
C106  C113  S    
C47   C48   A    
C13   C76   A    
C21   O22   A    
C88   H31   S    
C96   C97   A    
C62   C63   A    
C54   C58   S    
C17   C18   A    
C73   C79   A    
C30   C40   S    
C94   C95   A    
C93   C94   A    
C78   C111  S    
C64   C69   A    
C24   C25   A    
C89   C92   A    
C75   C77   A    
C76   C87   A    
C107  H39   S    
C103  H38   S    
Cr5   O19   S    
C37   H7    S    
C54   O2    A    
C21   O21   A    
Cr4   O19   S    
C7    O9    A    
C6    O7    A    
Cr2   O26   S    
C33   H5    S    
C20   H43   S    
C28   H6    S    
Cr3   O23   S    
Cr1   O1    S    
C35   H3    S    
C95   H37   S    
C97   C114  S    
C46   C56   S    
C3    C4    A    
C17   H41   S    
C39   C40   T    
C18   H42   S    
C52   C53   A    
C96   C105  S    
Cr5   O16   S    
C15   H26   S    
C5    C107  A    
Cr1   O24   S    
C16   C25   S    
Cr4   O6    S    
C7    O10   A    
C46   C47   A    
Cr6   O18   S    
C2    C19   S    
C34   C38   A    
C50   C57   A    
C14   C19   A    
C44   C45   A    
C94   H33   S    
C20   C22   A    
C80   C81   A    
C8    O6    A    
Cr6   O11   S    
C7    C76   S    
C20   C25   A    
C3    C108  A    
C43   O25   A    
C11   O18   A    
Cr2   O20   S    
C60   H22   S    
C86   C91   A    
C109  N1    T    
C83   C110  S    
C68   H20   S    
C24   H17   S    
C61   C71   S    
C90   C91   A    
C30   C31   A    
C49   H48   S    
C49   C53   A    
C12   H45   S    
Cr6   O19   S    
C100  C101  A    
C86   C88   A    
C69   C70   S    
C35   C41   A    
C9    O14   A    
C27   C32   S    
C48   H12   S    
C100  H53   S    
C1    C42   S    
Cr6   O17   S    
C79   H24   S    
C114  N6    T    
C2    C98   A    
C11   O13   A    
C49   C50   A    
C22   C26   A    
C65   O4    A    
C27   C28   A    
C14   C15   A    
C32   O23   A    
C9    O15   A    
C82   C83   A    
C89   C90   A    
C8    C57   S    
Cr2   O2    S    
C66   H16   S    
C5    C108  A    
C10   C72   S    
