data_mof_unit_14244.cif
_audit_creation_date              2012-12-11T15:43:57-0500
_audit_creation_method            fapswitch 2.2
_symmetry_space_group_name_H-M    P1
_symmetry_Int_Tables_number       1
_space_group_crystal_system       triclinic
_cell_length_a                    14.570958
_cell_length_b                    16.239146
_cell_length_c                    6.942838
_cell_angle_alpha                 90.097654
_cell_angle_beta                  98.969955
_cell_angle_gamma                 89.973994
_cell_volume                      1622.72012299

loop_
_atom_site_label
_atom_site_type_symbol
_atom_type_description
_atom_site_fract_x
_atom_site_fract_y
_atom_site_fract_z
_atom_type_partial_charge
O1    O     O_R   0.831700 0.662810 0.581550 -0.551393
O2    O     O_R   0.168300 0.337190 0.418450 -0.550034
O3    O     O_R   0.168300 0.162810 0.418450 -0.548972
O4    O     O_R   0.831700 0.837190 0.581550 -0.552931
O5    O     O_R   0.842890 0.834390 0.255500 -0.520104
O6    O     O_R   0.157110 0.165610 0.744500 -0.517851
O7    O     O_R   0.157110 0.334390 0.744500 -0.521194
O8    O     O_R   0.842890 0.665610 0.255500 -0.518447
O9    O     O_R   0.661690 0.835580 0.024130 -0.503429
O10   O     O_R   0.338310 0.164420 0.975870 -0.502384
O11   O     O_R   0.338310 0.335580 0.975870 -0.503891
O12   O     O_R   0.661690 0.664420 0.024130 -0.503076
C1    C     C_R   0.864647 0.865219 0.430556 0.710960
C2    C     C_R   0.132842 0.136790 0.567874 0.732143
C3    C     C_R   0.135730 0.365473 0.569442 0.720677
C4    C     C_R   0.867220 0.636793 0.431958 0.715715
C5    C     C_R   0.060479 0.070109 0.532849 -0.245526
C6    C     C_R   0.931210 0.936562 0.461447 -0.249103
C7    C     C_R   0.939812 0.570215 0.466620 -0.247262
C8    C     C_R   0.069638 0.437123 0.537624 -0.241421
H1    H     H_    0.060792 0.064949 0.223195 0.216557
H2    H     H_    0.935597 0.938380 0.771677 0.217686
H3    H     H_    0.941404 0.566622 0.776898 0.214322
H4    H     H_    0.066906 0.439877 0.227116 0.215705
C9    C     C_R   0.963011 0.977975 0.305412 0.501877
C10   C     C_R   0.017037 0.037566 0.684154 0.502121
C11   C     C_R   0.039029 0.479453 0.693709 0.492397
C12   C     C_R   0.983223 0.537618 0.314989 0.487744
O13   O     O_3   0.687240 0.750000 0.366320 -0.346327
O14   O     O_3   0.312760 0.250000 0.633680 -0.354275
V1    V     V_3+5 0.757720 0.750000 0.115230 1.539801
V2    V     V_3+5 0.242280 0.250000 0.884770 1.536726
O15   O     O_R   0.650500 0.664000 0.690740 -0.544136
O16   O     O_R   0.349500 0.336000 0.309260 -0.552228
O17   O     O_R   0.349500 0.164000 0.309260 -0.547673
O18   O     O_R   0.650500 0.836000 0.690740 -0.543853
C13   C     C_R   0.629407 0.635475 0.854254 0.769962
C14   C     C_R   0.372303 0.363285 0.146123 0.748985
C15   C     C_R   0.371791 0.136488 0.145858 0.773776
C16   C     C_R   0.629640 0.864914 0.855111 0.761070
C17   C     C_R   0.031994 0.039182 0.343591 -0.291490
C18   C     C_R   0.960074 0.967390 0.650302 -0.300998
C19   C     C_R   0.969447 0.540196 0.656129 -0.300562
C20   C     C_R   0.041026 0.467919 0.348613 -0.297449
V3    V     V_3+5 0.735670 0.750000 0.607790 1.479010
V4    V     V_3+5 0.264330 0.250000 0.392210 1.459605
O19   O     O_3   0.806150 0.750000 0.906560 -0.378659
O20   O     O_3   0.193850 0.250000 0.093440 -0.375877
C21   C     C_2   0.565023 0.935850 0.853407 -0.413698
C22   C     C_2   0.438147 0.067334 0.152142 -0.401450
C23   C     C_2   0.442386 0.429806 0.153308 -0.423248
C24   C     C_2   0.562659 0.566476 0.848179 -0.409537
C25   C     C_2   0.549602 0.975913 0.018831 0.392729
C26   C     C_2   0.485645 0.048872 0.003781 0.388903
C27   C     C_2   0.477626 0.456352 0.993595 0.378350
C28   C     C_2   0.546529 0.525113 0.010334 0.386718
H5    H     H_    0.446906 0.029647 0.282596 0.135650
H6    H     H_    0.531855 0.957879 0.711860 0.141658
H7    H     H_    0.526980 0.548072 0.705454 0.148075
H8    H     H_    0.466102 0.457580 0.294763 0.149845
O21   O     O_3   0.927044 0.960453 0.114136 -0.540011
C29   C     C_3   0.841500 0.002542 0.066692 -0.225310
H9    H     H_    0.846619 0.068692 0.109868 0.101055
H10   H     H_    0.786612 0.972264 0.134096 0.145804
H11   H     H_    0.818406 0.999693 0.907071 0.127860
O22   O     O_3   0.028579 0.073854 0.865943 -0.540162
C30   C     C_3   0.967078 0.141648 0.858516 -0.197623
H12   H     H_    0.970390 0.167378 0.007504 0.141267
H13   H     H_    0.893861 0.123346 0.805908 0.097112
H14   H     H_    0.986839 0.191751 0.764169 0.116663
O23   O     O_3   0.078033 0.463951 0.884102 -0.545995
C31   C     C_3   0.163587 0.506666 0.923098 -0.196658
H15   H     H_    0.154761 0.573693 0.892451 0.111539
H16   H     H_    0.215761 0.481343 0.838056 0.135305
H17   H     H_    0.192569 0.499405 0.079570 0.134263
O24   O     O_3   0.971613 0.573998 0.133638 -0.546481
C32   C     C_3   0.033294 0.641636 0.141924 -0.181845
H18   H     H_    0.029261 0.668133 0.993738 0.141500
H19   H     H_    0.106548 0.622800 0.192200 0.109726
H20   H     H_    0.014310 0.691349 0.238673 0.120352
O25   O     O_3   0.471770 0.095121 0.833689 -0.536178
C33   C     C_3   0.554075 0.138543 0.817797 -0.280942
H21   H     H_    0.539853 0.180851 0.691451 0.154050
H22   H     H_    0.610689 0.096460 0.789745 0.108865
H23   H     H_    0.577522 0.176363 0.950274 0.108013
O26   O     O_3   0.588773 0.946089 0.201503 -0.534368
C34   C     C_3   0.639737 0.008298 0.314731 -0.277511
H24   H     H_    0.666707 0.057402 0.226389 0.087252
H25   H     H_    0.700345 0.979287 0.406056 0.148066
H26   H     H_    0.597443 0.036513 0.416884 0.140918
O27   O     O_3   0.590348 0.548538 0.194165 -0.541142
C35   C     C_3   0.665531 0.494666 0.251973 -0.234340
H27   H     H_    0.717421 0.498060 0.150267 0.128810
H28   H     H_    0.641698 0.430052 0.263935 0.098346
H29   H     H_    0.700939 0.513788 0.398337 0.152116
O28   O     O_3   0.447458 0.422229 0.811402 -0.545533
C36   C     C_3   0.515924 0.366802 0.767874 -0.227666
H30   H     H_    0.530633 0.318517 0.881972 0.115668
H31   H     H_    0.581171 0.399266 0.749521 0.098914
H32   H     H_    0.489731 0.335594 0.627981 0.168003

loop_
_geom_bond_atom_site_label_1
_geom_bond_atom_site_label_2
_ccdc_geom_bond_type
O6    V2    S    
C34   H24   S    
O15   V3    S    
C27   C28   S    
C36   H30   S    
C32   H18   S    
O2    V4    S    
C22   C26   D    
C1    C6    S    
C5    C10   A    
O8    V1    S    
C6    C18   A    
C16   C21   S    
O12   C13   A    
H3    C19   S    
O4    C1    A    
C29   H10   S    
C8    C20   A    
C28   O27   S    
C25   O26   S    
O16   V4    S    
O5    C1    A    
C32   H19   S    
O22   C30   S    
O8    C4    A    
V1    O19   S    
V2    O20   S    
C2    C5    S    
C6    C9    A    
C31   H17   S    
C36   H31   S    
C7    C19   A    
O25   C33   S    
O4    V3    S    
V3    O19   S    
C3    C8    S    
V4    O20   S    
C30   H12   S    
C10   O22   S    
O18   C16   A    
O24   C32   S    
C31   H16   S    
C9    C17   A    
O27   C35   S    
C13   C24   S    
O26   C34   S    
C31   H15   S    
C14   C23   S    
C25   C26   S    
C12   C20   A    
C35   H29   S    
O15   C13   A    
C21   H6    S    
O13   V3    S    
O10   C15   A    
C30   H13   S    
O11   C14   A    
O17   C15   A    
C29   H9    S    
O2    C3    A    
C24   H7    S    
O10   V2    S    
O6    C2    A    
O28   C36   S    
C35   H28   S    
O18   V3    S    
O1    C4    A    
C9    O21   S    
C7    C12   A    
O3    C2    A    
H1    C17   S    
O11   V2    S    
C33   H22   S    
C34   H25   S    
O12   V1    S    
H4    C20   S    
C12   O24   S    
C36   H32   S    
C11   O23   S    
C10   C18   A    
C32   H20   S    
O7    V2    S    
C29   H11   S    
O16   C14   A    
C22   H5    S    
O14   V4    S    
C27   O28   S    
C8    C11   A    
C33   H23   S    
O3    V4    S    
C30   H14   S    
O23   C31   S    
O13   V1    S    
O14   V2    S    
O1    V3    S    
H2    C18   S    
C4    C7    S    
C21   C25   D    
O7    C3    A    
C35   H27   S    
C23   C27   D    
O9    C16   A    
O21   C29   S    
C5    C17   A    
O9    V1    S    
C11   C19   A    
C15   C22   S    
C33   H21   S    
C34   H26   S    
C23   H8    S    
O17   V4    S    
C26   O25   S    
C24   C28   D    
O5    V1    S    
