data_mof_unit_61562.cif
_audit_creation_date              2013-03-05T16:14:04-0500
_audit_creation_method            fapswitch 2.2
_symmetry_space_group_name_H-M    P1
_symmetry_Int_Tables_number       1
_space_group_crystal_system       triclinic
_cell_length_a                    27.859808
_cell_length_b                    14.659981
_cell_length_c                    15.904278
_cell_angle_alpha                 90.061747
_cell_angle_beta                  90.000509
_cell_angle_gamma                 90.326504
_cell_volume                      6495.58366641

loop_
_atom_site_label
_atom_site_type_symbol
_atom_site_description
_atom_site_fract_x
_atom_site_fract_y
_atom_site_fract_z
_atom_type_partial_charge
O1    O     O_R   0.500050 0.424030 0.620640 -0.547287
O2    O     O_R   0.500050 0.575970 0.620640 -0.567383
C1    C     C_R   0.500055 0.500042 0.660183 0.824649
O3    O     O_R   0.569790 0.424080 0.500060 -0.541544
O4    O     O_R   0.569790 0.575920 0.500060 -0.562416
C2    C     C_R   0.592933 0.500306 0.499808 0.862290
Cu1   Cu    Cu3+1 0.500060 0.410080 0.500090 1.078092
Cu2   Cu    Cu3+1 0.500060 0.589920 0.500090 1.059046
O5    O     O_R   0.500050 0.424100 0.379510 -0.568264
O6    O     O_R   0.500050 0.575900 0.379510 -0.553203
O7    O     O_R   0.430320 0.424060 0.500090 -0.554469
O8    O     O_R   0.430320 0.575940 0.500090 -0.574432
C3    C     C_R   0.500118 0.499957 0.339915 0.825647
C4    C     C_R   0.407248 0.499857 0.498467 0.840632
C5    C     C_R   0.823380 0.491337 0.576115 0.579754
O9    O     O_2   0.798137 0.481971 0.647811 -0.474243
N1    N     N_R   0.799308 0.506196 0.502184 -0.455813
C6    C     C_R   0.823706 0.523547 0.429166 0.562066
C7    C     C_R   0.721860 0.577684 0.467943 -0.103817
C8    C     C_R   0.671845 0.575997 0.464709 0.109733
C9    C     C_R   0.672287 0.428073 0.535289 0.217851
C10   C     C_R   0.722362 0.429473 0.533872 -0.102739
C11   C     C_R   0.747500 0.504410 0.501351 0.234103
C12   C     C_R   0.899369 0.514406 0.504169 -0.074168
C13   C     C_R   0.874073 0.489233 0.577827 -0.093387
C14   C     C_R   0.900597 0.461404 0.649113 0.217974
C15   C     C_R   0.873815 0.531369 0.429490 -0.015047
C16   C     C_R   0.646075 0.501317 0.499752 -0.171835
H1    H     H_    0.741952 0.372279 0.559516 0.196017
C17   C     C_R   0.354238 0.501305 0.499401 -0.186146
C18   C     C_R   0.026077 0.520099 0.583283 0.002336
C19   C     C_R   0.026399 0.541790 0.429257 0.054964
C20   C     C_R   0.051444 0.530375 0.506374 0.058748
C21   C     C_R   0.052589 0.525386 0.659828 0.127228
C22   C     C_R   0.102495 0.519776 0.658538 -0.131410
C23   C     C_R   0.127622 0.519041 0.582575 -0.070807
C24   C     C_R   0.102370 0.529391 0.506632 -0.044260
C25   C     C_R   0.128158 0.538586 0.430974 -0.022264
C26   C     C_R   0.178473 0.535781 0.432576 0.617290
N2    N     N_R   0.202179 0.520768 0.506582 -0.446962
C27   C     C_R   0.177873 0.512509 0.580949 0.625034
C28   C     C_R   0.282069 0.585541 0.535251 0.191984
C29   C     C_R   0.331776 0.578573 0.533331 -0.243867
C30   C     C_R   0.325695 0.429614 0.466155 0.112762
C31   C     C_R   0.275305 0.434557 0.472305 0.256533
C32   C     C_R   0.253553 0.513148 0.505781 0.184542
O10   O     O_2   0.202281 0.497867 0.652957 -0.494389
C33   C     C_R   0.975695 0.505798 0.580239 0.010753
C34   C     C_R   0.950283 0.521632 0.504719 0.079103
C35   C     C_R   0.975381 0.542688 0.429413 0.054581
C36   C     C_R   0.950483 0.467616 0.648204 -0.190061
H2    H     H_    0.352980 0.634759 0.557929 0.208429
H3    H     H_    0.121799 0.520984 0.717666 0.212891
H4    H     H_    0.969592 0.437538 0.700104 0.189772
O11   O     O_2   0.799535 0.532829 0.356121 -0.504899
C37   C     C_R   0.898651 0.555608 0.356452 -0.113045
H5    H     H_    0.741069 0.636092 0.442984 0.188043
H6    H     H_    0.879686 0.570398 0.298613 0.201050
C38   C     C_R   0.053479 0.550799 0.354382 -0.180361
C39   C     C_R   0.103319 0.549624 0.355470 -0.106664
O12   O     O_2   0.203589 0.547251 0.360723 -0.493442
C40   C     C_R   0.948370 0.561717 0.356353 -0.185563
H7    H     H_    0.037318 0.556729 0.293152 0.152862
H8    H     H_    0.122340 0.556312 0.296341 0.199430
H9    H     H_    0.964459 0.582718 0.297898 0.153557
C41   C     C_3   0.472849 0.420012 0.952691 0.064891
C42   C     C_3   0.480061 0.587979 0.952041 0.063572
C43   C     C_3   0.477716 0.583983 0.049336 -0.419268
C44   C     C_3   0.480494 0.411930 0.048621 -0.439657
H10   H     H_    0.445062 0.401497 0.079698 0.201312
H11   H     H_    0.439448 0.578876 0.069178 0.183473
H12   H     H_    0.434461 0.438042 0.942902 0.154645
H13   H     H_    0.442401 0.589405 0.928512 0.151534
H14   H     H_    0.491514 0.648308 0.077523 0.261012
H15   H     H_    0.502489 0.350932 0.062974 0.255813
C45   C     C_1   0.501390 0.499856 0.250512 -0.078732
C46   C     C_3   0.504816 0.499864 0.916817 -0.032830
C47   C     C_3   0.505437 0.499628 0.083020 0.016161
C48   C     C_3   0.558769 0.502924 0.050491 0.387233
C49   C     C_3   0.558591 0.492251 0.950185 0.241576
C50   C     C_1   0.503030 0.499729 0.175172 0.078667
C51   C     C_1   0.502541 0.500070 0.824843 0.076896
C52   C     C_1   0.501095 0.500128 0.749525 -0.064719
C53   C     C_3   0.489681 0.946547 0.409924 0.103873
C54   C     C_3   0.482486 0.052631 0.412095 0.080240
C55   C     C_3   0.545570 0.947589 0.531653 -0.464650
C56   C     C_3   0.547440 0.053357 0.519258 -0.446075
H16   H     H_    0.508060 0.082404 0.365636 0.133970
H17   H     H_    0.524313 0.935130 0.376507 0.138374
H18   H     H_    0.551600 0.931115 0.598978 0.240608
H19   H     H_    0.564484 0.086216 0.574690 0.244484
H20   H     H_    0.575697 0.916040 0.496240 0.211021
H21   H     H_    0.571764 0.069505 0.465684 0.201008
N3    N     N_1   0.499020 0.275030 0.498610 -0.123455
N4    N     N_1   0.499020 0.724970 0.498610 -0.128451
C57   C     C_3   0.496499 0.907595 0.501085 -0.062694
C58   C     C_3   0.496222 0.092114 0.500916 -0.074603
C59   C     C_3   0.461401 0.054258 0.571932 0.237533
C60   C     C_3   0.456555 0.944808 0.563229 0.210113
C61   C     C_1   0.497999 0.195202 0.499164 0.268422
C62   C     C_1   0.498246 0.804698 0.499434 0.276046
Br1   Br    Br    0.643003 0.325614 0.591407 -0.413655
I1    I     I_    0.356629 0.319742 0.396777 -0.094947
Br2   Br    Br    0.235202 0.334459 0.435560 -0.343807
Br3   Br    Br    0.504597 0.705395 0.912687 -0.347674
Br4   Br    Br    0.474753 0.301345 0.896548 -0.360884
I2    I     I_    0.591826 0.366989 0.904679 -0.052562
I3    I     I_    0.608169 0.583884 0.884951 -0.065027
Br5   Br    Br    0.597148 0.410021 0.108999 -0.368931
Br6   Br    Br    0.589091 0.616919 0.090011 -0.324552
I4    I     I_    0.385903 0.896949 0.523740 -0.094338
I5    I     I_    0.393482 0.127018 0.578532 -0.080520
I6    I     I_    0.460574 0.871813 0.682806 -0.164917
I7    I     I_    0.489218 0.101417 0.693562 -0.132015
Br7   Br    Br    0.446678 0.877869 0.334884 -0.339852
Br8   Br    Br    0.420666 0.093267 0.368482 -0.310745
I8    I     I_    0.871494 0.399266 0.759318 -0.128926
I9    I     I_    0.251897 0.708671 0.580680 -0.166781
I10   I     I_    0.024444 0.568923 0.778306 -0.251974
I11   I     I_    0.640166 0.687688 0.399675 -0.220792

loop_
_geom_bond_atom_site_label_1
_geom_bond_atom_site_label_2
_geom_bond_distance
_ccdc_geom_bond_type
C47   C48   1.573822 S    
C10   H1    1.083136 S    
C56   H19   1.109613 S    
C22   H3    1.083373 S    
C7    C8    1.394415 A    
C42   C46   1.570592 S    
C14   I8    2.134083 S    
C58   C59   1.587452 S    
C23   C27   1.404026 A    
Cu1   Cu2   2.636450 S    
C31   C32   1.408818 A    
C7    H5    1.082902 S    
Cu1   O7    1.954886 S    
C49   I2    2.183990 S    
N1    C11   1.443509 S    
C23   C24   1.406555 A    
C4    C17   1.477199 S    
C28   C32   1.402318 A    
O4    C2    1.285549 A    
O7    C4    1.287148 A    
C29   H2    1.083627 S    
C59   I7    2.193532 S    
C41   C44   1.545263 S    
C43   H14   1.110372 S    
C5    O9    1.346441 S    
C59   C60   1.615230 S    
C57   C60   1.587015 S    
C12   C34   1.421831 A    
Cu1   O5    1.928942 S    
C21   C22   1.393438 A    
C53   C57   1.570747 S    
C41   C46   1.574384 S    
O5    C3    1.278571 A    
C33   C36   1.404258 A    
C41   H12   1.114090 S    
C22   C23   1.396359 A    
C18   C20   1.420397 A    
C42   H13   1.114248 S    
C48   Br6   1.970552 S    
C38   C39   1.388832 A    
C57   C62   1.509732 S    
C17   C30   1.416259 A    
C44   C47   1.556732 S    
Cu2   N4    1.980373 S    
C41   Br4   1.955549 S    
O3    Cu1   1.952313 S    
C30   I1    2.136988 S    
C43   C47   1.557270 S    
C26   O12   1.350147 S    
C2    C16   1.480530 S    
C59   I5    2.179899 S    
C48   Br5   1.970612 S    
C42   C43   1.549947 S    
C12   C13   1.415345 A    
O3    C2    1.286960 A    
C55   H18   1.110892 S    
C26   N2    1.368295 A    
C15   C37   1.397314 A    
C28   I9    2.121661 S    
C8    C16   1.420216 A    
C13   C14   1.415030 A    
C20   C24   1.418934 A    
O1    C1    1.278957 A    
C7    C11   1.398739 A    
C24   C25   1.407662 A    
C31   Br2   1.929409 S    
C3    C45   1.422322 S    
N3    C61   1.170506 T    
Cu2   O8    1.952563 S    
C12   C15   1.407827 A    
C60   I4    2.178157 S    
N1    C6    1.368942 A    
C27   O10   1.349909 S    
C18   C21   1.425733 A    
C53   C54   1.569537 S    
C19   C35   1.421493 A    
C55   C57   1.561845 S    
C6    O11   1.350174 S    
C25   C39   1.395988 A    
C9    Br1   1.925433 S    
N2    C27   1.368031 A    
C9    C16   1.419832 A    
O8    C4    1.284390 A    
C34   C35   1.420220 A    
C53   Br7   1.963907 S    
C18   C33   1.418841 A    
C1    C52   1.421217 S    
C35   C40   1.413278 A    
C37   C40   1.387565 A    
C17   C29   1.404526 A    
C53   H17   1.114938 S    
N2    C32   1.436298 S    
C8    I11   2.133052 S    
C58   C61   1.512081 S    
C30   C31   1.409535 A    
C55   C56   1.563823 S    
C54   H16   1.114124 S    
C21   I10   2.139144 S    
C5    N1    1.371839 A    
Cu1   N3    1.979992 S    
C33   C34   1.414283 A    
C40   H9    1.076605 S    
O1    Cu1   1.927918 S    
C54   Br8   1.953172 S    
O2    Cu2   1.928356 S    
C6    C15   1.400075 A    
O6    C3    1.278499 A    
C45   C50   1.199109 T    
C60   I6    2.186378 S    
O4    Cu2   1.954639 S    
C49   I3    2.184196 S    
C38   H7    1.076664 S    
C39   H8    1.083704 S    
C36   H4    1.078248 S    
C19   C20   1.421580 A    
O2    C1    1.279073 A    
C55   H20   1.113319 S    
C14   C36   1.392359 A    
C46   C49   1.593917 S    
C47   C50   1.467140 S    
C25   C26   1.402816 A    
C46   C51   1.464146 S    
C43   H11   1.113998 S    
C56   H21   1.113503 S    
C37   H6    1.083553 S    
C44   H15   1.110835 S    
C44   H10   1.113786 S    
C54   C58   1.572487 S    
C48   C49   1.602785 S    
C42   Br3   1.952146 S    
C5    C13   1.413078 A    
Cu2   O6    1.928501 S    
C51   C52   1.198565 T    
C28   C29   1.389499 A    
C10   C11   1.399056 A    
C19   C38   1.415605 A    
C9    C10   1.395280 A    
N4    C62   1.169197 T    
C56   C58   1.566406 S    
