data_mof_unit_49838.cif
_audit_creation_date              2012-12-11T15:26:54-0500
_audit_creation_method            fapswitch 2.2
_symmetry_space_group_name_H-M    P1
_symmetry_Int_Tables_number       1
_space_group_crystal_system       triclinic
_cell_length_a                    14.060645
_cell_length_b                    14.085227
_cell_length_c                    27.34519
_cell_angle_alpha                 89.93157
_cell_angle_beta                  90.034485
_cell_angle_gamma                 119.994714
_cell_volume                      4690.33099197

loop_
_atom_site_label
_atom_site_type_symbol
_atom_type_description
_atom_site_fract_x
_atom_site_fract_y
_atom_site_fract_z
_atom_type_partial_charge
C1    C     C_R   0.259799 0.766206 0.573832 0.512661
C2    C     C_1   0.719786 0.886370 0.857532 0.066077
C3    C     C_1   0.112895 0.835287 0.856788 0.066622
C4    C     C_1   0.167416 0.283113 0.857673 0.069722
C5    C     C_1   0.566092 0.802279 0.665226 0.051121
C6    C     C_1   0.200361 0.759181 0.665801 0.055328
C7    C     C_1   0.241144 0.444038 0.666095 0.052117
C8    C     C_1   0.538907 0.770290 0.623937 0.083930
C9    C     C_1   0.232151 0.765060 0.624319 0.084886
C10   C     C_1   0.235238 0.468882 0.624422 0.083300
C11   C     C_R   0.105284 0.216089 0.947919 0.574641
C12   C     C_R   0.234050 0.494236 0.573774 0.513800
C13   C     C_R   0.783850 0.889239 0.948010 0.574806
C14   C     C_R   0.110574 0.895212 0.947700 0.576030
C15   C     C_R   0.614211 0.807078 0.385808 0.030453
C16   C     C_R   0.192739 0.807171 0.385846 0.030404
C17   C     C_R   0.192832 0.385970 0.385787 0.030435
C18   C     C_R   0.608545 0.891023 0.360545 -0.120184
C19   C     C_R   0.108514 0.717676 0.360676 -0.120349
C20   C     C_R   0.282438 0.391132 0.360663 -0.120277
C21   C     C_R   0.636963 0.909640 0.311564 -0.121452
C22   C     C_R   0.089859 0.727500 0.311697 -0.121523
C23   C     C_R   0.508741 0.741406 0.573931 0.509843
C24   C     C_R   0.272680 0.362689 0.311697 -0.121418
C25   C     C_R   0.673767 0.846329 0.287473 0.035152
C26   C     C_R   0.153402 0.827525 0.287522 0.035157
C27   C     C_R   0.172615 0.326406 0.287471 0.035097
C28   C     C_R   0.233389 0.787450 0.431715 0.557857
C29   C     C_R   0.212534 0.446036 0.431689 0.558368
C30   C     C_R   0.553990 0.766537 0.431708 0.557970
C31   C     C_R   0.690700 0.770653 0.314023 -0.118950
C32   C     C_R   0.229296 0.920037 0.313991 -0.119046
C33   C     C_R   0.079993 0.310076 0.313884 -0.118997
C34   C     C_3   0.715165 0.801597 0.781171 -0.289071
C35   C     C_R   0.660415 0.750590 0.362946 -0.117953
C36   C     C_R   0.249404 0.909791 0.362911 -0.118065
C37   C     C_R   0.090170 0.340352 0.362788 -0.117938
C38   C     C_R   0.655529 0.759960 0.206233 -0.119652
C39   C     C_R   0.240078 0.895572 0.206243 -0.119638
C40   C     C_R   0.104801 0.344834 0.206055 -0.119574
C41   C     C_R   0.676757 0.768584 0.156362 -0.125435
C42   C     C_R   0.231538 0.908138 0.156356 -0.125494
C43   C     C_R   0.092206 0.323521 0.156199 -0.125361
C44   C     C_R   0.753563 0.965672 0.161356 -0.123559
C45   C     C_3   0.198022 0.912886 0.779750 -0.290472
C46   C     C_R   0.034066 0.787933 0.161410 -0.123551
C47   C     C_R   0.211938 0.245837 0.161535 -0.123591
C48   C     C_R   0.734376 0.957307 0.211310 -0.120444
C49   C     C_R   0.042346 0.777164 0.211380 -0.120489
C50   C     C_R   0.222775 0.265152 0.211483 -0.120383
C51   C     C_R   0.688269 0.854774 0.234316 0.034902
C52   C     C_R   0.145031 0.833568 0.234360 0.034915
C53   C     C_R   0.166614 0.311765 0.234314 0.034834
C54   C     C_R   0.729358 0.871909 0.134079 0.026825
C55   C     C_R   0.128066 0.857433 0.134093 0.026800
C56   C     C_3   0.089123 0.293211 0.781486 -0.303753
C57   C     C_R   0.142676 0.270492 0.134086 0.026811
C58   C     C_R   0.106190 0.220856 0.086103 0.556320
C59   C     C_R   0.779168 0.885260 0.086108 0.556148
C60   C     C_R   0.114806 0.893886 0.086094 0.556567
C61   C     C_3   0.513528 0.804819 0.751880 -0.249979
C62   C     C_3   0.195874 0.706394 0.753400 -0.249895
C63   C     C_3   0.297626 0.493618 0.753430 -0.247453
C64   C     C_3   0.689967 0.965139 0.721025 0.150493
C65   C     C_3   0.036304 0.722811 0.720702 0.147464
C66   C     C_3   0.276080 0.316496 0.721123 0.147653
C67   C     C_3   0.672699 0.776938 0.727920 0.081335
C68   C     C_3   0.738249 0.989001 0.775404 0.168391
C69   C     C_3   0.011084 0.748334 0.774572 0.161454
C70   C     C_3   0.250716 0.266015 0.775051 0.167856
C71   C     C_1   0.745377 0.883645 0.899261 0.090485
C72   C     C_1   0.115771 0.863446 0.898600 0.090246
C73   C     C_1   0.138621 0.255903 0.899277 0.089225
C74   C     C_3   0.609435 0.838531 0.715059 -0.072783
C75   C     C_3   0.163596 0.767651 0.715445 -0.067126
C76   C     C_3   0.233373 0.400064 0.715972 -0.069199
C77   C     C_3   0.555542 0.823306 0.805548 0.139921
C78   C     C_3   0.227744 0.892462 0.727876 0.083481
C79   C     C_3   0.176617 0.732612 0.806508 0.141346
C80   C     C_3   0.271712 0.449328 0.806813 0.141581
C81   C     C_3   0.682831 0.879759 0.806644 -0.065677
C82   C     C_3   0.119962 0.803432 0.806144 -0.067025
C83   C     C_3   0.198771 0.322195 0.807006 -0.059986
C84   C     C_3   0.108719 0.340884 0.729077 0.048192
Cr1   Cr    Cr6+3 0.164410 0.584450 0.499910 1.080922
Cr2   Cr    Cr6+3 0.415550 0.579960 0.499910 1.078986
Cr3   Cr    Cr6+3 0.420040 0.835590 0.499910 1.081101
Cr4   Cr    Cr6+3 0.156760 0.076070 0.017830 1.067557
Cr5   Cr    Cr6+3 0.923930 0.080690 0.017830 1.066830
Cr6   Cr    Cr6+3 0.919310 0.843240 0.017830 1.067651
H1    H     H_    0.524780 0.740659 0.821154 0.195076
H2    H     H_    0.616200 0.679528 0.223027 0.106543
H3    H     H_    0.320629 0.936651 0.223023 0.106506
H4    H     H_    0.063895 0.384520 0.222702 0.106579
H5    H     H_    0.623270 0.968563 0.291937 0.103425
H6    H     H_    0.030754 0.654962 0.292134 0.103421
H7    H     H_    0.345306 0.375911 0.292183 0.103443
H8    H     H_    0.760424 0.031597 0.232177 0.104823
H9    H     H_    0.967878 0.728976 0.232273 0.104707
H10   H     H_    0.270807 0.238834 0.232483 0.104767
H11   H     H_    0.795123 0.046501 0.144898 0.132572
H12   H     H_    0.259085 0.785568 0.822095 0.194800
H13   H     H_    0.953120 0.748685 0.144964 0.132526
H14   H     H_    0.250963 0.203906 0.145213 0.132385
H15   H     H_    0.722871 0.723719 0.296429 0.105178
H16   H     H_    0.276398 0.999075 0.296330 0.105154
H17   H     H_    0.000909 0.278333 0.296197 0.105198
H18   H     H_    0.667201 0.686698 0.381931 0.140136
H19   H     H_    0.313498 0.980383 0.381830 0.140207
H20   H     H_    0.019491 0.333984 0.381653 0.140327
H21   H     H_    0.759642 0.985886 0.696323 0.225871
H22   H     H_    0.015731 0.771556 0.695554 0.182653
H23   H     H_    0.220467 0.480898 0.822464 0.194678
H24   H     H_    0.225460 0.248509 0.696156 0.168743
H25   H     H_    0.612642 0.687513 0.725944 0.188801
H26   H     H_    0.316377 0.917640 0.728873 0.194798
H27   H     H_    0.084477 0.404818 0.729386 0.200797
H28   H     H_    0.681334 0.723638 0.801689 0.173420
H29   H     H_    0.274459 0.960272 0.801189 0.172643
H30   H     H_    0.044516 0.325146 0.802903 0.183525
H31   H     H_    0.440213 0.000060 0.837387 0.380254
H32   H     H_    0.998142 0.442890 0.841189 0.380781
H33   H     H_    0.562403 0.557778 0.839766 0.381337
H34   H     H_    0.805441 0.837008 0.783311 0.207385
H35   H     H_    0.452206 0.717237 0.746757 0.073023
H36   H     H_    0.283776 0.732036 0.748933 0.075579
H37   H     H_    0.274555 0.557537 0.748824 0.072381
H38   H     H_    0.657272 0.695442 0.135726 0.128353
H39   H     H_    0.304855 0.961753 0.135684 0.128228
H40   H     H_    0.038758 0.343332 0.135432 0.128290
H41   H     H_    0.469948 0.849857 0.743807 0.227090
H42   H     H_    0.150437 0.617628 0.746154 0.227347
H43   H     H_    0.386294 0.534012 0.745671 0.227959
H44   H     H_    0.519575 0.100074 0.715466 0.418754
H45   H     H_    0.159468 0.964974 0.779042 0.207153
H46   H     H_    0.899722 0.417746 0.719305 0.421230
H47   H     H_    0.582042 0.486289 0.712420 0.412764
H48   H     H_    0.837724 0.198877 0.871842 0.366181
H49   H     H_    0.799606 0.641625 0.870502 0.365416
H50   H     H_    0.356502 0.158025 0.870033 0.364997
H51   H     H_    0.824654 0.008288 0.771868 0.137077
H52   H     H_    0.990620 0.814350 0.769796 0.136374
H53   H     H_    0.182785 0.180189 0.770661 0.114954
H54   H     H_    0.957394 0.902722 0.681067 0.400818
H55   H     H_    0.133561 0.071208 0.674919 0.381098
H56   H     H_    0.034145 0.203229 0.782310 0.175776
H57   H     H_    0.005164 0.094660 0.716402 0.343949
H58   H     H_    0.573717 0.936458 0.377284 0.138544
H59   H     H_    0.062910 0.637480 0.377482 0.138422
H60   H     H_    0.362677 0.425507 0.377507 0.138426
O1    O     O_R   0.137310 0.468260 0.552980 -0.439738
O2    O     O_R   0.139940 0.470480 0.446230 -0.511703
O3    O     O_R   0.529520 0.669460 0.446230 -0.511584
O4    O     O_R   0.330540 0.860060 0.446230 -0.511635
O5    O     O_R   0.176560 0.690850 0.450770 -0.500144
O6    O     O_R   0.309150 0.485710 0.450770 -0.499728
O7    O     O_R   0.514290 0.823440 0.450770 -0.499375
O8    O     O_3   0.333333 0.666667 0.499990 -0.369880
O9    O     O_3   0.000000 1.000000 0.017910 -0.253321
O10   O     O_R   0.149710 0.171070 0.967700 -0.478478
O11   O     O_R   0.828930 0.978640 0.967700 -0.478975
O12   O     O_R   0.531740 0.669050 0.552980 -0.446688
O13   O     O_R   0.021360 0.850290 0.967700 -0.478083
O14   O     O_R   0.178510 0.985930 0.071830 -0.517400
O15   O     O_R   0.014070 0.192580 0.071830 -0.517399
O16   O     O_R   0.807420 0.821490 0.071830 -0.517435
O17   O     O_R   0.147830 0.173300 0.066650 -0.501816
O18   O     O_R   0.826700 0.974530 0.066650 -0.502038
O19   O     O_R   0.025470 0.852170 0.066650 -0.501580
O20   O     O_2   0.405709 0.794936 0.874511 -0.223368
O21   O     O_2   0.579334 0.963164 0.881233 -0.213014
O22   O     O_3   0.445485 0.950039 0.813513 -0.522505
O23   O     O_R   0.330950 0.862690 0.552980 -0.439980
O24   O     O_2   0.205480 0.613073 0.876572 -0.223928
O25   O     O_2   0.037973 0.620600 0.883399 -0.216507
O26   O     O_3   0.048257 0.496817 0.816819 -0.519652
O27   O     O_2   0.393793 0.595956 0.876626 -0.225702
O28   O     O_2   0.384220 0.420198 0.882739 -0.215926
O29   O     O_3   0.507840 0.553911 0.815717 -0.518432
O30   O     O_2   0.725275 0.167406 0.695109 -0.133400
O31   O     O_2   0.599458 0.015206 0.644342 -0.250310
O32   O     O_3   0.529781 0.039606 0.727779 -0.469086
O33   O     O_2   0.833656 0.552844 0.695414 -0.141654
O34   O     O_R   0.180530 0.983530 0.965090 -0.505047
O35   O     O_2   0.987059 0.579154 0.645414 -0.249972
O36   O     O_3   0.962360 0.488871 0.729857 -0.472024
O37   O     O_2   0.438440 0.275293 0.693422 -0.131535
O38   O     O_2   0.417815 0.407695 0.644839 -0.263904
O39   O     O_3   0.512440 0.469563 0.728697 -0.463304
O40   O     O_2   0.842680 0.210280 0.776307 -0.246552
O41   O     O_2   0.656442 0.119839 0.808270 -0.119672
O42   O     O_3   0.810075 0.122032 0.861584 -0.528865
O43   O     O_2   0.789536 0.630909 0.775085 -0.250114
O44   O     O_2   0.880065 0.537078 0.809137 -0.119375
O45   O     O_R   0.016470 0.197000 0.965090 -0.505009
O46   O     O_3   0.876856 0.690128 0.860372 -0.529511
O47   O     O_2   0.365320 0.159069 0.774507 -0.240916
O48   O     O_2   0.462408 0.342871 0.808703 -0.113278
O49   O     O_3   0.308497 0.187576 0.860223 -0.531210
O50   O     O_2   0.769695 0.693213 0.670813 -0.174782
O51   O     O_2   0.776161 0.857003 0.638601 -0.241000
O52   O     O_3   0.906466 0.880817 0.709179 -0.579629
O53   O     O_2   0.330183 0.058163 0.662863 -0.162242
O54   O     O_2   0.147251 0.915336 0.638693 -0.278735
O55   O     O_3   0.161819 0.051572 0.704101 -0.581454
O56   O     O_R   0.803000 0.819470 0.965090 -0.504669
O57   O     O_2   0.939765 0.273687 0.665668 -0.142190
O58   O     O_2   0.081140 0.233216 0.640289 -0.262967
O59   O     O_3   0.949246 0.114602 0.707709 -0.515619
O60   O     O_R   0.174120 0.688790 0.549730 -0.470006
O61   O     O_R   0.311210 0.485330 0.549730 -0.467791
O62   O     O_R   0.514670 0.825880 0.549730 -0.468969
S1    S     S_3+6 0.496737 0.884164 0.845381 0.042177
S2    S     S_3+6 0.781854 0.801631 0.684659 0.024828
S3    S     S_3+6 0.216913 0.979872 0.681435 0.026634
S4    S     S_3+6 0.019569 0.240278 0.683762 0.043023
S5    S     S_3+6 0.115949 0.614910 0.847573 0.042747
S6    S     S_3+6 0.390400 0.504592 0.847228 0.041482
S7    S     S_3+6 0.636359 0.049394 0.696129 0.114304
S8    S     S_3+6 0.952287 0.583766 0.696888 0.109044
S9    S     S_3+6 0.413478 0.366973 0.696058 0.105838
S10   S     S_3+6 0.759405 0.113333 0.804999 0.102031
S11   S     S_3+6 0.886357 0.646048 0.804432 0.101662
S12   S     S_3+6 0.352283 0.241318 0.804231 0.107074

loop_
_geom_bond_atom_site_label_1
_geom_bond_atom_site_label_2
_ccdc_geom_bond_type
C34   H28   S    
C30   O7    A    
C44   C48   A    
C26   C32   A    
O33   S8    D    
O35   S8    D    
C7    C10   T    
C18   C21   A    
C17   C29   S    
Cr3   O62   S    
C15   C18   A    
C45   C82   S    
C33   H17   S    
C24   C27   A    
C13   C71   S    
O27   S6    D    
O47   S12   D    
Cr1   O60   S    
C8    C23   S    
C6    C9    T    
H55   O55   S    
C57   C58   S    
C77   S1    S    
C6    C75   S    
Cr5   O18   S    
O20   S1    D    
C27   C33   A    
O54   S3    D    
C1    O23   A    
C70   H53   S    
C15   C30   S    
C60   O19   A    
C64   C68   S    
O53   S3    D    
Cr2   O3    S    
C11   O45   A    
C18   H58   S    
O40   S10   D    
C80   S6    S    
O39   S9    S    
C79   S5    S    
C49   H9    S    
C63   C76   S    
Cr5   O45   S    
H32   O26   S    
C38   H2    S    
Cr6   O9    S    
C17   C20   A    
C79   C82   S    
C12   O1    A    
Cr1   O5    S    
Cr4   O9    S    
Cr5   O11   S    
C14   O13   A    
C58   O15   A    
Cr2   O6    S    
C5    C74   S    
C39   H3    S    
C67   H25   S    
C35   H18   S    
C19   H59   S    
Cr6   O56   S    
O30   S7    D    
C30   O3    A    
C20   C24   A    
C61   C77   S    
C84   H27   S    
C46   C55   A    
O31   S7    D    
C28   O5    A    
O50   S2    D    
C79   H12   S    
C56   C84   S    
C45   C78   S    
Cr2   O12   S    
C34   C81   S    
C47   C50   A    
C16   C28   S    
C54   C59   S    
C23   O12   A    
O38   S9    D    
C45   H29   S    
C39   C52   A    
O32   S7    S    
O58   S4    D    
C32   H16   S    
C55   C60   S    
Cr6   O16   S    
C28   O4    A    
O25   S5    D    
C41   H38   S    
C76   C84   S    
C14   C72   S    
H44   O32   S    
C80   C83   S    
C32   C36   A    
Cr4   O17   S    
C15   C35   A    
O51   S2    D    
C11   O10   A    
Cr5   O9    S    
C39   C42   A    
C63   C80   S    
C40   C43   A    
Cr3   O23   S    
C78   H26   S    
C45   H45   S    
C50   C53   A    
C24   H7    S    
O59   S4    S    
C62   H42   S    
C62   C79   S    
C19   C22   A    
C1    C9    S    
Cr2   O61   S    
C38   C41   A    
H33   O29   S    
C11   C73   S    
C62   H36   S    
C43   C57   A    
C64   H21   S    
C38   C51   A    
O37   S9    D    
C69   H52   S    
Cr4   O14   S    
O36   S8    S    
C33   C37   A    
Cr3   O7    S    
C69   S11   S    
C66   S9    S    
C34   C67   S    
O48   S12   D    
Cr1   O1    S    
C65   H22   S    
C70   C83   S    
C26   C52   S    
C42   C55   A    
C47   C57   A    
C70   S12   S    
C46   C49   A    
C77   C81   S    
C44   H11   S    
C49   C52   A    
C66   C76   S    
C3    C82   S    
H50   O49   S    
C37   H20   S    
Cr3   O4    S    
C68   H51   S    
O24   S5    D    
C17   C37   A    
O52   S2    S    
C58   O17   A    
Cr2   O8    S    
O41   S10   D    
Cr5   O15   S    
C4    C73   T    
C59   O16   A    
C10   C12   S    
C48   C51   A    
C29   O6    A    
H47   O39   S    
O26   S5    S    
O29   S6    S    
C22   C26   A    
C31   C35   A    
C62   C75   S    
Cr1   O8    S    
C68   C81   S    
C2    C71   T    
C63   H43   S    
H49   O46   S    
C56   C83   S    
C21   C25   A    
C77   H1    S    
C34   H34   S    
C47   H14   S    
C66   H24   S    
C64   S7    S    
H46   O36   S    
C1    O60   A    
H54   O52   S    
C22   H6    S    
C25   C31   A    
O28   S6    D    
C43   H40   S    
C68   S10   S    
C12   O61   A    
C40   H4    S    
C2    C81   S    
C78   S3    S    
C5    C8    T    
C14   O34   A    
H48   O42   S    
C27   C53   S    
C13   O11   A    
C7    C76   S    
C56   H30   S    
C61   C74   S    
C48   H8    S    
C46   H13   S    
C50   H10   S    
C25   C51   S    
C65   C75   S    
Cr3   O8    S    
Cr6   O13   S    
C21   H5    S    
C3    C72   T    
Cr1   O2    S    
O42   S10   S    
C16   C36   A    
C29   O2    A    
C31   H15   S    
C66   C70   S    
C4    C83   S    
C16   C19   A    
C65   C69   S    
Cr6   O19   S    
O57   S4    D    
C60   O14   A    
C65   S8    S    
C20   H60   S    
C69   C82   S    
C42   H39   S    
C67   C74   S    
Cr4   O10   S    
C56   H56   S    
C75   C78   S    
C41   C54   A    
O46   S11   S    
Cr4   O34   S    
C61   H41   S    
O21   S1    D    
C44   C54   A    
O43   S11   D    
H31   O22   S    
C80   H23   S    
O55   S3    S    
C40   C53   A    
C23   O62   A    
C36   H19   S    
C64   C74   S    
C13   O56   A    
C67   S2    S    
C61   H35   S    
O49   S12   S    
O22   S1    S    
H57   O59   S    
C63   H37   S    
C59   O18   A    
C84   S4    S    
O44   S11   D    
