data_mof_unit_23447.cif
_audit_creation_date              2012-12-10T20:38:17-0500
_audit_creation_method            fapswitch 2.2
_symmetry_space_group_name_H-M    P1
_symmetry_Int_Tables_number       1
_space_group_crystal_system       triclinic
_cell_length_a                    9.847137
_cell_length_b                    10.681178
_cell_length_c                    16.625465
_cell_angle_alpha                 89.917086
_cell_angle_beta                  85.637974
_cell_angle_gamma                 90.101416
_cell_volume                      1743.58006752

loop_
_atom_site_label
_atom_site_type_symbol
_atom_type_description
_atom_site_fract_x
_atom_site_fract_y
_atom_site_fract_z
_atom_type_partial_charge
C1    C     C_R   0.499728 0.740094 0.502352 0.888206
C2    C     C_R   0.345142 0.466563 0.784313 -0.200598
C3    C     C_R   0.435885 0.305557 0.166440 -0.048422
C4    C     C_R   0.426339 0.361449 0.242330 -0.185285
C5    C     C_R   0.643837 0.465048 0.213344 -0.201297
C6    C     C_R   0.654507 0.413072 0.136148 0.248545
C7    C     C_R   0.547997 0.335775 0.111865 0.110802
C8    C     C_2   0.453081 0.397310 0.990651 -0.362721
C9    C     C_2   0.535994 0.316983 0.025466 -0.068990
C10   C     C_R   0.527685 0.443638 0.264912 -0.128618
C11   C     C_R   0.374841 0.935816 0.514143 0.116880
C12   C     C_R   0.481683 0.498666 0.653754 0.858198
C13   C     C_R   0.497494 0.871413 0.514942 -0.103346
C14   C     C_R   0.616919 0.935437 0.530920 -0.219233
C15   C     C_R   0.616789 0.064881 0.530995 -0.217258
C16   C     C_R   0.497252 0.128483 0.514989 -0.098619
C17   C     C_R   0.374674 0.063528 0.514215 0.130766
C18   C     C_3   0.266119 0.070445 0.456173 -0.473464
C19   C     C_3   0.266515 0.928542 0.455980 -0.455772
C20   C     C_R   0.925274 0.600688 0.529054 0.221026
C21   C     C_R   0.932414 0.406441 0.463977 -0.125068
C22   C     C_R   0.076538 0.406597 0.463814 -0.125500
C23   C     C_R   0.499606 0.259873 0.502344 0.881185
C24   C     C_R   0.067900 0.600631 0.529038 0.218365
C25   C     C_3   0.063592 0.651509 0.612556 -0.509728
C26   C     C_3   0.909333 0.651381 0.612744 -0.513597
C27   C     C_R   0.518218 0.491834 0.346865 0.888711
C28   C     C_R   0.472162 0.482491 0.741073 -0.038044
C29   C     C_R   0.592116 0.472574 0.780953 -0.200801
C30   C     C_R   0.585680 0.442960 0.862104 -0.163825
C31   C     C_R   0.459387 0.421564 0.904311 0.187095
C32   C     C_R   0.338944 0.437273 0.866104 -0.150689
H1    H     H_    0.691335 0.485250 0.749351 0.150562
H2    H     H_    0.711721 0.886690 0.537664 0.164809
H3    H     H_    0.711520 0.114038 0.537915 0.169645
H4    H     H_    0.169900 0.110552 0.484367 0.198752
H5    H     H_    0.302795 0.112366 0.397156 0.215353
H6    H     H_    0.170495 0.887048 0.483803 0.198823
H7    H     H_    0.303777 0.887687 0.396886 0.213233
H8    H     H_    0.881459 0.329824 0.436191 0.157400
H9    H     H_    0.134430 0.330491 0.435572 0.151095
H10   H     H_    0.102694 0.584151 0.656233 0.213331
H11   H     H_    0.340222 0.339577 0.284585 0.194854
H12   H     H_    0.108044 0.747119 0.614151 0.200964
H13   H     H_    0.859474 0.583850 0.656472 0.212282
H14   H     H_    0.864834 0.746939 0.614794 0.196252
H15   H     H_    0.724034 0.525143 0.232586 0.161260
H16   H     H_    0.240772 0.424974 0.899261 0.139181
H17   H     H_    0.251205 0.474251 0.754817 0.149034
H18   H     H_    0.387674 0.459347 0.028208 0.180014
H19   H     H_    0.679447 0.436965 0.891919 0.133938
N1    N     N_R   0.857140 0.500860 0.500530 -0.109040
N2    N     N_R   0.142780 0.500820 0.500530 -0.107220
O1    O     O_R   0.385310 0.683210 0.499990 -0.613538
O2    O     O_R   0.614650 0.683240 0.500000 -0.618417
O3    O     O_R   0.371780 0.500000 0.615800 -0.618613
O4    O     O_R   0.601120 0.500040 0.615800 -0.620262
O5    O     O_R   0.385350 0.316760 0.500000 -0.623537
O6    O     O_R   0.614690 0.316790 0.500010 -0.626249
O7    O     O_R   0.398880 0.499960 0.384200 -0.615094
O8    O     O_R   0.628220 0.500000 0.384200 -0.606263
Zn1   Zn    Zn3+2 0.346870 0.499980 0.499990 0.945640
Zn2   Zn    Zn3+2 0.653130 0.500020 0.500010 0.948330
C33   C     C_3   0.775663 0.446571 0.079137 -0.866699
H20   H     H_    0.829417 0.360224 0.057809 0.273208
H21   H     H_    0.741590 0.498998 0.026677 0.232156
H22   H     H_    0.849732 0.506314 0.108669 0.234282
C34   C     C_2   0.615421 0.217624 0.980866 0.398157
H23   H     H_    0.603974 0.201494 0.917339 0.079628
O9    O     O_2   0.692621 0.150607 0.015556 -0.563193
C35   C     C_2   0.326580 0.219232 0.143568 0.407561
H24   H     H_    0.335200 0.171791 0.085759 0.083001
O10   O     O_2   0.225748 0.199319 0.189247 -0.573526

loop_
_geom_bond_atom_site_label_1
_geom_bond_atom_site_label_2
_ccdc_geom_bond_type
C10   C27   S    
C14   H2    S    
C23   O5    A    
C3    C35   S    
C30   H19   S    
O5    Zn1   S    
C29   C30   A    
C2    H17   S    
C29   H1    S    
C16   C23   S    
C5    H15   S    
N2    Zn1   S    
O6    Zn2   S    
C31   C32   A    
C30   C31   A    
C1    O1    A    
C33   H20   S    
C17   C18   S    
C1    O2    A    
C9    C34   S    
C35   H24   S    
C20   N1    A    
C33   H21   S    
C12   O3    A    
C13   C14   A    
O7    Zn1   S    
C23   O6    A    
C32   H16   S    
C11   C19   S    
C6    C7    A    
C21   H8    S    
C19   H7    S    
C12   C28   S    
C11   C13   A    
C12   O4    A    
C25   H12   S    
C2    C32   A    
C28   C29   A    
C19   H6    S    
C4    H11   S    
C25   H10   S    
O4    Zn2   S    
C22   N2    A    
C3    C7    A    
C27   O7    A    
C5    C6    A    
O3    Zn1   S    
C22   H9    S    
C1    C13   S    
C26   H14   S    
C4    C10   A    
C15   C16   A    
C33   H22   S    
C8    H18   S    
C35   O10   D    
C5    C10   A    
C24   C25   S    
C24   N2    A    
C8    C9    D    
O8    Zn2   S    
C18   C19   S    
C18   H5    S    
C15   H3    S    
C7    C9    S    
C34   O9    D    
C20   C24   A    
C14   C15   A    
C11   C17   A    
C2    C28   A    
O2    Zn2   S    
O1    Zn1   S    
C26   H13   S    
C25   C26   S    
C21   C22   A    
C8    C31   S    
C18   H4    S    
C34   H23   S    
C21   N1    A    
C3    C4    A    
C6    C33   S    
C16   C17   A    
C20   C26   S    
N1    Zn2   S    
C27   O8    A    
