data_mof_unit_37149.cif
_audit_creation_date              2012-12-10T17:03:40-0500
_audit_creation_method            fapswitch 2.2
_symmetry_space_group_name_H-M    P1
_symmetry_Int_Tables_number       1
_space_group_crystal_system       triclinic
_cell_length_a                    10.05965
_cell_length_b                    10.72278
_cell_length_c                    13.223893
_cell_angle_alpha                 90.764977
_cell_angle_beta                  70.96601
_cell_angle_gamma                 89.519262
_cell_volume                      1348.19487798

loop_
_atom_site_label
_atom_site_type_symbol
_atom_type_description
_atom_site_fract_x
_atom_site_fract_y
_atom_site_fract_z
_atom_type_partial_charge
C1    C     C_R   0.496369 0.737344 0.508158 0.863712
C2    C     C_R   0.441550 0.548453 0.979548 -0.129985
C3    C     C_R   0.483995 0.565166 0.868372 -0.165391
C4    C     C_R   0.549348 0.529126 0.025696 0.012490
C5    C     C_R   0.685674 0.491243 0.959151 -0.142527
C6    C     C_R   0.725158 0.515618 0.849884 0.384302
C7    C     C_R   0.629022 0.577322 0.812749 0.415970
C8    C     C_R   0.531020 0.557700 0.132495 0.393553
C9    C     C_R   0.752076 0.448540 0.115272 0.407973
C10   C     C_R   0.382160 0.563059 0.815592 -0.213926
C11   C     C_2   0.566431 0.069038 0.556213 0.322459
C12   C     C_R   0.424090 0.521339 0.701620 0.959837
C13   C     C_2   0.510296 0.130267 0.491490 0.223036
C14   C     C_2   0.590579 0.937278 0.538963 0.334455
C15   C     C_2   0.479546 0.865089 0.544566 0.150178
C16   C     C_2   0.100770 0.423186 0.441716 0.401893
C17   C     C_2   0.948773 0.419250 0.445759 0.378201
C18   C     C_R   0.501206 0.262888 0.499277 0.872546
C19   C     C_R   0.577857 0.500854 0.296473 0.893754
C20   C     C_R   0.782938 0.444962 0.004949 -0.091595
C21   C     C_R   0.625132 0.506225 0.180078 -0.314997
C22   C     C_R   0.241959 0.593788 0.875260 0.215205
C23   C     C_R   0.197649 0.585560 0.988012 0.422137
C24   C     C_R   0.294502 0.548153 0.037882 0.506386
H1    H     H_    0.079600 0.559492 0.551237 0.198405
H2    H     H_    0.882158 0.572742 0.535952 0.201091
H3    H     H_    0.884968 0.409394 0.955920 0.234207
N1    N     N_2   0.148270 0.498670 0.498870 -0.205303
N2    N     N_2   0.852610 0.498640 0.498840 -0.207507
O1    O     O_R   0.386950 0.680940 0.500020 -0.565523
O2    O     O_R   0.613110 0.680900 0.499980 -0.574967
O3    O     O_R   0.330780 0.500000 0.653640 -0.550820
O4    O     O_R   0.556930 0.499960 0.653610 -0.587804
O5    O     O_R   0.386890 0.319100 0.500020 -0.567068
O6    O     O_R   0.613050 0.319060 0.499980 -0.546895
O7    O     O_R   0.443070 0.500040 0.346390 -0.564028
O8    O     O_R   0.669220 0.500000 0.346360 -0.592222
Zn1   Zn    Zn3+2 0.349000 0.500030 0.500020 1.128799
Zn2   Zn    Zn3+2 0.651000 0.499970 0.499980 1.112744
O9    O     O_3   0.849042 0.397276 0.156121 -0.648819
H4    H     H_    0.872621 0.463004 0.200409 0.401106
O10   O     O_3   0.475355 0.067761 0.411320 -0.720968
H5    H     H_    0.444321 0.129653 0.368328 0.387045
Cl1   Cl    Cl    0.769871 0.891191 0.486396 -0.393201
Cl2   Cl    Cl    0.303681 0.919591 0.607022 -0.408967
Cl3   Cl    Cl    0.218941 0.315477 0.355642 -0.459545
Cl4   Cl    Cl    0.901823 0.300070 0.371521 -0.378408
Cl5   Cl    Cl    0.893843 0.479576 0.760053 -0.532122
O11   O     O_3   0.427706 0.643721 0.185751 -0.665863
H6    H     H_    0.457977 0.688405 0.240471 0.353513
Cl6   Cl    Cl    0.128911 0.654492 0.809644 -0.447335
O12   O     O_3   0.240262 0.506004 0.141127 -0.625755
H7    H     H_    0.303841 0.439255 0.150193 0.364852
O13   O     O_3   0.059944 0.605590 0.052301 -0.688596
H8    H     H_    0.000550 0.626395 0.008228 0.372389
Cl7   Cl    Cl    0.689967 0.695656 0.717398 -0.469465
Cl8   Cl    Cl    0.614448 0.140140 0.660740 -0.452640

loop_
_geom_bond_atom_site_label_1
_geom_bond_atom_site_label_2
_ccdc_geom_bond_type
C16   N1    D    
O6    Zn2   S    
C23   C24   A    
C24   O12   S    
C6    C7    A    
C1    C15   S    
C20   H3    S    
O3    Zn1   S    
C11   C13   D    
C18   O6    A    
C9    C20   A    
C2    C4    A    
C14   C15   D    
N1    Zn1   S    
C4    C8    A    
N2    Zn2   S    
O7    Zn1   S    
C2    C3    A    
O8    Zn2   S    
C3    C10   A    
O5    Zn1   S    
C10   C22   A    
H1    N1    S    
C18   O5    A    
C9    C21   A    
O4    Zn2   S    
C10   C12   S    
C13   C18   S    
C23   O13   S    
C4    C5    A    
C7    Cl7   S    
C1    O1    A    
C19   C21   S    
O2    Zn2   S    
C8    C21   A    
C3    C7    A    
C19   O7    A    
C22   C23   A    
C2    C24   A    
C5    C6    A    
C11   C14   S    
C16   C17   S    
O10   H5    S    
C15   Cl2   S    
C1    O2    A    
C17   N2    D    
O12   H7    S    
O1    Zn1   S    
H2    N2    S    
C14   Cl1   S    
O11   H6    S    
C16   Cl3   S    
C5    C20   A    
O13   H8    S    
C13   O10   S    
O9    H4    S    
C19   O8    A    
C12   O4    A    
C11   Cl8   S    
C8    O11   S    
C9    O9    S    
C12   O3    A    
C17   Cl4   S    
C22   Cl6   S    
C6    Cl5   S    
