data_mof_unit_24162.cif
_audit_creation_date              2012-12-10T18:47:48-0500
_audit_creation_method            fapswitch 2.2
_symmetry_space_group_name_H-M    P1
_symmetry_Int_Tables_number       1
_space_group_crystal_system       triclinic
_cell_length_a                    9.880752
_cell_length_b                    10.645769
_cell_length_c                    15.522535
_cell_angle_alpha                 90.399372
_cell_angle_beta                  67.496446
_cell_angle_gamma                 89.683199
_cell_volume                      1508.364231

loop_
_atom_site_label
_atom_site_type_symbol
_atom_type_description
_atom_site_fract_x
_atom_site_fract_y
_atom_site_fract_z
_atom_type_partial_charge
C1    C     C_R   0.500912 0.739696 0.498211 0.949978
C2    C     C_R   0.379941 0.934672 0.561704 -0.236194
C3    C     C_R   0.498782 0.127950 0.502735 -0.196205
C4    C     C_R   0.501187 0.872088 0.497315 -0.197856
C5    C     C_R   0.965855 0.424479 0.439640 0.442544
C6    C     C_R   0.034099 0.575214 0.560595 0.444460
C7    C     C_R   0.109128 0.424813 0.439763 -0.173422
C8    C     C_R   0.890907 0.575187 0.560257 -0.167600
C9    C     C_R   0.408239 0.498070 0.676013 0.886300
C10   C     C_R   0.591648 0.498922 0.323902 0.889307
C11   C     C_R   0.350346 0.488678 0.777408 -0.048809
C12   C     C_R   0.499075 0.260315 0.501808 0.947235
C13   C     C_R   0.646715 0.480493 0.223028 -0.046839
C14   C     C_R   0.158297 0.518616 0.929408 -0.208873
C15   C     C_R   0.817302 0.385132 0.081008 -0.213227
C16   C     C_R   0.204372 0.517883 0.832629 -0.140332
C17   C     C_R   0.783298 0.424971 0.172809 -0.168168
C18   C     C_R   0.446909 0.452872 0.819041 -0.238015
C19   C     C_R   0.547634 0.499741 0.180241 -0.238100
C20   C     C_R   0.403286 0.451702 0.915810 0.099801
C21   C     C_R   0.573411 0.450179 0.091962 0.099155
C22   C     C_R   0.257529 0.488900 0.971298 0.157427
C23   C     C_R   0.316042 0.484506 0.108210 -0.185012
C24   C     C_R   0.713114 0.397080 0.040265 0.162431
C25   C     C_R   0.504433 0.424705 0.958072 0.064632
C26   C     C_R   0.464326 0.454203 0.053667 0.062026
C27   C     C_R   0.644507 0.370687 0.908038 -0.195961
C28   C     C_R   0.214102 0.499724 0.067518 -0.196448
C29   C     C_R   0.746123 0.355678 0.949184 -0.200695
C30   C     C_R   0.621937 0.936392 0.434954 0.399309
C31   C     C_R   0.378065 0.063668 0.565143 0.399913
C32   C     C_R   0.619995 0.065376 0.438331 -0.236095
Cl1   Cl    Cl    0.773055 0.859641 0.349375 -0.569240
Cl2   Cl    Cl    0.227149 0.140486 0.650870 -0.578505
Cl3   Cl    Cl    0.930412 0.324750 0.360716 -0.626393
Cl4   Cl    Cl    0.069311 0.673337 0.640555 -0.610468
H1    H     H_    0.102242 0.525052 0.111200 0.166115
H2    H     H_    0.677044 0.334991 0.837743 0.163768
H3    H     H_    0.711164 0.116913 0.389555 0.231961
H4    H     H_    0.288729 0.883132 0.610441 0.231733
H5    H     H_    0.193274 0.364666 0.391659 0.187544
H6    H     H_    0.806758 0.635276 0.608401 0.189083
H7    H     H_    0.851803 0.313273 0.909001 0.176477
H8    H     H_    0.448611 0.552076 0.218309 0.160827
H9    H     H_    0.558942 0.433129 0.774303 0.162636
H10   H     H_    0.861161 0.408674 0.205118 0.206265
H11   H     H_    0.127847 0.544607 0.801226 0.203065
H12   H     H_    0.046857 0.547139 0.971284 0.159875
H13   H     H_    0.923103 0.341720 0.042856 0.161538
H14   H     H_    0.274778 0.494149 0.183134 0.163461
N1    N     N_R   0.142780 0.500030 0.500020 -0.127760
N2    N     N_R   0.857220 0.499970 0.499980 -0.127581
O1    O     O_R   0.385370 0.683250 0.500010 -0.578507
O2    O     O_R   0.614630 0.316750 0.499990 -0.579324
O3    O     O_R   0.614700 0.683220 0.500000 -0.580659
O4    O     O_R   0.385300 0.316780 0.500000 -0.581123
O5    O     O_R   0.319830 0.500020 0.632250 -0.560509
O6    O     O_R   0.680170 0.499980 0.367750 -0.560665
O7    O     O_R   0.549160 0.499990 0.632240 -0.637614
O8    O     O_R   0.450840 0.500010 0.367760 -0.636630
Zn1   Zn    Zn3+2 0.346870 0.500020 0.500000 1.037507
Zn2   Zn    Zn3+2 0.653130 0.499980 0.500000 1.036462

loop_
_geom_bond_atom_site_label_1
_geom_bond_atom_site_label_2
_ccdc_geom_bond_type
O6    Zn2   S    
C2    C4    A    
C21   C26   A    
C18   H9    S    
C5    N2    A    
O5    Zn1   S    
C6    N1    A    
C27   C29   A    
C20   C22   A    
C11   C16   A    
C8    N2    A    
C10   O8    A    
N1    Zn1   S    
C13   C17   A    
C29   H7    S    
C1    C4    S    
C14   C22   A    
C7    H5    S    
C1    O3    A    
C31   Cl2   S    
C7    N1    A    
C11   C18   A    
C22   C28   A    
C23   C28   A    
C17   H10   S    
C3    C31   A    
C9    C11   S    
C12   O4    A    
C28   H1    S    
C5    Cl3   S    
C16   H11   S    
C15   C24   A    
C10   O6    A    
C6    Cl4   S    
C18   C20   A    
C15   H13   S    
C32   H3    S    
C3    C32   A    
C14   C16   A    
C21   C24   A    
C4    C30   A    
C25   C27   A    
C20   C25   A    
C13   C19   A    
C27   H2    S    
C30   C32   A    
O3    Zn2   S    
C2    H4    S    
C19   H8    S    
C9    O5    A    
C5    C7    A    
C23   C26   A    
C15   C17   A    
C14   H12   S    
C1    O1    A    
C24   C29   A    
C2    C31   A    
C23   H14   S    
C6    C8    A    
C3    C12   S    
O2    Zn2   S    
C30   Cl1   S    
C19   C21   A    
C25   C26   A    
O4    Zn1   S    
O1    Zn1   S    
N2    Zn2   S    
C12   O2    A    
O7    Zn2   S    
C8    H6    S    
O8    Zn1   S    
C9    O7    A    
C10   C13   S    
