data_mof_unit_15599.cif
_audit_creation_date              2012-12-11T17:23:14-0500
_audit_creation_method            fapswitch 2.2
_symmetry_space_group_name_H-M    P1
_symmetry_Int_Tables_number       1
_space_group_crystal_system       triclinic
_cell_length_a                    22.383355
_cell_length_b                    7.094599
_cell_length_c                    19.427426
_cell_angle_alpha                 90.007045
_cell_angle_beta                  99.526213
_cell_angle_gamma                 89.99991
_cell_volume                      3042.54978218

loop_
_atom_site_label
_atom_site_type_symbol
_atom_type_description
_atom_site_fract_x
_atom_site_fract_y
_atom_site_fract_z
_atom_type_partial_charge
O1    O     O_R   0.443980 0.494320 0.557430 -0.533933
O2    O     O_R   0.556020 0.994320 0.442570 -0.533940
O3    O     O_R   0.441210 0.822520 0.414610 -0.536458
O4    O     O_R   0.558790 0.322520 0.585390 -0.536458
C1    C     C_R   0.426817 0.655335 0.388742 0.696480
C2    C     C_R   0.573185 0.155355 0.611257 0.696468
O5    O     O_R   0.436920 0.823940 0.555180 -0.536708
O6    O     O_R   0.563080 0.323940 0.444820 -0.536702
O7    O     O_R   0.551700 0.995760 0.584140 -0.534357
O8    O     O_R   0.448300 0.495760 0.415860 -0.534362
C3    C     C_R   0.421686 0.655424 0.574988 0.721777
C4    C     C_R   0.578310 0.155414 0.425007 0.721791
O9    O     O_3   0.537660 0.661290 0.509340 -0.370823
O10   O     O_3   0.462340 0.161290 0.490660 -0.370825
V1    V     V_3+5 0.493010 0.935560 0.498270 1.424887
V2    V     V_3+5 0.506990 0.435560 0.501730 1.424892
H1    H     H_    0.704947 0.817635 0.290412 0.113333
H2    H     H_    0.293960 0.317554 0.708202 0.113252
C5    C     C_R   0.767365 0.932051 0.228011 -0.153061
C6    C     C_R   0.232037 0.431993 0.771230 -0.153070
H3    H     H_    0.780753 0.794160 0.212012 0.113815
H4    H     H_    0.218187 0.294067 0.786641 0.113658
C7    C     C_R   0.793080 0.095362 0.204298 0.133887
C8    C     C_R   0.206935 0.595341 0.795720 0.133876
C9    C     C_R   0.774876 0.272262 0.225964 -0.151923
C10   C     C_R   0.225732 0.772290 0.774806 -0.151868
H5    H     H_    0.794144 0.400062 0.208358 0.115255
H6    H     H_    0.206943 0.900124 0.793019 0.115336
C11   C     C_R   0.731686 0.285662 0.270717 -0.156041
C12   C     C_R   0.268905 0.785700 0.730032 -0.156037
H7    H     H_    0.718345 0.423551 0.286768 0.112251
H8    H     H_    0.282708 0.923627 0.714569 0.112246
C13   C     C_R   0.706046 0.122337 0.294530 0.135469
C14   C     C_R   0.293934 0.622341 0.705444 0.135454
C15   C     C_R   0.724173 0.945448 0.272759 -0.154810
C16   C     C_R   0.275212 0.445400 0.726461 -0.154745
C17   C     C_1   0.838258 0.081718 0.158368 -0.060785
C18   C     C_1   0.161759 0.581689 0.841653 -0.060788
C19   C     C_1   0.661255 0.135915 0.340963 -0.058791
C20   C     C_1   0.338725 0.635939 0.659012 -0.058778
C21   C     C_1   0.623677 0.145922 0.379504 -0.184946
C22   C     C_1   0.376309 0.645951 0.620480 -0.184951
C23   C     C_1   0.876235 0.071627 0.120348 -0.146571
C24   C     C_1   0.123778 0.571598 0.879667 -0.146561
C25   C     C_R   0.629240 0.161919 0.805920 -0.133360
C26   C     C_R   0.370774 0.661389 0.194082 -0.133377
H9    H     H_    0.609296 0.176732 0.852689 0.133836
H10   H     H_    0.390724 0.675964 0.147314 0.133844
C27   C     C_R   0.613387 0.147803 0.679774 -0.043445
C28   C     C_R   0.386617 0.647712 0.320226 -0.043416
C29   C     C_R   0.908983 0.054027 0.759557 0.134027
C30   C     C_R   0.091009 0.554302 0.240438 0.134019
C31   C     C_R   0.870768 0.058828 0.695201 -0.102329
C32   C     C_R   0.129227 0.559116 0.304791 -0.102340
C33   C     C_R   0.808579 0.080229 0.690895 -0.156328
C34   C     C_R   0.191420 0.580378 0.309098 -0.156349
C35   C     C_R   0.781398 0.098324 0.751287 0.014596
C36   C     C_R   0.218601 0.598331 0.248713 0.014564
C37   C     C_R   0.820089 0.094388 0.817851 -0.114071
C38   C     C_R   0.179910 0.594316 0.182152 -0.114026
C39   C     C_R   0.717071 0.120239 0.747174 0.047621
C40   C     C_R   0.282931 0.620147 0.252827 0.047625
C41   C     C_R   0.692459 0.139001 0.809835 -0.000141
C42   C     C_R   0.307549 0.638638 0.190169 -0.000094
C43   C     C_R   0.731065 0.134809 0.875447 0.055628
C44   C     C_R   0.268943 0.634336 0.124563 0.055612
C45   C     C_R   0.793777 0.112566 0.878803 0.555528
C46   C     C_R   0.206225 0.612262 0.121206 0.555550
C47   C     C_R   0.676090 0.124496 0.682586 -0.221887
C48   C     C_R   0.323909 0.624555 0.317415 -0.221895
C49   C     C_R   0.589818 0.166831 0.742144 0.150295
C50   C     C_R   0.410195 0.666421 0.257855 0.150318
C51   C     C_R   0.884321 0.071717 0.821581 -0.084198
C52   C     C_R   0.115675 0.571790 0.178420 -0.084166
H11   H     H_    0.691140 0.110988 0.632989 0.096698
H12   H     H_    0.308854 0.611252 0.367016 0.096684
H13   H     H_    0.783206 0.082067 0.638823 0.111939
H14   H     H_    0.216794 0.582194 0.361168 0.111951
H15   H     H_    0.889224 0.045542 0.647270 0.117017
H16   H     H_    0.110770 0.545940 0.352717 0.117036
O11   O     O_R   0.051730 0.724670 0.084120 -0.533062
O12   O     O_R   0.948270 0.224670 0.915880 -0.533008
O13   O     O_R   0.063080 0.393540 0.944820 -0.538643
O14   O     O_R   0.936920 0.893540 0.055180 -0.538677
C53   C     C_R   0.077993 0.562048 0.924612 0.803895
C54   C     C_R   0.922012 0.062058 0.075393 0.803877
O15   O     O_R   0.058800 0.395030 0.085390 -0.540630
O16   O     O_R   0.941200 0.895030 0.914610 -0.540675
O17   O     O_R   0.943980 0.223310 0.057440 -0.531457
O18   O     O_R   0.056020 0.723310 0.942560 -0.531502
C55   C     C_R   0.073071 0.563622 0.111154 0.831719
C56   C     C_R   0.926928 0.063604 0.888846 0.831651
O19   O     O_3   0.962360 0.556290 0.990650 -0.376283
O20   O     O_3   0.037640 0.056290 0.009350 -0.376303
V3    V     V_3+5 0.006980 0.281990 0.001730 1.492491
V4    V     V_3+5 0.993020 0.781990 0.998270 1.492374
F1    F     F_    0.828941 0.109157 0.942783 -0.726048
F2    F     F_    0.171060 0.608765 0.057232 -0.726100
C57   C     C_3   0.523035 0.192262 0.743551 -0.794206
H17   H     H_    0.494858 0.192607 0.690954 0.204687
H18   H     H_    0.506768 0.075824 0.773886 0.207166
H19   H     H_    0.515652 0.328289 0.769171 0.209219
C58   C     C_3   0.476986 0.691623 0.256447 -0.794357
H20   H     H_    0.505159 0.692144 0.309044 0.204686
H21   H     H_    0.493225 0.574986 0.226182 0.207208
H22   H     H_    0.484409 0.827481 0.230759 0.209218
C59   C     C_3   0.705882 0.153954 0.942962 -0.699695
H23   H     H_    0.741190 0.147841 0.990251 0.261555
H24   H     H_    0.682466 0.291674 0.943984 0.191117
H25   H     H_    0.673524 0.037556 0.947222 0.189519
C60   C     C_3   0.294130 0.653186 0.057053 -0.699817
H26   H     H_    0.258819 0.647026 0.009767 0.261569
H27   H     H_    0.317582 0.790817 0.055995 0.191130
H28   H     H_    0.326458 0.536694 0.052830 0.189555
C61   C     C_3   0.976264 0.030171 0.761239 -0.812906
H29   H     H_    0.987877 0.019822 0.707946 0.211232
H30   H     H_    0.000897 0.152960 0.787711 0.198576
H31   H     H_    0.992151 0.899342 0.789936 0.202656
C62   C     C_3   0.023723 0.530609 0.238754 -0.813033
H32   H     H_    0.012107 0.520412 0.292043 0.211251
H33   H     H_    0.999118 0.653388 0.212261 0.198617
H34   H     H_    0.007807 0.399763 0.210078 0.202632

loop_
_geom_bond_atom_site_label_1
_geom_bond_atom_site_label_2
_ccdc_geom_bond_type
C36   C40   A    
C44   C46   A    
O16   V4    S    
O4    V2    S    
O15   C55   A    
C25   C49   A    
C60   H26   S    
O1    C3    A    
O2    C4    A    
C2    O7    A    
C41   C43   A    
C34   H14   S    
C19   C21   T    
O5    C3    A    
C13   C19   S    
C14   C20   S    
C31   H15   S    
C8    C10   A    
C30   C52   A    
C33   H13   S    
C35   C37   A    
C36   C38   A    
C61   H29   S    
C11   C13   A    
O12   C56   A    
C40   C48   A    
C3    C22   S    
O14   V4    S    
C25   H9    S    
C39   C41   A    
C28   C50   A    
C40   C42   A    
C37   C45   A    
C60   H27   S    
C6    C8    A    
C43   C45   A    
O15   V3    S    
C8    C18   S    
C59   H23   S    
C44   C60   S    
C60   H28   S    
C37   C51   A    
C26   C50   A    
C31   C33   A    
O6    V2    S    
C27   C47   A    
C59   H24   S    
C30   C32   A    
C32   H16   S    
C62   H33   S    
C9    C11   A    
C53   O18   A    
C26   H10   S    
C12   C14   A    
O16   C56   A    
O4    C2    A    
O11   V4    S    
C6    C16   A    
O5    V1    S    
C61   H30   S    
C7    C17   S    
C49   C57   S    
O18   V4    S    
C25   C41   A    
C29   C61   S    
C26   C42   A    
C29   C31   A    
C42   C44   A    
C52   C55   S    
O17   V3    S    
C5    C7    A    
C18   C24   T    
C4    C21   S    
C57   H17   S    
O6    C4    A    
C61   H31   S    
O13   V3    S    
C58   H21   S    
O1    V2    S    
O20   V4    S    
O2    V1    S    
C57   H18   S    
C6    H4    S    
C10   C12   A    
O19   V4    S    
C33   C35   A    
C48   H12   S    
C59   H25   S    
C17   C23   T    
C24   C53   S    
O3    V1    S    
C62   H34   S    
C39   C47   A    
O12   V3    S    
O13   C53   A    
C23   C54   S    
C29   C51   A    
C51   C56   S    
O14   C54   A    
C20   C22   T    
O3    C1    A    
C54   O17   A    
C62   H32   S    
C32   C34   A    
C35   C39   A    
C50   C58   S    
C9    H5    S    
C10   H6    S    
C28   C48   A    
C1    O8    A    
C11   H7    S    
C5    C15   A    
C12   H8    S    
C38   C52   A    
C13   C15   A    
C34   C36   A    
C47   H11   S    
C58   H22   S    
C14   C16   A    
C7    C9    A    
C2    C27   S    
O7    V1    S    
O20   V3    S    
C1    C28   S    
C46   F2    S    
C45   F1    S    
O11   C55   A    
C30   C62   S    
C57   H19   S    
C38   C46   A    
O19   V3    S    
C27   C49   A    
O9    V2    S    
C58   H20   S    
O10   V1    S    
O8    V2    S    
H1    C15   S    
H2    C16   S    
C43   C59   S    
C5    H3    S    
