data_mof_unit_50855.cif
_audit_creation_date              2012-12-10T16:49:24-0500
_audit_creation_method            fapswitch 2.2
_symmetry_space_group_name_H-M    P1
_symmetry_Int_Tables_number       1
_space_group_crystal_system       triclinic
_cell_length_a                    7.983411
_cell_length_b                    8.516632
_cell_length_c                    12.960479
_cell_angle_alpha                 86.954939
_cell_angle_beta                  90.360205
_cell_angle_gamma                 93.073567
_cell_volume                      878.690711117

loop_
_atom_site_label
_atom_site_type_symbol
_atom_type_description
_atom_site_fract_x
_atom_site_fract_y
_atom_site_fract_z
_atom_type_partial_charge
C1    C     C_R   0.456105 0.206472 0.496042 0.960481
C2    C     C_R   0.660540 0.359307 0.152680 0.310875
C3    C     C_R   0.548010 0.408464 0.874512 0.424581
C4    C     C_R   0.405907 0.500086 0.127610 0.416981
C5    C     C_R   0.560854 0.433642 0.980148 -0.296185
C6    C     C_R   0.441527 0.525274 0.023642 -0.286669
C7    C     C_2   0.432798 0.042770 0.495367 -0.269591
C8    C     C_2   0.567509 0.957460 0.498428 -0.232442
C9    C     C_R   0.544257 0.793692 0.500819 0.954245
C10   C     C_R   0.469722 0.506314 0.699108 1.027213
C11   C     C_R   0.527360 0.481739 0.302108 0.934606
C12   C     C_R   0.534361 0.448373 0.193053 -0.395564
C13   C     C_R   0.455059 0.512524 0.810578 -0.384613
C14   C     C_R   0.343923 0.623973 0.961926 0.702696
C15   C     C_R   0.674510 0.355153 0.045821 0.723980
C16   C     C_R   0.355198 0.624890 0.854859 0.274314
F1    F     F_    0.238292 0.719082 0.007685 -0.541403
F2    F     F_    0.802635 0.279583 0.006848 -0.502816
H1    H     H_    0.304769 0.992877 0.495083 0.240739
H2    H     H_    0.695500 0.007322 0.498007 0.252925
H3    H     H_    0.202243 0.276718 0.296162 0.383107
H4    H     H_    0.546028 0.071553 0.707903 0.398159
H5    H     H_    0.908355 0.012965 0.211353 0.401252
H6    H     H_    0.983076 0.741856 0.715553 0.392612
H7    H     H_    0.145701 0.912239 0.330870 0.380989
H8    H     H_    0.159425 0.151632 0.676028 0.408921
N1    N     N_2   0.054030 0.541640 0.471970 0.128336
N2    N     N_2   0.945970 0.458360 0.528030 0.117216
O1    O     O_R   0.609680 0.261530 0.506880 -0.560902
O2    O     O_2   0.099673 0.405029 0.058203 -0.148519
O3    O     O_3   0.202615 0.254090 0.222196 -0.493992
O4    O     O_2   0.792614 0.232405 0.813984 -0.131712
O5    O     O_2   0.563091 0.096187 0.912569 -0.202771
O6    O     O_3   0.506255 0.176265 0.722182 -0.562523
O7    O     O_2   0.884477 0.295679 0.302976 -0.231452
O8    O     O_2   0.632290 0.121205 0.293107 -0.345505
O9    O     O_3   0.867636 0.093428 0.160618 -0.367659
O10   O     O_2   0.178518 0.889293 0.844579 -0.153589
O11   O     O_2   0.334222 0.831526 0.691516 -0.366790
O12   O     O_R   0.390320 0.738470 0.493120 -0.561468
O13   O     O_3   0.062568 0.660124 0.735594 -0.482923
O14   O     O_2   0.861328 0.725558 0.351572 -0.264512
O15   O     O_2   0.985357 0.833333 0.509516 -0.299129
O16   O     O_3   0.173522 0.802767 0.350838 -0.482893
O17   O     O_2   0.843175 0.189231 0.623892 -0.246362
O18   O     O_2   0.027926 0.174213 0.478713 -0.290299
O19   O     O_3   0.149271 0.264591 0.655882 -0.472450
O20   O     O_R   0.323330 0.288220 0.488910 -0.600877
O21   O     O_R   0.676670 0.711780 0.511090 -0.587650
O22   O     O_R   0.619510 0.488830 0.661140 -0.599249
O23   O     O_R   0.380490 0.511170 0.338860 -0.600445
O24   O     O_R   0.333160 0.515520 0.643180 -0.518440
O25   O     O_R   0.666840 0.484480 0.356820 -0.541255
O26   O     O_2   0.108837 0.545171 0.217316 -0.185612
S1    S     S_3+6 0.196715 0.429575 0.156151 0.170771
S2    S     S_3+6 0.606492 0.223910 0.830981 0.155898
S3    S     S_3+6 0.763392 0.216451 0.231142 0.143055
S4    S     S_3+6 0.233392 0.759221 0.780564 0.118294
S5    S     S_3+6 0.010416 0.727726 0.422296 0.186443
S6    S     S_3+6 0.991659 0.268621 0.569794 0.200827
Zn1   Zn    Zn3+2 0.691200 0.482180 0.511990 1.202824
Zn2   Zn    Zn3+2 0.308800 0.517820 0.488010 1.195924

loop_
_geom_bond_atom_site_label_1
_geom_bond_atom_site_label_2
_ccdc_geom_bond_type
O14   S5    D    
C15   F2    S    
C11   C12   S    
C6    C14   A    
C1    O20   A    
O6    S2    S    
H6    O13   S    
N1    Zn2   S    
C4    C12   A    
O2    S1    D    
O20   Zn2   S    
C3    C13   A    
O15   S5    D    
O7    S3    D    
C2    C12   A    
N2    Zn1   S    
O5    S2    D    
C1    O1    A    
O19   S6    S    
C2    S3    S    
C10   O24   A    
C7    C8    D    
O17   S6    D    
C16   S4    S    
C2    C15   A    
H3    O3    S    
C14   F1    S    
C8    H2    S    
O23   Zn2   S    
H8    O19   S    
O3    S1    S    
H7    O16   S    
O12   Zn2   S    
O13   S4    S    
C7    H1    S    
N2    S6    S    
C11   O23   A    
C5    C6    A    
H4    O6    S    
O1    Zn1   S    
C5    C15   A    
O21   Zn1   S    
O16   S5    S    
O10   S4    D    
C10   O22   A    
N1    N2    D    
C9    O21   A    
C4    C6    A    
O8    S3    D    
C3    S2    S    
C13   C16   A    
C4    S1    S    
O22   Zn1   S    
O26   S1    D    
C1    C7    S    
O24   Zn2   S    
N1    S5    S    
O18   S6    D    
C14   C16   A    
H5    O9    S    
O11   S4    D    
O25   Zn1   S    
O4    S2    D    
C9    O12   A    
O9    S3    S    
C8    C9    S    
C3    C5    A    
C10   C13   S    
C11   O25   A    
