data_mof_unit_40587.cif
_audit_creation_date              2012-12-11T15:12:48-0500
_audit_creation_method            fapswitch 2.2
_symmetry_space_group_name_H-M    P1
_symmetry_Int_Tables_number       1
_space_group_crystal_system       triclinic
_cell_length_a                    22.277254
_cell_length_b                    6.941738
_cell_length_c                    19.445386
_cell_angle_alpha                 90.002511
_cell_angle_beta                  99.259635
_cell_angle_gamma                 90.000946
_cell_volume                      2967.90568953

loop_
_atom_site_label
_atom_site_type_symbol
_atom_type_description
_atom_site_fract_x
_atom_site_fract_y
_atom_site_fract_z
_atom_type_partial_charge
O1    O     O_R   0.448420 0.506120 0.415750 -0.537293
O2    O     O_R   0.551580 0.006120 0.584250 -0.537287
O3    O     O_R   0.436490 0.174470 0.555610 -0.537523
O4    O     O_R   0.563510 0.674470 0.444390 -0.537524
C1    C     C_R   0.421052 0.344622 0.575667 0.720965
C2    C     C_R   0.578949 0.844621 0.424335 0.720957
O5    O     O_R   0.441310 0.176330 0.414520 -0.536311
O6    O     O_R   0.558690 0.676330 0.585480 -0.536311
O7    O     O_R   0.556430 0.007110 0.442150 -0.535853
O8    O     O_R   0.443570 0.507110 0.557850 -0.535859
C3    C     C_R   0.426996 0.344845 0.388242 0.698476
C4    C     C_R   0.573002 0.844855 0.611759 0.698480
O9    O     O_3   0.537770 0.339560 0.509230 -0.365987
O10   O     O_3   0.462230 0.839560 0.490770 -0.365992
V1    V     V_3+5 0.492990 0.064280 0.498290 1.422871
V2    V     V_3+5 0.507010 0.564280 0.501710 1.422861
C5    C     C_R   0.867661 0.967779 0.695901 -0.165133
C6    C     C_R   0.132367 0.468317 0.304081 -0.165158
H1    H     H_    0.955372 0.990198 0.759599 0.102858
H2    H     H_    0.044658 0.490746 0.240384 0.102870
H3    H     H_    0.784416 0.979257 0.582327 0.118383
H4    H     H_    0.215625 0.480044 0.417636 0.118391
H5    H     H_    0.886075 0.994022 0.648443 0.108485
H6    H     H_    0.113967 0.494813 0.351529 0.108494
C7    C     C_R   0.884785 0.940655 0.821465 -0.060143
C8    C     C_R   0.115221 0.440713 0.178532 -0.060159
C9    C     C_R   0.589919 0.799179 0.738419 -0.214556
C10   C     C_R   0.410066 0.298844 0.261601 -0.214490
C11   C     C_R   0.627386 0.763982 0.801326 -0.179578
C12   C     C_R   0.372589 0.263521 0.198711 -0.179603
C13   C     C_R   0.690736 0.779948 0.807468 0.292418
C14   C     C_R   0.309243 0.279615 0.192568 0.292338
C15   C     C_R   0.717327 0.855132 0.750878 0.032737
C16   C     C_R   0.282669 0.355069 0.249131 0.032770
C17   C     C_R   0.678368 0.878764 0.685006 0.021711
C18   C     C_R   0.321638 0.378866 0.314988 0.021700
C19   C     C_R   0.781167 0.898671 0.755815 0.077142
C20   C     C_R   0.218836 0.398726 0.244184 0.077135
C21   C     C_R   0.805057 0.936926 0.693665 0.134085
C22   C     C_R   0.194963 0.437302 0.306321 0.134091
C23   C     C_R   0.766388 0.947833 0.629671 -0.203934
C24   C     C_R   0.233640 0.448375 0.370305 -0.203952
C25   C     C_R   0.704032 0.924315 0.625600 -0.178367
C26   C     C_R   0.295990 0.424715 0.374378 -0.178415
C27   C     C_R   0.822081 0.912917 0.819972 -0.197335
C28   C     C_R   0.177916 0.412795 0.180028 -0.197384
C29   C     C_R   0.907229 0.966608 0.759139 -0.169436
C30   C     C_R   0.092793 0.467002 0.240848 -0.169430
C31   C     C_R   0.614571 0.848992 0.679313 -0.081238
C32   C     C_R   0.385428 0.348939 0.320688 -0.081261
H7    H     H_    0.806497 0.911792 0.869594 0.150601
H8    H     H_    0.193491 0.411423 0.130404 0.150615
H9    H     H_    0.541405 0.775590 0.734784 0.113835
H10   H     H_    0.458574 0.275127 0.265242 0.113817
H11   H     H_    0.607075 0.710909 0.844675 0.120225
H12   H     H_    0.392888 0.210234 0.155383 0.120239
H13   H     H_    0.676036 0.939351 0.574944 0.110188
H14   H     H_    0.323994 0.439885 0.425024 0.110251
C33   C     C_3   0.803465 0.734378 0.256060 -0.326268
C34   C     C_3   0.196536 0.234320 0.743926 -0.326268
C35   C     C_3   0.787655 0.087109 0.248939 -0.392120
C36   C     C_3   0.212320 0.587068 0.751028 -0.392146
C37   C     C_3   0.740545 0.067367 0.299457 -0.368598
C38   C     C_3   0.259425 0.567295 0.700506 -0.368586
H15   H     H_    0.773252 0.702111 0.357170 0.142987
H16   H     H_    0.226790 0.201886 0.642845 0.142991
H17   H     H_    0.846810 0.767113 0.291258 0.140789
H18   H     H_    0.153202 0.267021 0.708706 0.140800
H19   H     H_    0.776718 0.215323 0.215290 0.137096
H20   H     H_    0.223258 0.715308 0.784668 0.137096
H21   H     H_    0.833596 0.112985 0.279643 0.153973
H22   H     H_    0.166377 0.612916 0.720326 0.153972
H23   H     H_    0.764579 0.077176 0.354150 0.156920
H24   H     H_    0.235384 0.576973 0.645814 0.156929
H25   H     H_    0.708073 0.190222 0.291185 0.134544
H26   H     H_    0.291878 0.690205 0.708743 0.134554
C39   C     C_1   0.624217 0.853995 0.378426 -0.194739
C40   C     C_1   0.375787 0.353995 0.621579 -0.194750
C41   C     C_3   0.788222 0.903521 0.203470 0.264382
C42   C     C_3   0.211759 0.403511 0.796508 0.264381
C43   C     C_3   0.752480 0.706982 0.301179 -0.337643
C44   C     C_3   0.247544 0.206898 0.698839 -0.337643
C45   C     C_3   0.705349 0.873009 0.288564 0.236713
C46   C     C_3   0.294649 0.373002 0.711435 0.236710
C47   C     C_3   0.672822 0.863588 0.210674 -0.043893
C48   C     C_3   0.327167 0.363734 0.789330 -0.043953
C49   C     C_3   0.722273 0.880829 0.160174 -0.029964
C50   C     C_3   0.277703 0.380894 0.839817 -0.029906
C51   C     C_1   0.661193 0.862585 0.338830 -0.095947
C52   C     C_1   0.338810 0.362578 0.661175 -0.095968
C53   C     C_1   0.835768 0.923793 0.157688 -0.092832
C54   C     C_1   0.164209 0.423783 0.842284 -0.092853
C55   C     C_1   0.874442 0.938113 0.120307 -0.201759
C56   C     C_1   0.125541 0.438108 0.879672 -0.201739
H27   H     H_    0.712285 0.023097 0.134293 0.087261
H28   H     H_    0.287673 0.523164 0.865707 0.087213
H29   H     H_    0.812550 0.597543 0.230632 0.126125
H30   H     H_    0.187444 0.097498 0.769352 0.126118
H31   H     H_    0.729557 0.566153 0.288571 0.135744
H32   H     H_    0.270486 0.066129 0.711492 0.135739
H33   H     H_    0.645005 0.997928 0.203248 0.104639
H34   H     H_    0.354949 0.498150 0.796740 0.104663
O11   O     O_R   0.056480 0.288780 0.942210 -0.535111
O12   O     O_R   0.943520 0.788780 0.057790 -0.535112
O13   O     O_R   0.058700 0.616820 0.085490 -0.540263
O14   O     O_R   0.941300 0.116820 0.914510 -0.540264
C57   C     C_R   0.072992 0.448509 0.111835 0.696567
C58   C     C_R   0.927011 0.948498 0.888162 0.696567
O15   O     O_R   0.063520 0.618570 0.944410 -0.538125
O16   O     O_R   0.936480 0.118570 0.055590 -0.538126
O17   O     O_R   0.948420 0.787670 0.915740 -0.533574
O18   O     O_R   0.051580 0.287670 0.084260 -0.533566
C59   C     C_R   0.079132 0.449612 0.924245 0.730029
C60   C     C_R   0.920861 0.949613 0.075748 0.730027
O19   O     O_3   0.962260 0.453430 0.990800 -0.366498
O20   O     O_3   0.037740 0.953430 0.009200 -0.366486
V3    V     V_3+5 0.007000 0.728750 0.001710 1.418304
V4    V     V_3+5 0.993000 0.228750 0.998290 1.418306
C61   C     C_3   0.716411 0.742623 0.095812 -0.351905
C62   C     C_3   0.744760 0.541045 0.108607 -0.283357
C63   C     C_3   0.720740 0.401984 0.049876 -0.816768
H35   H     H_    0.671429 0.375184 0.048792 0.225031
H36   H     H_    0.727948 0.461725 0.999105 0.240821
H37   H     H_    0.745468 0.262953 0.058108 0.216946
H38   H     H_    0.794891 0.551192 0.111776 0.199068
H39   H     H_    0.734643 0.478785 0.157663 0.182054
H40   H     H_    0.667944 0.729932 0.072008 0.183032
H41   H     H_    0.738665 0.812459 0.054947 0.160450
C64   C     C_3   0.283557 0.242670 0.904172 -0.351859
C65   C     C_3   0.255226 0.041072 0.891360 -0.283459
C66   C     C_3   0.279188 0.902084 0.950125 -0.816696
H42   H     H_    0.328529 0.875506 0.951354 0.225074
H43   H     H_    0.271828 0.961766 0.000854 0.240768
H44   H     H_    0.254525 0.762945 0.941818 0.216917
H45   H     H_    0.205091 0.051188 0.888129 0.199093
H46   H     H_    0.265400 0.978773 0.842332 0.182071
H47   H     H_    0.332016 0.230009 0.927997 0.183049
H48   H     H_    0.261284 0.312475 0.945029 0.160474
C67   C     C_3   0.626288 0.693326 0.195760 -0.361599
C68   C     C_3   0.567182 0.754653 0.148606 -0.326296
C69   C     C_3   0.525114 0.582749 0.129104 -0.773812
H49   H     H_    0.547485 0.475016 0.099362 0.222071
H50   H     H_    0.513268 0.513855 0.176733 0.228071
H51   H     H_    0.482528 0.632115 0.096084 0.217077
H52   H     H_    0.543010 0.862261 0.176523 0.192968
H53   H     H_    0.577287 0.823235 0.100197 0.187125
H54   H     H_    0.645767 0.567319 0.173044 0.194182
H55   H     H_    0.613099 0.637664 0.244644 0.178737
C70   C     C_3   0.373745 0.193628 0.804287 -0.361547
C71   C     C_3   0.432786 0.255114 0.851537 -0.326212
C72   C     C_3   0.474866 0.083316 0.871147 -0.774121
H56   H     H_    0.452433 0.975444 0.900748 0.222139
H57   H     H_    0.486890 0.014578 0.823587 0.228136
H58   H     H_    0.517346 0.132754 0.904327 0.217094
H59   H     H_    0.456988 0.362736 0.823663 0.192954
H60   H     H_    0.422592 0.323746 0.899902 0.187115
H61   H     H_    0.354264 0.067521 0.826940 0.194143
H62   H     H_    0.387021 0.138098 0.755426 0.178748
N1    N     N_2   0.726553 0.697386 0.867377 -0.553346
H63   H     H_    0.706748 0.702969 0.911770 0.246934
C73   C     C_3   0.750879 0.508794 0.855745 -0.548752
H64   H     H_    0.783516 0.464600 0.902331 0.196702
H65   H     H_    0.775674 0.511015 0.810545 0.216604
H66   H     H_    0.713519 0.401213 0.846136 0.196963
N2    N     N_2   0.273409 0.196887 0.132700 -0.553374
H67   H     H_    0.293216 0.202255 0.088313 0.246970
C74   C     C_3   0.249083 0.008353 0.144423 -0.548593
H68   H     H_    0.216497 0.963873 0.097827 0.196601
H69   H     H_    0.224228 0.010827 0.189572 0.216612
H70   H     H_    0.286454 0.900837 0.154161 0.196986

loop_
_geom_bond_atom_site_label_1
_geom_bond_atom_site_label_2
_ccdc_geom_bond_type
O18   V4    S    
C50   H28   S    
O4    V2    S    
N2    H67   S    
C9    C11   A    
C57   O18   A    
C65   H45   S    
O1    C3    A    
C66   H44   S    
O2    C4    A    
O16   V4    S    
C2    O7    A    
C41   C49   S    
C4    C31   S    
O15   V3    S    
C74   H69   S    
C66   H43   S    
C40   C52   T    
O5    C3    A    
O13   C57   A    
C67   H54   S    
C5    H5    S    
C46   C52   S    
C6    H6    S    
C36   C42   S    
O11   C59   A    
C46   C48   S    
O12   V3    S    
C34   H30   S    
C69   H50   S    
C48   C50   S    
H16   C44   S    
C27   H7    S    
C28   H8    S    
O20   V3    S    
C36   H20   S    
C5    C21   A    
C72   H58   S    
C35   C37   S    
C6    C22   A    
C38   C46   S    
C47   H33   S    
C36   C38   S    
C33   H17   S    
C34   C44   S    
C64   H48   S    
C26   H14   S    
C63   H37   S    
C49   H27   S    
C17   C31   A    
C72   H56   S    
C13   C15   A    
C12   C14   A    
C17   C25   A    
C70   H62   S    
O16   C60   A    
C41   C53   S    
C8    C30   A    
C61   H41   S    
C35   H21   S    
C22   C24   A    
N2    C74   S    
C71   H60   S    
C14   N2    S    
O14   V4    S    
C11   C13   A    
C23   C25   A    
O13   V3    S    
C24   C26   A    
C50   C64   S    
C54   C56   T    
C73   H65   S    
C56   C59   S    
C73   H64   S    
C74   H70   S    
C47   C49   S    
C45   C51   S    
C67   C68   S    
C67   H55   S    
C20   C28   A    
C33   C43   S    
C68   C69   S    
C21   C23   A    
H3    C23   S    
C69   H51   S    
C33   C41   S    
C74   H68   S    
C10   C32   A    
C62   H38   S    
C2    C39   S    
C11   H11   S    
O19   V3    S    
C12   H12   S    
C15   C19   A    
C37   C45   S    
C14   C16   A    
C42   C54   S    
C37   H23   S    
C49   C61   S    
C53   C55   T    
H15   C43   S    
N1    H63   S    
O10   V1    S    
O6    C4    A    
O19   V4    S    
C39   C51   T    
N1    C73   S    
C38   H26   S    
C36   H22   S    
O1    V2    S    
O2    V1    S    
C63   H35   S    
H2    C30   S    
O12   C60   A    
O4    C2    A    
C45   C47   S    
C44   C46   S    
C71   H59   S    
O9    V1    S    
C33   H29   S    
O10   V2    S    
C48   C70   S    
O11   V4    S    
C68   H53   S    
C66   H42   S    
C48   H34   S    
C7    C27   A    
C73   H66   S    
C18   C32   A    
C62   C63   S    
O14   C58   A    
C64   C65   S    
C35   H19   S    
C47   C67   S    
C7    C29   A    
C34   C42   S    
C10   H10   S    
C16   C20   A    
C44   H32   S    
C65   H46   S    
C5    C29   A    
O3    C1    A    
C6    C30   A    
C8    C57   S    
C43   C45   S    
C61   C62   S    
C9    H9    S    
O15   C59   A    
C43   H31   S    
C68   H52   S    
C58   O17   A    
O17   V3    S    
H1    C29   S    
C10   C12   A    
C65   C66   S    
O7    V1    S    
C1    O8    A    
C42   C50   S    
C3    C32   S    
O8    V2    S    
C70   C71   S    
C20   C22   A    
H4    C24   S    
C37   H25   S    
C35   C41   S    
O5    V1    S    
C15   C17   A    
C16   C18   A    
O20   V4    S    
C62   H39   S    
C55   C60   S    
C72   H57   S    
C63   H36   S    
C18   C26   A    
C25   H13   S    
C19   C21   A    
C64   H47   S    
C34   H18   S    
O6    V2    S    
O9    V2    S    
C38   H24   S    
C71   C72   S    
O3    V1    S    
C70   H61   S    
C1    C40   S    
C69   H49   S    
C8    C28   A    
C19   C27   A    
C13   N1    S    
C9    C31   A    
C7    C58   S    
C61   H40   S    
