data_mof_unit_44351.cif
_audit_creation_date              2012-12-11T15:23:54-0500
_audit_creation_method            fapswitch 2.2
_symmetry_space_group_name_H-M    P1
_symmetry_Int_Tables_number       1
_space_group_crystal_system       triclinic
_cell_length_a                    17.515799
_cell_length_b                    24.668545
_cell_length_c                    14.967318
_cell_angle_alpha                 89.815413
_cell_angle_beta                  125.434886
_cell_angle_gamma                 89.552372
_cell_volume                      5268.92752869

loop_
_atom_site_label
_atom_site_type_symbol
_atom_type_description
_atom_site_fract_x
_atom_site_fract_y
_atom_site_fract_z
_atom_type_partial_charge
C1    C     C_R   0.320564 0.366428 0.908355 -0.061534
C2    C     C_R   0.460561 0.501886 0.645958 0.164237
C3    C     C_2   0.303297 0.096625 0.315346 0.501719
C4    C     C_2   0.956778 0.402586 0.434109 0.500283
C5    C     C_2   0.143829 0.420171 0.453818 0.557883
C6    C     C_2   0.456756 0.902518 0.433614 0.500239
C7    C     C_2   0.643970 0.920352 0.453774 0.557342
C8    C     C_R   0.948639 0.002189 0.272941 0.100564
C9    C     C_R   0.960610 0.001882 0.645990 0.164291
C10   C     C_R   0.198311 0.500146 0.636994 0.118670
C11   C     C_R   0.825082 0.496098 0.295386 0.144332
C12   C     C_R   0.698199 0.000143 0.637097 0.118816
C13   C     C_R   0.325078 0.996103 0.295188 0.144212
C14   C     C_2   0.981843 0.450518 0.396521 -0.157085
C15   C     C_2   0.082099 0.460181 0.457740 -0.150179
C16   C     C_2   0.481852 0.950524 0.396250 -0.157391
C17   C     C_R   0.678588 0.364633 0.087437 -0.088420
C18   C     C_2   0.582104 0.960241 0.457720 -0.149610
C19   C     C_2   0.924016 0.492967 0.339419 -0.067670
C20   C     C_2   0.112594 0.501640 0.528086 -0.055058
C21   C     C_2   0.424019 0.992982 0.339212 -0.068321
C22   C     C_2   0.612439 0.001617 0.528236 -0.055106
C23   C     C_R   0.245043 0.739375 0.904967 -0.145786
C24   C     C_R   0.762723 0.725823 0.072409 -0.172251
C25   C     C_R   0.745413 0.239729 0.904544 -0.145217
C26   C     C_R   0.262780 0.225780 0.072403 -0.172076
C27   C     C_R   0.695007 0.281873 0.902901 -0.160645
C28   C     C_R   0.820549 0.866441 0.908361 -0.061632
C29   C     C_R   0.314184 0.266832 0.074496 -0.156639
C30   C     C_R   0.194612 0.781492 0.903323 -0.160547
C31   C     C_R   0.814122 0.766887 0.074538 -0.156668
C32   C     C_R   0.737473 0.318781 0.988126 0.068577
C33   C     C_R   0.269465 0.310370 0.002786 0.063380
C34   C     C_R   0.237239 0.818610 0.988168 0.068286
C35   C     C_R   0.769419 0.810404 0.002800 0.063484
C36   C     C_R   0.835299 0.318367 0.068729 -0.207585
C37   C     C_R   0.170727 0.315086 0.930875 -0.246217
C38   C     C_R   0.335114 0.818347 0.068470 -0.207676
C39   C     C_R   0.178523 0.864584 0.087449 -0.088938
C40   C     C_R   0.670687 0.815088 0.930817 -0.246205
C41   C     C_R   0.388388 0.775136 0.069091 0.390192
C42   C     C_R   0.616899 0.772404 0.928427 0.396452
C43   C     C_R   0.888559 0.275147 0.069327 0.389558
C44   C     C_R   0.116939 0.272411 0.928508 0.396493
C45   C     C_R   0.438860 0.649972 0.089689 -0.023457
C46   C     C_R   0.562776 0.647562 0.905972 -0.025755
C47   C     C_R   0.938850 0.149979 0.089676 -0.023429
C48   C     C_R   0.062773 0.147568 0.905981 -0.025726
C49   C     C_R   0.339695 0.733551 0.990783 0.029269
C50   C     C_R   0.377690 0.680584 0.997661 0.159780
C51   C     C_R   0.665599 0.727338 0.998434 0.005964
C52   C     C_R   0.839895 0.233672 0.990734 0.029878
C53   C     C_R   0.165637 0.227326 0.998466 0.005712
C54   C     C_R   0.445303 0.553367 0.490080 0.295195
C55   C     C_R   0.407560 0.554305 0.378917 0.287936
C56   C     C_R   0.945360 0.053363 0.490122 0.295118
C57   C     C_R   0.907602 0.054306 0.378956 0.287947
C58   C     C_R   0.403256 0.505163 0.329725 -0.033948
C59   C     C_R   0.437522 0.504576 0.535090 -0.106046
C60   C     C_R   0.903277 0.005167 0.329747 -0.033906
C61   C     C_R   0.622428 0.678348 0.995796 0.157042
C62   C     C_R   0.937580 0.004571 0.535128 -0.105947
C63   C     C_R   0.390895 0.457356 0.369741 -0.184921
C64   C     C_R   0.402908 0.457857 0.469645 -0.117636
C65   C     C_R   0.890917 0.957358 0.369761 -0.185013
C66   C     C_R   0.902953 0.957855 0.469676 -0.117547
C67   C     C_R   0.482433 0.455831 0.252755 -0.090310
C68   C     C_R   0.464955 0.455504 0.702560 -0.103431
C69   C     C_R   0.982446 0.955833 0.252772 -0.090363
C70   C     C_R   0.965000 0.955499 0.702589 -0.103041
C71   C     C_R   0.246597 0.545138 0.697075 -0.093118
C72   C     C_R   0.877684 0.180607 0.997646 0.159226
C73   C     C_R   0.769939 0.543012 0.265407 -0.095715
C74   C     C_R   0.746521 0.045137 0.697129 -0.092942
C75   C     C_R   0.269939 0.043014 0.265305 -0.095556
C76   C     C_R   0.480347 0.546250 0.246834 -0.100559
C77   C     C_R   0.462719 0.545906 0.703874 -0.046476
C78   C     C_R   0.980350 0.046251 0.246835 -0.100529
C79   C     C_R   0.962741 0.045905 0.703886 -0.046438
C80   C     C_R   0.244657 0.454509 0.700142 -0.054381
C81   C     C_R   0.766660 0.452440 0.260980 -0.005859
C82   C     C_R   0.744604 0.954505 0.700199 -0.054148
C83   C     C_R   0.122430 0.178350 0.995815 0.157029
C84   C     C_R   0.266659 0.952444 0.260844 -0.005951
C85   C     C_R   0.349970 0.649840 0.907512 -0.105193
C86   C     C_R   0.647950 0.650050 0.088446 -0.114317
C87   C     C_R   0.849975 0.149844 0.907509 -0.105009
C88   C     C_R   0.147949 0.150050 0.088455 -0.114318
C89   C     C_R   0.414754 0.363545 0.092436 -0.138501
C90   C     C_R   0.591223 0.372042 0.904708 -0.125849
C91   C     C_R   0.914738 0.863561 0.092439 -0.138510
C92   C     C_R   0.091167 0.871985 0.904706 -0.125803
C93   C     C_R   0.329917 0.347559 0.000796 0.131691
C94   C     C_R   0.448629 0.502187 0.272930 0.100602
C95   C     C_R   0.674668 0.353040 0.994576 0.142521
C96   C     C_R   0.829888 0.847584 0.000804 0.131630
C97   C     C_R   0.174563 0.852963 0.994591 0.142942
C98   C     C_2   0.880804 0.362139 0.151316 0.558118
C99   C     C_2   0.124629 0.363617 0.859009 0.590010
C100  C     C_2   0.380641 0.862259 0.150748 0.558372
C101  C     C_2   0.624597 0.863582 0.858867 0.589830
C102  C     C_2   0.242291 0.598765 0.650500 0.525928
C103  C     C_2   0.803274 0.596628 0.315427 0.501879
C104  C     C_2   0.742120 0.098763 0.650499 0.526035
H1    H     H_    0.266292 0.357635 0.823564 0.087443
H2    H     H_    0.800130 0.691019 0.125263 0.165143
H3    H     H_    0.706695 0.209020 0.842780 0.146365
H4    H     H_    0.300184 0.190966 0.125242 0.165200
H5    H     H_    0.620132 0.281816 0.840208 0.136479
H6    H     H_    0.389827 0.262576 0.128075 0.147162
H7    H     H_    0.119666 0.781315 0.840951 0.136575
H8    H     H_    0.889758 0.762646 0.128171 0.147153
H9    H     H_    0.379069 0.419112 0.328567 0.158428
H10   H     H_    0.392796 0.420283 0.498475 0.172376
H11   H     H_    0.879076 0.919116 0.328574 0.158421
H12   H     H_    0.727069 0.347191 0.167815 0.097680
H13   H     H_    0.892841 0.920280 0.498506 0.172284
H14   H     H_    0.479725 0.663123 0.173746 0.171263
H15   H     H_    0.524942 0.658910 0.820406 0.168868
H16   H     H_    0.979735 0.163126 0.173731 0.171421
H17   H     H_    0.024935 0.158927 0.820419 0.168752
H18   H     H_    0.479717 0.415326 0.276849 0.100015
H19   H     H_    0.449754 0.414512 0.672556 0.107443
H20   H     H_    0.979751 0.915330 0.276891 0.100030
H21   H     H_    0.949828 0.914505 0.672601 0.107327
H22   H     H_    0.473064 0.588352 0.258066 0.167291
H23   H     H_    0.766277 0.857645 0.823573 0.087434
H24   H     H_    0.441713 0.587029 0.674869 0.148012
H25   H     H_    0.973064 0.088354 0.258060 0.167322
H26   H     H_    0.941733 0.087027 0.674874 0.148002
H27   H     H_    0.230403 0.412800 0.674050 0.098946
H28   H     H_    0.786715 0.410737 0.275529 0.109442
H29   H     H_    0.730337 0.912798 0.674086 0.098937
H30   H     H_    0.286711 0.910743 0.275328 0.109377
H31   H     H_    0.310795 0.664153 0.823913 0.127732
H32   H     H_    0.684101 0.666667 0.169453 0.143967
H33   H     H_    0.810930 0.164164 0.823927 0.127600
H34   H     H_    0.226960 0.847120 0.167821 0.097885
H35   H     H_    0.184113 0.166667 0.169468 0.144056
H36   H     H_    0.448433 0.349124 0.175373 0.104369
H37   H     H_    0.563784 0.367420 0.819531 0.104651
H38   H     H_    0.948419 0.849147 0.175376 0.104356
H39   H     H_    0.063702 0.867292 0.819528 0.104695
H40   H     H_    0.940027 0.352955 0.234518 0.061248
H41   H     H_    0.062612 0.359253 0.775825 0.115030
H42   H     H_    0.440062 0.853218 0.233914 0.061335
H43   H     H_    0.562679 0.859175 0.775641 0.115050
H44   H     H_    0.531221 0.851457 0.102334 0.344632
H45   H     H_    0.952684 0.528443 0.325930 0.183696
H46   H     H_    0.477648 0.848379 0.913858 0.343218
H47   H     H_    0.031384 0.351532 0.103181 0.344491
H48   H     H_    0.977947 0.348329 0.914572 0.343310
H49   H     H_    0.607258 0.594834 0.505643 0.327617
H50   H     H_    0.233302 0.600486 0.321140 0.345304
H51   H     H_    0.107306 0.094820 0.505673 0.327618
H52   H     H_    0.733363 0.100503 0.321223 0.345298
H53   H     H_    0.304940 0.623026 0.688906 0.016658
H54   H     H_    0.758225 0.622468 0.325040 0.031314
H55   H     H_    0.804766 0.123018 0.688753 0.016515
H56   H     H_    0.063329 0.532153 0.519062 0.181698
H57   H     H_    0.258291 0.122448 0.325062 0.031429
H58   H     H_    0.981572 0.362627 0.431306 0.024937
H59   H     H_    0.115439 0.381870 0.412415 0.060368
H60   H     H_    0.481372 0.862573 0.430432 0.025052
H61   H     H_    0.615667 0.882085 0.412172 0.060401
H62   H     H_    0.452719 0.028497 0.325892 0.183964
H63   H     H_    0.563080 0.032038 0.519282 0.181632
H64   H     H_    0.206313 0.708529 0.843515 0.146500
N1    N     N_R   0.395440 0.396300 0.944370 -0.050839
N2    N     N_R   0.474910 0.470990 0.794360 -0.051376
N3    N     N_R   0.025090 0.970990 0.205640 -0.045416
N4    N     N_R   0.974910 0.970990 0.794360 -0.051380
N5    N     N_R   0.320240 0.527820 0.794510 -0.079262
N6    N     N_R   0.679760 0.527820 0.205490 -0.084446
N7    N     N_R   0.820240 0.027820 0.794510 -0.079317
N8    N     N_R   0.179760 0.027820 0.205490 -0.084453
N9    N     N_R   0.524580 0.527810 0.205160 -0.061665
N10   N     N_R   0.475420 0.527810 0.794840 -0.071998
N11   N     N_R   0.024580 0.027810 0.205160 -0.061670
N12   N     N_R   0.604560 0.396300 0.055630 -0.051305
N13   N     N_R   0.975420 0.027810 0.794840 -0.071989
N14   N     N_R   0.320750 0.470990 0.794990 -0.050995
N15   N     N_R   0.679250 0.470990 0.205010 -0.065110
N16   N     N_R   0.820750 0.970990 0.794990 -0.051044
N17   N     N_R   0.179250 0.970990 0.205010 -0.065069
N18   N     N_R   0.393580 0.602500 0.942610 -0.059643
N19   N     N_R   0.606420 0.602500 0.057390 -0.062950
N20   N     N_R   0.893580 0.102500 0.942610 -0.059620
N21   N     N_R   0.106420 0.102500 0.057390 -0.062951
N22   N     N_R   0.451750 0.396300 0.057540 -0.045109
N23   N     N_R   0.895440 0.896300 0.944370 -0.050857
N24   N     N_R   0.548250 0.396300 0.942460 -0.049928
N25   N     N_R   0.951750 0.896300 0.057540 -0.045105
N26   N     N_R   0.048250 0.896300 0.942460 -0.049940
N27   N     N_R   0.104560 0.896300 0.055630 -0.051237
N28   N     N_R   0.449890 0.602500 0.055780 -0.061927
N29   N     N_R   0.550110 0.602500 0.944220 -0.062945
N30   N     N_R   0.949890 0.102500 0.055780 -0.061918
N31   N     N_R   0.050110 0.102500 0.944220 -0.062933
N32   N     N_R   0.525090 0.470990 0.205640 -0.045418
Ni1   Ni    Ni4+2 0.435420 0.434250 0.870220 0.242220
Ni2   Ni    Ni4+2 0.564580 0.434250 0.129780 0.256124
Ni3   Ni    Ni4+2 0.935420 0.934250 0.870220 0.242217
Ni4   Ni    Ni4+2 0.064580 0.934250 0.129780 0.256170
Ni5   Ni    Ni4+2 0.563400 0.564580 0.128670 0.243384
Ni6   Ni    Ni4+2 0.436600 0.564580 0.871330 0.242028
Ni7   Ni    Ni4+2 0.063400 0.064580 0.128670 0.243434
Ni8   Ni    Ni4+2 0.936600 0.064580 0.871330 0.242009
O1    O     O_2   0.853925 0.409143 0.126230 -0.582357
O2    O     O_3   0.454327 0.840295 0.837309 -0.492637
O3    O     O_2   0.042351 0.254575 0.271432 -0.262555
O4    O     O_2   0.057294 0.241385 0.120258 -0.307557
O5    O     O_3   0.054077 0.339165 0.177802 -0.518242
O6    O     O_2   0.958136 0.260886 0.728028 -0.230947
O7    O     O_2   0.948915 0.239964 0.881004 -0.309323
O8    O     O_3   0.954517 0.340350 0.837952 -0.492694
O9    O     O_2   0.472235 0.653401 0.574045 -0.191086
O10   O     O_2   0.600560 0.587597 0.684056 -0.299052
O11   O     O_3   0.576622 0.627621 0.510086 -0.441288
O12   O     O_2   0.154426 0.409041 0.892923 -0.554239
O13   O     O_2   0.407324 0.657918 0.319091 -0.195101
O14   O     O_2   0.285458 0.598573 0.178192 -0.287778
O15   O     O_3   0.271232 0.632667 0.332069 -0.444014
O16   O     O_2   0.972304 0.153396 0.574096 -0.191260
O17   O     O_2   0.100618 0.087585 0.684103 -0.299007
O18   O     O_3   0.076690 0.127611 0.510138 -0.441200
O19   O     O_2   0.907382 0.157921 0.319151 -0.195038
O20   O     O_2   0.785488 0.098590 0.178249 -0.287766
O21   O     O_3   0.771303 0.132679 0.332158 -0.444104
O22   O     O_2   0.169906 0.615888 0.567638 -0.532937
O23   O     O_2   0.353538 0.909219 0.125437 -0.582135
O24   O     O_2   0.882033 0.611696 0.350244 -0.561112
O25   O     O_2   0.669649 0.115891 0.567752 -0.532941
O26   O     O_2   0.382023 0.111710 0.350054 -0.561076
O27   O     O_2   0.914950 0.407869 0.476417 -0.536926
O28   O     O_2   0.225399 0.430515 0.492268 -0.593885
O29   O     O_2   0.415105 0.907713 0.476151 -0.536829
O30   O     O_2   0.725556 0.930763 0.492428 -0.594099
O31   O     O_2   0.654289 0.909024 0.892751 -0.554196
O32   O     O_2   0.542388 0.754773 0.271138 -0.262723
O33   O     O_2   0.557080 0.741396 0.119829 -0.307571
O34   O     O_3   0.553790 0.839250 0.176990 -0.518485
O35   O     O_2   0.458242 0.760669 0.727911 -0.230840
O36   O     O_2   0.448839 0.739970 0.880831 -0.309146
S1    S     S_3+6 0.513121 0.775888 0.161106 -0.053943
S2    S     S_3+6 0.491852 0.776699 0.841901 -0.032407
S3    S     S_3+6 0.013278 0.275814 0.161552 -0.053842
S4    S     S_3+6 0.991896 0.276765 0.842143 -0.032432
S5    S     S_3+6 0.524851 0.606327 0.569523 0.019106
S6    S     S_3+6 0.342978 0.612123 0.298113 0.025023
S7    S     S_3+6 0.024914 0.106319 0.569571 0.019087
S8    S     S_3+6 0.843028 0.112131 0.298173 0.025009

loop_
_geom_bond_atom_site_label_1
_geom_bond_atom_site_label_2
_ccdc_geom_bond_type
C45   H14   S    
H44   O34   S    
C67   H18   S    
H51   O18   S    
C16   C21   D    
C7    C18   S    
C12   C22   S    
C101  O31   D    
N14   Ni1   S    
C76   H22   S    
C51   C61   S    
N29   Ni6   S    
C28   N23   A    
N8    N17   A    
C92   N26   A    
C90   N24   A    
C35   C96   S    
C11   C81   A    
H48   O8    S    
C13   C84   A    
C84   H30   S    
C8    C69   A    
N25   Ni4   S    
O9    S5    D    
N2    N10   A    
O33   S1    D    
C32   C36   A    
N8    Ni7   S    
N18   N28   A    
C42   S2    S    
C78   H25   S    
N21   Ni7   S    
C2    C68   A    
C3    O26   D    
C9    C79   A    
C91   N25   A    
C43   C52   A    
C39   C97   A    
C89   N22   A    
C56   S7    S    
C82   N16   A    
C73   N6    A    
C34   C97   S    
C56   C57   A    
C102  H53   S    
C69   N3    A    
O3    S3    D    
N3    Ni4   S    
O5    S3    S    
C92   H39   S    
C70   N4    A    
N2    Ni1   S    
O16   S7    D    
C76   C94   A    
C91   C96   A    
C68   N2    A    
C44   C53   A    
C101  H43   S    
C13   C75   A    
C29   C33   A    
C100  H42   S    
C66   H13   S    
N6    Ni5   S    
C31   H8    S    
C47   N30   A    
N5    Ni6   S    
C17   C95   A    
C80   N14   A    
C20   H56   S    
C3    C75   S    
C50   C85   A    
C28   H23   S    
C42   C51   A    
C91   H38   S    
C41   S1    S    
C10   C71   A    
N21   N31   A    
C45   N28   A    
C40   C42   A    
N26   N27   A    
C99   H41   S    
C39   H34   S    
C86   N19   A    
O17   S7    D    
C80   H27   S    
C18   C22   D    
C8    C78   A    
C65   H11   S    
N3    N11   A    
C84   N17   A    
N28   Ni5   S    
C3    H57   S    
N23   Ni3   S    
N1    N22   A    
C87   H33   S    
O4    S3    D    
C103  O24   D    
H52   O21   S    
C68   H19   S    
C41   C49   A    
C6    O29   D    
C92   C97   A    
H49   O11   S    
C54   C59   A    
C102  O22   D    
C15   C20   D    
C98   O1    D    
N11   Ni7   S    
O34   S1    S    
C64   H10   S    
C30   C34   A    
C46   C61   A    
C13   C21   S    
C9    C62   S    
O21   S8    S    
C23   C30   A    
C29   H6    S    
C90   C95   A    
N13   Ni8   S    
C27   C32   A    
C9    C70   A    
N32   Ni2   S    
C38   C41   A    
C38   C100  S    
C76   N9    A    
N12   N24   A    
C26   H4    S    
C48   H17   S    
C62   C66   A    
N18   Ni6   S    
C2    C59   S    
N22   Ni2   S    
C46   N29   A    
N27   Ni4   S    
C48   N31   A    
C69   H20   S    
C63   C64   A    
C79   H26   S    
C39   N27   A    
N9    N32   A    
C89   C93   A    
C33   C37   A    
C21   H62   S    
C71   N5    A    
N4    Ni3   S    
N7    Ni8   S    
N23   N25   A    
C88   H35   S    
C52   C72   S    
C67   C94   A    
O10   S5    D    
C7    O30   D    
N20   N30   A    
N24   Ni1   S    
C89   H36   S    
C11   C19   S    
C99   O12   D    
N19   Ni5   S    
N4    N13   A    
C59   C64   A    
C55   S6    S    
C12   C82   A    
C81   H28   S    
C57   S8    S    
C5    O28   D    
C43   S3    S    
C77   H24   S    
C85   H31   S    
C22   H63   S    
O14   S6    D    
C70   H21   S    
C16   C18   S    
C47   H16   S    
C71   C102  S    
N19   N29   A    
N5    N14   A    
C67   N32   A    
C11   C73   A    
O32   S1    D    
C73   C103  S    
C4    O27   D    
C4    H58   S    
C5    H59   S    
H50   O15   S    
C24   H2    S    
C81   N15   A    
C104  H55   S    
C26   C53   A    
H46   O2    S    
N1    Ni1   S    
C37   C99   S    
C72   C87   A    
O15   S6    S    
C74   C104  S    
C40   C101  S    
C86   H32   S    
C85   N18   A    
O36   S2    D    
C54   C55   A    
N20   Ni8   S    
O35   S2    D    
C10   C80   A    
C98   H40   S    
N30   Ni7   S    
C34   C38   A    
N15   Ni2   S    
C14   C19   D    
C100  O23   D    
C58   C63   A    
C6    H60   S    
O18   S7    S    
C57   C60   A    
C33   C93   S    
N6    N15   A    
C60   C65   A    
O6    S4    D    
C103  H54   S    
C104  O25   D    
C87   N20   A    
C7    H61   S    
C17   N12   A    
O8    S4    S    
N12   Ni2   S    
C77   N10   A    
C48   C83   A    
C53   C83   S    
C30   H7    S    
C28   C96   A    
C82   H29   S    
C35   C40   A    
C58   C94   S    
C25   C52   A    
H47   O5    S    
C74   N7    A    
C2    C77   A    
C12   C74   A    
C8    C60   S    
C78   N11   A    
C10   C20   S    
C45   C50   A    
C24   C51   A    
N26   Ni3   S    
N10   Ni6   S    
C31   C35   A    
C1    N1    A    
N31   Ni8   S    
C19   H45   S    
C54   S5    S    
N9    Ni5   S    
C46   H15   S    
C83   C88   A    
C56   C62   A    
C65   C66   A    
C4    C14   S    
C5    C15   S    
C47   C72   A    
C24   C31   A    
C90   H37   S    
C23   C49   A    
C61   C86   A    
C44   S4    S    
C6    C16   S    
C23   H64   S    
C63   H9    S    
C37   C44   A    
C79   N13   A    
O7    S4    D    
C32   C95   S    
O13   S6    D    
C27   H5    S    
C26   C29   A    
C1    C93   A    
C49   C50   S    
O11   S5    S    
C55   C58   A    
N17   Ni4   S    
N16   Ni3   S    
O2    S2    S    
C14   C15   S    
O19   S8    D    
C36   C43   A    
C36   C98   S    
O20   S8    D    
C75   N8    A    
C25   H3    S    
C17   H12   S    
C1    H1    S    
C88   N21   A    
N7    N16   A    
C25   C27   A    
