data_mof_unit_7669.cif
_audit_creation_date              2012-12-10T18:56:00-0500
_audit_creation_method            fapswitch 2.2
_symmetry_space_group_name_H-M    P1
_symmetry_Int_Tables_number       1
_space_group_crystal_system       triclinic
_cell_length_a                    10.709784
_cell_length_b                    9.822991
_cell_length_c                    14.755889
_cell_angle_alpha                 89.90103
_cell_angle_beta                  90.290149
_cell_angle_gamma                 90.160017
_cell_volume                      1552.32244807

loop_
_atom_site_label
_atom_site_type_symbol
_atom_type_description
_atom_site_fract_x
_atom_site_fract_y
_atom_site_fract_z
_atom_type_partial_charge
C1    C     C_R   0.259916 0.499702 0.499880 1.012902
C2    C     C_R   0.934762 0.601698 0.451035 0.247245
C3    C     C_R   0.934505 0.400216 0.550380 0.258186
C4    C     C_R   0.064594 0.599738 0.449640 0.267000
C5    C     C_R   0.537304 0.612902 0.085357 -0.254427
C6    C     C_R   0.520610 0.387824 0.914675 -0.260913
C7    C     C_R   0.648579 0.590114 0.897024 -0.262397
C8    C     C_R   0.638702 0.394253 0.102904 -0.267712
C9    C     C_R   0.499624 0.609855 0.175038 0.454770
C10   C     C_R   0.481713 0.397368 0.825146 0.442127
C11   C     C_R   0.620929 0.593231 0.805011 0.439821
C12   C     C_R   0.739836 0.500140 0.500051 0.971367
C13   C     C_R   0.613192 0.395583 0.195031 0.441492
C14   C     C_R   0.537231 0.500377 0.230908 -0.282557
C15   C     C_R   0.533448 0.499068 0.769275 -0.278386
C16   C     C_R   0.600486 0.502338 0.048533 0.007002
C17   C     C_R   0.598729 0.487626 0.951319 0.011691
C18   C     C_R   0.872123 0.499985 0.499692 -0.250073
C19   C     C_R   0.127195 0.499181 0.499694 -0.220167
C20   C     C_3   0.300781 0.678860 0.208343 0.115005
C21   C     C_3   0.241097 0.681974 0.113378 -0.414463
C22   C     C_3   0.100357 0.658149 0.117955 -0.931413
C23   C     C_R   0.506509 0.500069 0.326916 0.885995
C24   C     C_3   0.271872 0.369966 0.801622 0.110037
C25   C     C_3   0.213170 0.338066 0.894005 -0.383099
C26   C     C_3   0.080053 0.392190 0.899872 -0.955824
C27   C     C_3   0.786870 0.648261 0.714620 0.091707
C28   C     C_3   0.898429 0.695209 0.772010 -0.377441
C29   C     C_3   0.021774 0.661293 0.725849 -0.954570
C30   C     C_3   0.772084 0.328930 0.289365 0.135787
C31   C     C_3   0.883545 0.289011 0.230385 -0.390489
C32   C     C_3   0.007079 0.318203 0.278757 -0.957070
C33   C     C_R   0.504733 0.499978 0.673103 0.907702
C34   C     C_R   0.578853 0.072144 0.555691 -0.037126
C35   C     C_R   0.421245 0.927879 0.444205 -0.024891
C36   C     C_R   0.421218 0.071914 0.444227 -0.030101
C37   C     C_R   0.578853 0.928156 0.555672 -0.046644
C38   C     C_R   0.064121 0.395744 0.546785 0.245191
H1    H     H_    0.641788 0.126924 0.600215 0.170365
H2    H     H_    0.285411 0.577908 0.241147 0.127816
H3    H     H_    0.259425 0.782346 0.081137 0.238555
H4    H     H_    0.282083 0.601110 0.070345 0.216936
H5    H     H_    0.080238 0.556723 0.147936 0.271513
H6    H     H_    0.059962 0.661455 0.048528 0.266184
H7    H     H_    0.055264 0.738223 0.159463 0.266430
H8    H     H_    0.211022 0.325620 0.748364 0.221574
H9    H     H_    0.273210 0.482166 0.789174 0.108294
H10   H     H_    0.212055 0.226089 0.904904 0.239744
H11   H     H_    0.268874 0.385917 0.949043 0.213905
H12   H     H_    0.358390 0.873097 0.399629 0.167010
H13   H     H_    0.080511 0.504883 0.894430 0.272008
H14   H     H_    0.039115 0.363619 0.966265 0.269040
H15   H     H_    0.020974 0.348594 0.844977 0.267268
H16   H     H_    0.795933 0.695283 0.646603 0.176687
H17   H     H_    0.790029 0.535699 0.704458 0.139502
H18   H     H_    0.893050 0.807047 0.782548 0.240055
H19   H     H_    0.896222 0.644265 0.839166 0.215342
H20   H     H_    0.030758 0.549500 0.717235 0.267335
H21   H     H_    0.100848 0.697962 0.768285 0.266369
H22   H     H_    0.027159 0.711426 0.658428 0.272366
H23   H     H_    0.358274 0.126545 0.399702 0.135470
H24   H     H_    0.779645 0.272769 0.354510 0.190182
H25   H     H_    0.776729 0.439593 0.306292 0.128533
H26   H     H_    0.877905 0.178707 0.214169 0.241472
H27   H     H_    0.881547 0.347550 0.165958 0.217341
H28   H     H_    0.016277 0.428783 0.292668 0.269590
H29   H     H_    0.085944 0.286591 0.235077 0.265709
H30   H     H_    0.012555 0.261008 0.343672 0.272045
H31   H     H_    0.079283 0.208973 0.589522 0.349765
H32   H     H_    0.913546 0.787132 0.408130 0.346759
H33   H     H_    0.918674 0.288519 0.658898 0.333623
H34   H     H_    0.641815 0.873718 0.600141 0.159472
H35   H     H_    0.080403 0.718104 0.344353 0.332059
H36   H     H_    0.506231 0.695767 0.042227 0.170514
H37   H     H_    0.480061 0.310252 0.957885 0.166713
H38   H     H_    0.706041 0.669504 0.926696 0.165830
H39   H     H_    0.686501 0.307992 0.073452 0.169050
H40   H     H_    0.252589 0.755531 0.250472 0.194601
N1    N     N_R   0.500000 0.857200 0.500000 -0.088860
N2    N     N_R   0.500000 0.142800 0.500000 -0.085443
O1    O     O_R   0.316770 0.614620 0.499990 -0.590948
O2    O     O_3   0.391007 0.308517 0.793503 -0.615548
O3    O     O_3   0.673099 0.694602 0.751978 -0.635308
O4    O     O_3   0.657691 0.289870 0.248150 -0.620635
O5    O     O_3   0.130956 0.292779 0.588479 -0.770963
O6    O     O_3   0.867191 0.699807 0.404890 -0.752265
O7    O     O_3   0.866881 0.313388 0.605592 -0.780062
O8    O     O_3   0.132410 0.688957 0.396490 -0.793048
O9    O     O_R   0.683230 0.385380 0.500010 -0.601995
O10   O     O_R   0.683230 0.614620 0.500010 -0.595285
O11   O     O_R   0.316770 0.385380 0.499990 -0.583441
O12   O     O_R   0.499990 0.614660 0.369060 -0.570626
O13   O     O_R   0.500010 0.385340 0.630940 -0.574709
O14   O     O_R   0.500010 0.614660 0.630940 -0.602212
O15   O     O_R   0.499990 0.385340 0.369060 -0.602861
O16   O     O_3   0.428439 0.716745 0.206866 -0.623573
Zn1   Zn    Zn3+2 0.500000 0.653120 0.500000 1.009816
Zn2   Zn    Zn3+2 0.500000 0.346880 0.500000 1.009669

loop_
_geom_bond_atom_site_label_1
_geom_bond_atom_site_label_2
_ccdc_geom_bond_type
C8    C13   A    
C2    C18   A    
C34   C37   A    
C35   C36   A    
C33   O14   A    
C28   H18   S    
C27   H16   S    
C6    H37   S    
C28   H19   S    
C7    C11   A    
C37   N1    A    
C13   O4    S    
C12   O10   A    
C28   C29   S    
C10   C15   A    
C30   C31   S    
C20   H2    S    
C27   H17   S    
C1    O1    A    
C3    C18   A    
C5    H36   S    
C24   O2    S    
C5    C16   A    
C34   N2    A    
C4    C19   A    
C11   C15   A    
C22   H6    S    
C29   H21   S    
C3    C38   A    
C16   C17   S    
C7    C17   A    
C13   C14   A    
O10   Zn1   S    
C32   H30   S    
C20   O16   S    
C1    O11   A    
C21   C22   S    
O12   Zn1   S    
C1    C19   S    
C38   O5    S    
C3    O7    S    
C34   H1    S    
C12   O9    A    
C24   C25   S    
C36   N2    A    
O14   Zn1   S    
C11   O3    S    
C25   C26   S    
C10   O2    S    
C14   C23   S    
C2    C4    A    
C9    C14   A    
H35   O8    S    
C5    C9    A    
C19   C38   A    
C26   H14   S    
C22   H5    S    
C25   H10   S    
C29   H22   S    
C35   H12   S    
C29   H20   S    
C9    O16   S    
C32   H29   S    
H33   O7    S    
C30   H24   S    
C8    H39   S    
C21   H3    S    
C36   H23   S    
H32   O6    S    
C26   H15   S    
H31   O5    S    
C32   H28   S    
C31   H27   S    
C6    C17   A    
N2    Zn2   S    
C24   H9    S    
C31   H26   S    
N1    Zn1   S    
C31   C32   S    
C33   O13   A    
C6    C10   A    
C7    H38   S    
C4    O8    S    
C20   H40   S    
O9    Zn2   S    
C24   H8    S    
C27   O3    S    
C26   H13   S    
O1    Zn1   S    
C35   N1    A    
C23   O15   A    
C2    O6    S    
O11   Zn2   S    
C30   O4    S    
C25   H11   S    
C21   H4    S    
C22   H7    S    
C20   C21   S    
C8    C16   A    
C37   H34   S    
C12   C18   S    
C27   C28   S    
C23   O12   A    
C30   H25   S    
O15   Zn2   S    
O13   Zn2   S    
C15   C33   S    
