data_mof_unit_35779.cif
_audit_creation_date              2012-12-11T14:07:49-0500
_audit_creation_method            fapswitch 2.2
_symmetry_space_group_name_H-M    P1
_symmetry_Int_Tables_number       1
_space_group_crystal_system       triclinic
_cell_length_a                    19.825001
_cell_length_b                    17.013378
_cell_length_c                    15.404849
_cell_angle_alpha                 89.724894
_cell_angle_beta                  52.994884
_cell_angle_gamma                 89.569514
_cell_volume                      4149.23776324

loop_
_atom_site_label
_atom_site_type_symbol
_atom_type_description
_atom_site_fract_x
_atom_site_fract_y
_atom_site_fract_z
_atom_type_partial_charge
C1    C     C_R   0.338376 0.172300 0.054680 -0.130827
C2    C     C_R   0.653521 0.817268 0.070100 0.164862
C3    C     C_R   0.558536 0.637325 0.196906 -0.146011
C4    C     C_R   0.249539 0.809044 0.884019 0.124559
C5    C     C_R   0.168893 0.839520 0.964430 -0.105262
C6    C     C_R   0.126267 0.884278 0.935184 -0.113584
C7    C     C_R   0.166145 0.903587 0.826202 -0.150683
C8    C     C_R   0.247371 0.874996 0.745762 -0.126610
C9    C     C_R   0.288655 0.826866 0.774247 -0.201690
C10   C     C_R   0.134282 0.140235 0.090765 0.170354
C11   C     C_R   0.139120 0.102716 0.006108 -0.183341
C12   C     C_R   0.067763 0.066600 0.026681 -0.130847
C13   C     C_R   0.215256 0.641449 0.967128 0.137673
C14   C     C_R   0.993096 0.062704 0.132593 -0.035155
C15   C     C_R   0.988662 0.097592 0.217808 -0.058296
C16   C     C_R   0.058504 0.137353 0.196817 -0.145908
C17   C     C_R   0.153530 0.317269 0.070087 0.164844
C18   C     C_R   0.692417 0.862302 0.677815 0.015353
C19   C     C_R   0.601040 0.185457 0.700270 0.011978
C20   C     C_R   0.192413 0.362327 0.677785 0.015339
C21   C     C_R   0.101030 0.685460 0.700276 0.011995
C22   C     C_3   0.251083 0.218087 0.457037 -0.457850
C23   C     C_3   0.185199 0.868591 0.516548 -0.440938
C24   C     C_3   0.751061 0.718378 0.456771 -0.457940
C25   C     C_R   0.373396 0.803174 0.995166 -0.136727
C26   C     C_3   0.685221 0.368593 0.516559 -0.440991
C27   C     C_3   0.196425 0.263755 0.562850 -0.388619
C28   C     C_3   0.133418 0.823012 0.625120 -0.434295
C29   C     C_3   0.696397 0.764122 0.562512 -0.388777
C30   C     C_3   0.633449 0.323010 0.625126 -0.434319
C31   C     C_3   0.367685 0.216504 0.478433 -0.371692
C32   C     C_3   0.301224 0.769030 0.452199 -0.376396
C33   C     C_3   0.867325 0.716138 0.478723 -0.371909
C34   C     C_3   0.801230 0.269002 0.452163 -0.376395
C35   C     C_3   0.861019 0.825573 0.371092 0.071598
C36   C     C_R   0.838379 0.672303 0.054678 -0.130850
C37   C     C_3   0.697510 0.249440 0.408319 0.045182
C38   C     C_3   0.360685 0.325645 0.370965 0.071468
C39   C     C_3   0.197543 0.749416 0.408301 0.045177
C40   C     C_3   0.345628 0.236249 0.399209 0.307107
C41   C     C_3   0.249331 0.811971 0.421390 0.319571
C42   C     C_3   0.845608 0.736204 0.399259 0.307152
C43   C     C_3   0.749329 0.311971 0.421387 0.319657
C44   C     C_3   0.751643 0.818716 0.576250 0.353870
C45   C     C_3   0.649302 0.233863 0.601359 0.377840
C46   C     C_3   0.251645 0.318764 0.576199 0.353967
C47   C     C_R   0.873400 0.303172 0.995160 -0.136802
C48   C     C_3   0.149297 0.733864 0.601362 0.377787
C49   C     C_3   0.815407 0.768480 0.580338 -0.399181
C50   C     C_3   0.743664 0.214774 0.548077 -0.377844
C51   C     C_3   0.315823 0.268944 0.579981 -0.398906
C52   C     C_3   0.243659 0.714801 0.548112 -0.377825
C53   C     C_R   0.349879 0.829081 0.218019 -0.093453
C54   C     C_R   0.399593 0.199656 0.208218 -0.144243
C55   C     C_R   0.849879 0.329081 0.218017 -0.093514
C56   C     C_R   0.899572 0.699649 0.208250 -0.144235
C57   C     C_3   0.803569 0.874268 0.476039 -0.444341
C58   C     C_R   0.635174 0.895500 0.102919 -0.168648
C59   C     C_3   0.627963 0.215595 0.521243 -0.441684
C60   C     C_3   0.303142 0.374333 0.475880 -0.444222
C61   C     C_3   0.127991 0.715568 0.521219 -0.441657
C62   C     C_2   0.285141 0.688313 0.946666 -0.261596
C63   C     C_2   0.202072 0.264153 0.086776 -0.295893
C64   C     C_2   0.785145 0.188311 0.946660 -0.261652
C65   C     C_2   0.702082 0.764158 0.086762 -0.295908
C66   C     C_2   0.796385 0.265145 0.916157 -0.001473
C67   C     C_2   0.706394 0.685756 0.069545 -0.015185
C68   C     C_2   0.296380 0.765147 0.916165 -0.001438
C69   C     C_R   0.671627 0.081644 0.045244 -0.117313
C70   C     C_2   0.206389 0.185751 0.069546 -0.015190
C71   C     C_R   0.364890 0.892300 0.898066 -0.134161
C72   C     C_R   0.327637 0.085581 0.956830 -0.135338
C73   C     C_R   0.864894 0.392299 0.898060 -0.134146
C74   C     C_R   0.827638 0.585585 0.956828 -0.135320
C75   C     C_R   0.407616 0.107373 0.303638 -0.139237
C76   C     C_R   0.359728 0.917742 0.316353 -0.133392
C77   C     C_R   0.907621 0.607351 0.303634 -0.139111
C78   C     C_R   0.859727 0.417742 0.316352 -0.133401
C79   C     C_R   0.285006 0.145981 0.032442 0.098513
C80   C     C_R   0.135175 0.395498 0.102917 -0.168668
C81   C     C_R   0.344225 0.816497 0.934820 0.095612
C82   C     C_R   0.785009 0.645985 0.032439 0.098516
C83   C     C_R   0.844233 0.316494 0.934809 0.095592
C84   C     C_R   0.310104 0.857462 0.321907 -0.006416
C85   C     C_R   0.391600 0.185792 0.302352 0.050553
C86   C     C_R   0.810100 0.357464 0.321905 -0.006453
C87   C     C_R   0.891567 0.685761 0.302389 0.050619
C88   C     C_R   0.666336 0.165237 0.936173 -0.117365
C89   C     C_R   0.626461 0.800956 0.008348 -0.121231
C90   C     C_R   0.166334 0.665242 0.936178 -0.117349
C91   C     C_R   0.171627 0.581645 0.045245 -0.117184
C92   C     C_R   0.126477 0.300960 0.008324 -0.121203
C93   C     C_R   0.650394 0.828541 0.780504 -0.139159
C94   C     C_R   0.595648 0.199713 0.792610 -0.171772
C95   C     C_R   0.150399 0.328540 0.780469 -0.139160
C96   C     C_R   0.095644 0.699714 0.792613 -0.171773
C97   C     C_R   0.588173 0.106429 0.698868 -0.137386
C98   C     C_R   0.642091 0.922824 0.685008 -0.146155
C99   C     C_R   0.088159 0.606433 0.698877 -0.137386
C100  C     C_R   0.142071 0.422838 0.685010 -0.146191
C101  C     C_R   0.749532 0.309046 0.884033 0.124504
C102  C     C_R   0.715258 0.141446 0.967125 0.137676
C103  C     C_R   0.668875 0.339493 0.964462 -0.105150
C104  C     C_R   0.626231 0.384252 0.935241 -0.113473
C105  C     C_R   0.666104 0.403593 0.826270 -0.150791
C106  C     C_R   0.747345 0.375038 0.745814 -0.126593
C107  C     C_R   0.788646 0.326903 0.774270 -0.201650
C108  C     C_R   0.634273 0.640234 0.090826 0.170366
C109  C     C_R   0.639066 0.602706 0.006209 -0.183367
C110  C     C_R   0.567701 0.566552 0.026855 -0.130790
C111  C     C_R   0.493077 0.562629 0.132795 -0.034656
C112  C     C_R   0.488691 0.597528 0.217966 -0.058072
H1    H     H_    0.326739 0.218276 0.110055 0.093206
H2    H     H_    0.565106 0.337331 0.671192 0.160294
H3    H     H_    0.053640 0.165838 0.263136 0.112477
H4    H     H_    0.148368 0.298230 0.562934 0.159206
H5    H     H_    0.065072 0.837315 0.671159 0.160306
H6    H     H_    0.161648 0.221570 0.632039 0.162361
H7    H     H_    0.153343 0.841531 0.675063 0.171463
H8    H     H_    0.661233 0.722014 0.631694 0.162494
H9    H     H_    0.653402 0.341509 0.675047 0.171486
H10   H     H_    0.351971 0.154345 0.505836 0.143132
H11   H     H_    0.329814 0.812459 0.475091 0.150586
H12   H     H_    0.851418 0.653984 0.506000 0.143130
H13   H     H_    0.378187 0.747123 0.024384 0.109853
H14   H     H_    0.829843 0.312414 0.475041 0.150605
H15   H     H_    0.782970 0.729703 0.652846 0.144096
H16   H     H_    0.757931 0.221736 0.607399 0.156385
H17   H     H_    0.283725 0.230271 0.652628 0.143974
H18   H     H_    0.257906 0.721783 0.607451 0.156387
H19   H     H_    0.844021 0.841172 0.316302 0.096155
H20   H     H_    0.667555 0.278514 0.374372 0.125908
H21   H     H_    0.343513 0.341009 0.316279 0.096070
H22   H     H_    0.167595 0.778469 0.374333 0.126114
H23   H     H_    0.761442 0.910610 0.466934 0.149311
H24   H     H_    0.826743 0.718281 0.110049 0.093212
H25   H     H_    0.565928 0.242462 0.551780 0.150389
H26   H     H_    0.260700 0.410289 0.466886 0.149238
H27   H     H_    0.065952 0.742415 0.551732 0.150457
H28   H     H_    0.841141 0.915392 0.487117 0.191133
H29   H     H_    0.620859 0.152285 0.513759 0.182815
H30   H     H_    0.340612 0.415845 0.486715 0.191075
H31   H     H_    0.120913 0.652254 0.513728 0.182821
H32   H     H_    0.436298 0.223903 0.437880 0.191522
H33   H     H_    0.354264 0.734502 0.382728 0.182770
H34   H     H_    0.935907 0.723354 0.438430 0.191538
H35   H     H_    0.878190 0.247122 0.024379 0.109874
H36   H     H_    0.854253 0.234468 0.382680 0.182750
H37   H     H_    0.328614 0.784239 0.191715 0.144193
H38   H     H_    0.398212 0.256052 0.176806 0.097282
H39   H     H_    0.828618 0.284237 0.191711 0.144202
H40   H     H_    0.898149 0.756057 0.176894 0.097098
H41   H     H_    0.858167 0.807472 0.584555 0.173439
H42   H     H_    0.757965 0.152572 0.519951 0.186321
H43   H     H_    0.358624 0.308262 0.583761 0.173546
H44   H     H_    0.257980 0.652598 0.519992 0.186326
H45   H     H_    0.320463 0.662572 0.972764 0.138783
H46   H     H_    0.232647 0.234183 0.403679 0.162300
H47   H     H_    0.249635 0.294316 0.087573 0.134633
H48   H     H_    0.820471 0.162568 0.972752 0.138799
H49   H     H_    0.749661 0.794322 0.087519 0.134633
H50   H     H_    0.360579 0.921411 0.839027 0.107555
H51   H     H_    0.305744 0.050619 0.920129 0.105958
H52   H     H_    0.860583 0.421411 0.839023 0.107554
H53   H     H_    0.805743 0.550627 0.920125 0.105966
H54   H     H_    0.413263 0.076683 0.360530 0.087326
H55   H     H_    0.350533 0.950730 0.382461 0.086753
H56   H     H_    0.913333 0.576653 0.360465 0.087344
H57   H     H_    0.142001 0.894752 0.500612 0.170830
H58   H     H_    0.850533 0.450730 0.382459 0.086754
H59   H     H_    0.684264 0.199625 0.866959 0.125861
H60   H     H_    0.626542 0.746015 0.974551 0.106100
H61   H     H_    0.184258 0.699632 0.866967 0.125856
H62   H     H_    0.126575 0.246026 0.974499 0.106128
H63   H     H_    0.667975 0.776755 0.803289 0.089199
H64   H     H_    0.597627 0.256287 0.822438 0.119723
H65   H     H_    0.167983 0.276714 0.803186 0.089163
H66   H     H_    0.097625 0.756288 0.822438 0.119721
H67   H     H_    0.581033 0.074949 0.644314 0.092951
H68   H     H_    0.732875 0.734633 0.403207 0.162256
H69   H     H_    0.651814 0.958402 0.620352 0.102619
H70   H     H_    0.080993 0.574960 0.644343 0.092933
H71   H     H_    0.151771 0.458454 0.620403 0.102690
H72   H     H_    0.641176 0.923167 0.161004 0.104339
H73   H     H_    0.692250 0.050879 0.087078 0.110584
H74   H     H_    0.141170 0.423162 0.161011 0.104348
H75   H     H_    0.192250 0.550879 0.087077 0.110567
H76   H     H_    0.238625 0.154073 0.475016 0.172362
H77   H     H_    0.217292 0.917985 0.524769 0.157336
H78   H     H_    0.738356 0.654402 0.474770 0.172467
H79   H     H_    0.642015 0.394773 0.500649 0.170764
H80   H     H_    0.717330 0.417974 0.524774 0.157348
H81   H     H_    0.638797 0.326674 0.049144 0.164987
H82   H     H_    0.562507 0.404278 0.997352 0.128648
H83   H     H_    0.633708 0.440081 0.804075 0.102047
H84   H     H_    0.778128 0.389897 0.661386 0.108102
H85   H     H_    0.851617 0.305185 0.711601 0.116935
H86   H     H_    0.695863 0.606260 0.923340 0.104042
H87   H     H_    0.569974 0.542398 0.960382 0.107431
H88   H     H_    0.438481 0.533176 0.148647 0.133481
H89   H     H_    0.430845 0.594696 0.300061 0.135399
H90   H     H_    0.648698 0.798902 0.562244 0.159239
H91   H     H_    0.553712 0.665811 0.263195 0.112493
H92   H     H_    0.138810 0.826731 0.049120 0.165029
H93   H     H_    0.062551 0.904324 0.997283 0.128477
H94   H     H_    0.133764 0.940075 0.803987 0.102013
H95   H     H_    0.278155 0.889826 0.661326 0.108106
H96   H     H_    0.351615 0.805121 0.711590 0.116951
H97   H     H_    0.195945 0.106261 0.923256 0.104028
H98   H     H_    0.070075 0.042460 0.960171 0.107441
H99   H     H_    0.938503 0.033287 0.148387 0.133305
H100  H     H_    0.930779 0.094792 0.299880 0.135355
I1    I     I_    0.991327 0.859407 0.285029 -0.538816
I2    I     I_    0.767605 0.147611 0.305050 -0.600718
I3    I     I_    0.490902 0.359976 0.284651 -0.539275
I4    I     I_    0.267686 0.647595 0.305046 -0.600512
N1    N     N_R   0.408680 0.130160 0.995800 -0.039869
N2    N     N_R   0.403730 0.078230 0.935950 -0.041705
N3    N     N_R   0.903730 0.421770 0.935950 -0.042293
N4    N     N_R   0.903730 0.578230 0.935950 -0.041707
N5    N     N_R   0.426630 0.075970 0.212960 -0.035164
N6    N     N_R   0.426630 0.924030 0.212960 -0.037612
N7    N     N_R   0.926630 0.575970 0.212960 -0.035189
N8    N     N_R   0.926630 0.424030 0.212960 -0.037615
N9    N     N_R   0.591320 0.134600 0.004200 -0.044746
N10   N     N_R   0.591320 0.865400 0.004200 -0.047736
N11   N     N_R   0.091320 0.634600 0.004200 -0.044737
N12   N     N_R   0.408680 0.869840 0.995800 -0.042257
N13   N     N_R   0.091320 0.365400 0.004200 -0.047734
N14   N     N_R   0.578320 0.867660 0.846880 -0.038301
N15   N     N_R   0.578320 0.132340 0.846880 -0.039487
N16   N     N_R   0.078320 0.367660 0.846880 -0.038287
N17   N     N_R   0.078320 0.632340 0.846880 -0.039492
N18   N     N_R   0.573370 0.074390 0.787040 -0.034425
N19   N     N_R   0.573370 0.925610 0.787040 -0.039054
N20   N     N_R   0.073370 0.574390 0.787040 -0.034435
N21   N     N_R   0.073370 0.425610 0.787040 -0.039060
N22   N     N_R   0.596270 0.927870 0.064040 -0.042512
N23   N     N_R   0.908680 0.630160 0.995800 -0.039867
N24   N     N_R   0.596270 0.072130 0.064040 -0.042250
N25   N     N_R   0.096270 0.427870 0.064040 -0.042524
N26   N     N_R   0.096270 0.572130 0.064040 -0.042248
N27   N     N_R   0.908680 0.369840 0.995800 -0.042252
N28   N     N_R   0.421680 0.867580 0.153120 -0.040740
N29   N     N_R   0.421680 0.132420 0.153120 -0.036715
N30   N     N_R   0.921680 0.367580 0.153120 -0.040731
N31   N     N_R   0.921680 0.632420 0.153120 -0.036704
N32   N     N_R   0.403730 0.921770 0.935950 -0.042292
Ni1   Ni    Ni4+2 0.500000 0.131190 0.000000 0.217704
Ni2   Ni    Ni4+2 0.500000 0.868810 0.000000 0.217783
Ni3   Ni    Ni4+2 0.000000 0.631190 0.000000 0.217698
Ni4   Ni    Ni4+2 0.000000 0.368810 0.000000 0.217790
Ni5   Ni    Ni4+2 0.488650 0.000000 0.862740 0.207064
Ni6   Ni    Ni4+2 0.988650 0.500000 0.862740 0.207051
Ni7   Ni    Ni4+2 0.511350 0.000000 0.137260 0.217640
Ni8   Ni    Ni4+2 0.011350 0.500000 0.137260 0.217652

loop_
_geom_bond_atom_site_label_1
_geom_bond_atom_site_label_2
_ccdc_geom_bond_type
C93   N14   A    
C101  C107  A    
C25   C81   A    
N5    Ni7   S    
N10   Ni2   S    
N10   N22   A    
C71   H50   S    
C35   H19   S    
C13   C90   A    
C8    H95   S    
N26   Ni8   S    
C30   C45   S    
C111  C112  A    
C66   C101  S    
C53   N28   A    
C63   H47   S    
C38   I3    S    
C2    C65   S    
C76   C84   A    
N11   N26   A    
C51   H17   S    
C7    C8    A    
C54   H38   S    
N30   Ni4   S    
C69   C102  A    
C108  C109  A    
C77   H56   S    
C64   C102  S    
C90   H61   S    
C51   H43   S    
N11   Ni3   S    
N1    Ni1   S    
C14   H99   S    
C53   C84   A    
C9    H96   S    
C33   C42   S    
C92   N13   A    
C49   H41   S    
C17   C63   S    
N3    Ni6   S    
C74   C82   A    
C72   C79   A    
C28   H5    S    
C5    C6    A    
C21   C99   A    
C104  H82   S    
C67   C108  S    
C38   H21   S    
C106  C107  A    
C59   H25   S    
C33   C49   S    
C15   C16   A    
C78   H58   S    
C3    H91   S    
C80   N25   A    
C73   N3    A    
C76   H55   S    
C58   H72   S    
C54   N29   A    
C31   H32   S    
C35   C42   S    
C100  H71   S    
C25   H13   S    
C24   C29   S    
C32   C52   S    
C6    H93   S    
C91   H75   S    
C60   H30   S    
C66   C83   S    
C110  C111  A    
C34   H36   S    
N7    Ni8   S    
C75   C85   A    
C45   C59   S    
C98   N19   A    
C36   C82   A    
C8    C9    A    
C65   C67   D    
C55   N30   A    
N4    Ni6   S    
C24   H68   S    
C33   H12   S    
N9    Ni1   S    
C96   N17   A    
C63   C70   D    
N4    N23   A    
N16   Ni4   S    
C47   C83   A    
C56   H40   S    
C89   N10   A    
C21   C48   S    
C27   H4    S    
C78   C86   A    
C36   N23   A    
C103  H81   S    
C110  H87   S    
C101  C103  A    
C88   H59   S    
C13   C91   A    
N15   N18   A    
C53   H37   S    
C32   H11   S    
C109  H86   S    
C17   C92   A    
C1    H1    S    
C112  H89   S    
C5    H92   S    
C7    H94   S    
C49   H15   S    
C36   H24   S    
N2    Ni5   S    
C104  C105  A    
C29   H8    S    
C95   H65   S    
C26   C43   S    
N12   Ni2   S    
C19   C97   A    
C39   C61   S    
C56   N31   A    
C47   H35   S    
C34   C50   S    
C1    N1    A    
C13   C62   S    
N23   Ni3   S    
N21   Ni6   S    
C100  N21   A    
C95   N16   A    
C31   H10   S    
C39   C41   S    
C10   C11   A    
C107  H85   S    
C26   H80   S    
N32   Ni5   S    
C61   H27   S    
C56   C87   A    
C106  H84   S    
C32   H33   S    
C22   H46   S    
C78   N8    A    
N7    N31   A    
N1    N2    A    
N6    Ni7   S    
C41   C84   S    
C46   C51   S    
C93   H63   S    
C17   C80   A    
C57   H28   S    
C77   N7    A    
C40   C85   S    
C37   C43   S    
C2    C89   A    
C94   H64   S    
C15   H100  S    
C18   C44   S    
C111  H88   S    
N13   N25   A    
N17   N20   A    
C90   N11   A    
C88   N9    A    
C20   C100  A    
C91   N26   A    
C94   N15   A    
C3    C112  A    
C34   H14   S    
C22   C40   S    
C64   H48   S    
C58   N22   A    
C2    C58   A    
C62   H45   S    
N14   N19   A    
N25   Ni8   S    
C23   C28   S    
N9    N24   A    
C24   C42   S    
C35   I1    S    
N18   Ni5   S    
C75   N5    A    
C37   C59   S    
C19   C94   A    
N28   Ni2   S    
C38   C60   S    
C10   C70   S    
C27   C46   S    
N8    N30   A    
C21   C96   A    
C20   C95   A    
C12   C14   A    
C44   C57   S    
C26   C30   S    
C71   N32   A    
C22   C27   S    
C29   C44   S    
N16   N21   A    
C1    C79   A    
C44   C49   S    
C50   H16   S    
C68   C81   S    
C32   C41   S    
C65   H49   S    
N15   Ni1   S    
C16   H3    S    
C69   H73   S    
C37   I2    S    
C23   H77   S    
N8    Ni8   S    
C4    C68   S    
C30   H2    S    
C27   H6    S    
N20   Ni6   S    
C105  H83   S    
N29   Ni1   S    
C28   C48   S    
N24   Ni7   S    
N6    N28   A    
C29   H90   S    
C46   C60   S    
C70   C79   S    
C43   C86   S    
C34   C43   S    
C89   H60   S    
C31   C51   S    
C4    C5    A    
C28   H7    S    
C54   C85   A    
C88   C102  A    
C26   H79   S    
C19   C45   S    
C55   H39   S    
C6    C7    A    
N12   N32   A    
C99   H70   S    
N31   Ni3   S    
C3    C108  A    
C73   H52   S    
C92   H62   S    
C72   N2    A    
C105  C106  A    
C25   N12   A    
C23   C41   S    
C37   H20   S    
C62   C68   D    
N22   Ni7   S    
C35   C57   S    
C76   N6    A    
C55   C86   A    
C61   H31   S    
C52   H18   S    
C10   C16   A    
C109  C110  A    
C11   H97   S    
C38   C40   S    
C99   N20   A    
C48   C61   S    
N5    N29   A    
C45   C50   S    
C50   H42   S    
C97   N18   A    
N27   Ni4   S    
C47   N27   A    
C72   H51   S    
N3    N27   A    
C75   H54   S    
C22   H76   S    
C52   H44   S    
C23   H57   S    
C69   N24   A    
N13   Ni4   S    
C97   H67   S    
C33   H34   S    
N19   Ni5   S    
C12   H98   S    
N17   Ni3   S    
C30   H9    S    
C48   C52   S    
C39   I4    S    
C77   C87   A    
C67   C82   S    
C59   H29   S    
C74   N4    A    
C103  C104  A    
C18   C93   A    
C80   H74   S    
C14   C15   A    
C57   H23   S    
C24   H78   S    
C42   C87   S    
C18   C98   A    
C31   C40   S    
C96   H66   S    
C4    C9    A    
N14   Ni2   S    
C73   C83   A    
C74   H53   S    
C20   C46   S    
C11   C12   A    
C64   C66   D    
C98   H69   S    
C71   C81   A    
C39   H22   S    
C60   H26   S    
