data_mof_unit_51111.cif
_audit_creation_date              2013-03-05T15:53:42-0500
_audit_creation_method            fapswitch 2.2
_symmetry_space_group_name_H-M    P1
_symmetry_Int_Tables_number       1
_space_group_crystal_system       triclinic
_cell_length_a                    12.926591
_cell_length_b                    13.261083
_cell_length_c                    27.719573
_cell_angle_alpha                 94.701714
_cell_angle_beta                  90.15318
_cell_angle_gamma                 119.102242
_cell_volume                      4132.90656978

loop_
_atom_site_label
_atom_site_type_symbol
_atom_site_description
_atom_site_fract_x
_atom_site_fract_y
_atom_site_fract_z
_atom_type_partial_charge
O1    O     O_R   0.296680 0.802170 0.437540 -0.511334
O2    O     O_R   0.525380 0.838530 0.443500 -0.499740
C1    C     C_R   0.627749 0.896280 0.427085 0.543038
O3    O     O_R   0.702130 0.995190 0.446810 -0.506632
O4    O     O_R   0.661770 0.181390 0.458760 -0.472268
C2    C     C_R   0.601207 0.222193 0.440544 0.562965
O5    O     O_R   0.499820 0.198480 0.455280 -0.504112
O6    O     O_R   0.311660 0.976250 0.449080 -0.501124
C3    C     C_R   0.267429 0.875950 0.426270 0.550302
O7    O     O_R   0.297580 0.804960 0.544440 -0.491198
O8    O     O_R   0.526220 0.841130 0.542590 -0.505852
C4    C     C_R   0.627563 0.898377 0.564677 0.534679
O9    O     O_R   0.703030 0.997990 0.553710 -0.466510
O10   O     O_R   0.662610 0.183990 0.557860 -0.428809
C5    C     C_R   0.574031 0.174798 0.582445 0.556136
O11   O     O_R   0.500730 0.201280 0.562180 -0.494626
O12   O     O_R   0.312500 0.978850 0.548170 -0.517788
C6    C     C_R   0.272195 0.879646 0.563608 0.543340
Cr1   Cr    Cr6+3 0.416430 0.829200 0.492370 1.044137
Cr2   Cr    Cr6+3 0.674630 0.087020 0.504170 1.127086
Cr3   Cr    Cr6+3 0.408920 0.083740 0.503490 1.044919
O13   O     O_3   0.499990 0.999990 0.500010 -0.291458
C7    C     C_1   0.634155 0.269850 0.394876 0.012798
C8    C     C_R   0.683236 0.240202 0.270774 -0.067316
C9    C     C_R   0.691194 0.256380 0.221385 -0.065172
C10   C     C_R   0.679629 0.432872 0.238585 -0.079439
C11   C     C_R   0.671888 0.416809 0.287928 -0.098721
C12   C     C_R   0.673072 0.320132 0.304120 0.042432
C13   C     C_R   0.688180 0.352211 0.205159 0.064732
C14   C     C_1   0.695323 0.370440 0.154531 0.023788
C15   C     C_1   0.655043 0.297509 0.354178 -0.025262
C16   C     C_1   0.703586 0.395513 0.113361 0.053285
H1    H     H_    0.683005 0.164424 0.282854 0.143032
H2    H     H_    0.698546 0.193896 0.195947 0.129051
H3    H     H_    0.677861 0.507675 0.226419 0.132864
H4    H     H_    0.663083 0.478588 0.313259 0.122193
C17   C     C_R   0.154369 0.742735 0.355335 -0.117337
C18   C     C_R   0.126665 0.728356 0.305996 -0.023448
C19   C     C_R   0.102144 0.708696 0.205029 0.001322
C20   C     C_R   0.081661 0.610615 0.229159 0.223788
C21   C     C_R   0.095902 0.622682 0.279602 -0.110178
C22   C     C_R   0.102860 0.705995 0.154781 -0.072949
H5    H     H_    0.095537 0.630464 0.133679 0.223803
H6    H     H_    0.152056 0.671405 0.372782 0.143898
H7    H     H_    0.083894 0.549412 0.298376 0.168675
C23   C     C_R   0.105027 0.796445 0.130971 -0.036163
C24   C     C_R   0.197343 0.943118 0.358864 -0.124227
C25   C     C_R   0.167092 0.929201 0.309466 -0.047801
C26   C     C_R   0.137121 0.822895 0.282502 0.031408
C27   C     C_R   0.174781 0.022089 0.286010 -0.071868
C28   C     C_R   0.157729 0.011588 0.235732 0.395282
C29   C     C_R   0.135333 0.908481 0.208280 0.013767
C30   C     C_R   0.123727 0.812965 0.231933 -0.034164
C31   C     C_R   0.122358 0.898034 0.157736 -0.101032
C32   C     C_R   0.198923 0.852174 0.380861 0.006530
H8    H     H_    0.123166 0.967317 0.139242 0.195994
H9    H     H_    0.196831 0.103763 0.306475 0.175854
H10   H     H_    0.229453 0.027366 0.378935 0.139453
C33   C     C_R   0.745304 0.946465 0.354678 -0.104069
C34   C     C_R   0.744896 0.941764 0.304250 -0.005876
C35   C     C_R   0.742342 0.924495 0.203099 -0.049029
C36   C     C_R   0.830506 0.023358 0.229939 -0.090625
C37   C     C_R   0.832739 0.033545 0.280376 0.195903
C38   C     C_R   0.748770 0.912458 0.153424 -0.154899
H11   H     H_    0.821414 0.981561 0.136507 0.167138
H12   H     H_    0.816452 0.018912 0.376189 0.195704
H13   H     H_    0.898635 0.093037 0.211574 0.198240
C39   C     C_R   0.674801 0.806589 0.126726 -0.020179
C40   C     C_R   0.559191 0.766157 0.351011 -0.125076
C41   C     C_R   0.560834 0.755376 0.300656 -0.028287
C42   C     C_R   0.652407 0.843856 0.277010 0.017990
C43   C     C_R   0.467309 0.661635 0.273709 -0.123443
C44   C     C_R   0.464412 0.651879 0.223110 0.206238
C45   C     C_R   0.561218 0.734943 0.198624 -0.008753
C46   C     C_R   0.651459 0.834521 0.226207 -0.019568
C47   C     C_R   0.575521 0.719524 0.148278 0.194996
C48   C     C_R   0.648649 0.864026 0.377915 -0.013891
H14   H     H_    0.393562 0.597453 0.292066 0.155682
H15   H     H_    0.484309 0.702247 0.368961 0.137569
C49   C     C_R   0.711030 0.243079 0.657816 0.207267
C50   C     C_R   0.725939 0.262327 0.708541 0.011181
C51   C     C_R   0.758233 0.319430 0.809205 0.021837
C52   C     C_R   0.854068 0.333365 0.781830 -0.115647
C53   C     C_R   0.838341 0.305528 0.731960 -0.073806
C54   C     C_R   0.776773 0.361372 0.857911 -0.114288
H16   H     H_    0.866051 0.404589 0.874235 0.140147
H17   H     H_    0.942251 0.370162 0.798705 0.127989
H18   H     H_    0.915733 0.321576 0.711907 0.185105
C55   C     C_R   0.683170 0.359159 0.883960 0.001516
C56   C     C_R   0.499784 0.179185 0.663602 -0.170408
C57   C     C_R   0.514071 0.198981 0.713909 0.004472
C58   C     C_R   0.627567 0.242215 0.736430 0.029458
C59   C     C_R   0.417034 0.179133 0.742003 -0.112567
C60   C     C_R   0.433425 0.208354 0.791977 -0.119734
C61   C     C_R   0.547057 0.257512 0.814352 0.014067
C62   C     C_R   0.643825 0.270871 0.786806 0.072413
C63   C     C_R   0.567321 0.301198 0.863018 -0.121822
C64   C     C_R   0.597166 0.203071 0.635178 -0.013988
H19   H     H_    0.494330 0.297137 0.883564 0.145285
H20   H     H_    0.358109 0.196421 0.812813 0.147904
H21   H     H_    0.329248 0.144767 0.725110 0.123898
H22   H     H_    0.412235 0.145086 0.646358 0.137690
C65   C     C_1   0.226151 0.864453 0.611024 0.011718
C66   C     C_R   0.228835 0.793338 0.730097 -0.109218
C67   C     C_R   0.216355 0.789775 0.779954 -0.147680
C68   C     C_R   0.115482 0.904628 0.778710 0.255235
C69   C     C_R   0.127467 0.905860 0.728200 -0.057965
C70   C     C_R   0.183190 0.849983 0.704024 0.008346
C71   C     C_R   0.159395 0.844032 0.804544 0.032484
C72   C     C_1   0.134908 0.824121 0.854656 0.025268
C73   C     C_1   0.201270 0.856531 0.652921 -0.025390
C74   C     C_1   0.105937 0.801399 0.895376 0.034923
H23   H     H_    0.273688 0.751268 0.711794 0.131256
H24   H     H_    0.249352 0.742557 0.799289 0.122319
H25   H     H_    0.095053 0.951853 0.707719 0.164676
C75   C     C_1   0.646766 0.861252 0.609234 0.035884
C76   C     C_R   0.613119 0.849031 0.733929 -0.187263
C77   C     C_R   0.625013 0.832957 0.782316 -0.178806
C78   C     C_R   0.747201 0.745810 0.759386 0.459168
C79   C     C_R   0.735550 0.762275 0.710816 0.450698
C80   C     C_R   0.668666 0.814335 0.698117 -0.005881
C81   C     C_R   0.692419 0.781910 0.795214 0.008424
C82   C     C_1   0.708553 0.770770 0.845416 0.037052
C83   C     C_1   0.658660 0.836703 0.648956 0.033792
C84   C     C_1   0.724611 0.763133 0.887437 0.035514
H26   H     H_    0.561691 0.889837 0.724491 0.133502
H27   H     H_    0.582797 0.861524 0.809717 0.140520
O14   O     O_R   0.820790 0.857990 0.068830 -0.518633
O15   O     O_R   0.016700 0.827330 0.062850 -0.498580
C85   C     C_R   0.061431 0.770196 0.080267 0.547586
O16   O     O_R   0.041970 0.673520 0.060040 -0.496890
O17   O     O_R   0.817980 0.483660 0.048840 -0.486559
C86   C     C_R   0.716834 0.440915 0.067237 0.546786
O18   O     O_R   0.637200 0.461990 0.052510 -0.460723
O19   O     O_R   0.664790 0.681920 0.057970 -0.435407
C87   C     C_R   0.718927 0.782687 0.080691 0.564192
O20   O     O_R   0.815840 0.852920 0.961840 -0.482914
O21   O     O_R   0.012100 0.822630 0.963670 -0.490458
C88   C     C_R   0.057107 0.766651 0.941376 0.543025
O22   O     O_R   0.037010 0.668460 0.953040 -0.507822
O23   O     O_R   0.813390 0.478970 0.949660 -0.507376
C89   C     C_R   0.709369 0.431554 0.929852 0.536559
O24   O     O_R   0.632250 0.456930 0.945520 -0.518043
O25   O     O_R   0.660200 0.677230 0.958780 -0.489800
C90   C     C_R   0.748510 0.754915 0.936968 0.554667
Cr4   Cr    Cr6+3 0.914010 0.832750 0.013970 1.074726
Cr5   Cr    Cr6+3 0.922310 0.578600 0.003000 1.065413
Cr6   Cr    Cr6+3 0.656280 0.574630 0.003870 1.120369
O26   O     O_3   0.830870 0.661990 0.006950 -0.295362
F1    F     F_    0.166996 0.103441 0.213877 -0.583348
N1    N     N_R   0.921968 0.139046 0.306342 0.065198
O27   O     O_R   0.891037 0.197439 0.337384 -0.351571
O28   O     O_R   0.029923 0.188633 0.291919 -0.263611
N2    N     N_R   0.498782 0.611705 0.120502 0.121760
O29   O     O_R   0.499360 0.517434 0.129923 -0.288981
O30   O     O_R   0.436313 0.609579 0.083142 -0.275010
N3    N     N_R   0.358794 0.561908 0.197776 0.126074
O31   O     O_R   0.310453 0.456958 0.210720 -0.217243
O32   O     O_R   0.299466 0.588915 0.168365 -0.274769
N4    N     N_R   0.812574 0.269324 0.629712 0.081568
O33   O     O_R   0.865533 0.366939 0.610179 -0.285920
O34   O     O_R   0.858461 0.200932 0.627488 -0.326754
N5    N     N_R   0.058662 0.964199 0.802604 0.086398
O35   O     O_R   0.992937 0.992487 0.777554 -0.333063
O36   O     O_R   0.080996 0.000669 0.848437 -0.337015
F2    F     F_    0.813317 0.696710 0.771587 -0.590284
F3    F     F_    0.790484 0.729110 0.676459 -0.577029
N6    N     N_R   0.043076 0.497984 0.203705 0.100658
O37   O     O_R   0.962602 0.459063 0.168488 -0.361163
O38   O     O_R   0.069737 0.425444 0.221717 -0.226986

loop_
_geom_bond_atom_site_label_1
_geom_bond_atom_site_label_2
_geom_bond_distance
_ccdc_geom_bond_type
C52   H17   1.083971 S    
N3    O31   1.301255 A    
C44   C45   1.423464 A    
C40   C48   1.398082 A    
C61   C62   1.410975 A    
C66   C70   1.397374 A    
O25   Cr6   1.904735 S    
C17   C32   1.398210 A    
C33   C48   1.400774 A    
O19   C87   1.273607 A    
O4    Cr2   1.907271 S    
C19   C30   1.414383 A    
C54   H16   1.084606 S    
C35   C46   1.407090 A    
N5    O36   1.301094 A    
O8    Cr1   1.926651 S    
C10   C11   1.397839 A    
C59   C60   1.394492 A    
C45   C47   1.419511 A    
C36   H13   1.084664 S    
C34   C37   1.414357 A    
C38   C39   1.397518 A    
O20   C90   1.292869 A    
Cr5   O26   1.970873 S    
C17   C18   1.386838 A    
O7    C6    1.265587 A    
O14   C87   1.271293 A    
C33   H12   1.080763 S    
C77   C81   1.398956 A    
C16   C86   1.433020 S    
C49   C50   1.404002 A    
C26   C30   1.399471 A    
C49   N4    1.434064 S    
C68   C69   1.409604 A    
C55   C89   1.461448 S    
C44   N3    1.433068 S    
C58   C62   1.404380 A    
C65   C73   1.205126 T    
C22   C23   1.404372 A    
C47   N2    1.434202 S    
C76   C80   1.401086 A    
C56   H22   1.085179 S    
C80   C83   1.436791 S    
C43   H14   1.084643 S    
C82   C84   1.203588 T    
C50   C58   1.412420 A    
O23   C89   1.273543 A    
N5    O35   1.301640 A    
C28   F1    1.358109 S    
O17   C86   1.273141 A    
C69   C70   1.399063 A    
O16   Cr5   2.060018 S    
C41   C42   1.409528 A    
C3    C32   1.457855 S    
C76   H26   1.084167 S    
N2    O30   1.301510 A    
C35   C36   1.397623 A    
C9    H2    1.083513 S    
N6    O38   1.301422 A    
C33   C34   1.393985 A    
N3    O32   1.301056 A    
C42   C46   1.403002 A    
Cr3   O13   1.970655 S    
C27   H9    1.083627 S    
C74   C88   1.433275 S    
C60   C61   1.401660 A    
O22   Cr5   2.024616 S    
C66   C67   1.393809 A    
C63   H19   1.084427 S    
C29   C31   1.398084 A    
C27   C28   1.395344 A    
C19   C22   1.390541 A    
C9    C13   1.400199 A    
O24   Cr6   2.064122 S    
C88   O22   1.268047 A    
C31   H8    1.083948 S    
O1    Cr1   2.047689 S    
C51   C62   1.410854 A    
C45   C46   1.421408 A    
C28   C29   1.405555 A    
O10   Cr2   1.942814 S    
C67   H24   1.083899 S    
C39   C87   1.472295 S    
Cr1   O13   1.970181 S    
O1    C3    1.267742 A    
Cr6   O26   1.970346 S    
C18   C21   1.394810 A    
C59   H21   1.083415 S    
C57   C58   1.410334 A    
C18   C26   1.408394 A    
C54   C55   1.399951 A    
O6    C3    1.271333 A    
C34   C42   1.417673 A    
O5    Cr3   2.020971 S    
O12   Cr3   1.904313 S    
C55   C63   1.404618 A    
C7    C15   1.205505 T    
C35   C38   1.380533 A    
C13   C14   1.439113 S    
C57   C59   1.402415 A    
Cr4   O26   1.969773 S    
O20   Cr4   2.038071 S    
C24   C25   1.395524 A    
C60   H20   1.083785 S    
O7    Cr1   2.038243 S    
N1    O27   1.301398 A    
C69   H25   1.083503 S    
C23   C31   1.398998 A    
C36   C37   1.392395 A    
O12   C6    1.269650 A    
N2    O29   1.301410 A    
C68   N5    1.443420 S    
C8    C9    1.399397 A    
C78   C79   1.400770 A    
C78   F2    1.358167 S    
C37   N1    1.437561 S    
O15   Cr4   1.924121 S    
N6    O37   1.300444 A    
Cr2   O13   1.970782 S    
C51   C52   1.396418 A    
C86   O18   1.265196 A    
C52   C53   1.389382 A    
C22   H5    1.079711 S    
C5    C64   1.471530 S    
C1    O3    1.263608 A    
C1    C48   1.460291 S    
N4    O34   1.300987 A    
C19   C20   1.420498 A    
C50   C53   1.408902 A    
C79   C80   1.402437 A    
C24   C32   1.403964 A    
O15   C85   1.275185 A    
C78   C81   1.404473 A    
C67   C71   1.400728 A    
C20   C21   1.395681 A    
C75   C83   1.203540 T    
O9    Cr2   2.024629 S    
C49   C64   1.422158 A    
O2    Cr1   1.924067 S    
C89   O24   1.265033 A    
O17   Cr5   1.907428 S    
C12   C15   1.439330 S    
C8    C12   1.403822 A    
C43   C44   1.396633 A    
O6    Cr3   1.944582 S    
C23   C85   1.462520 S    
O8    C4    1.272577 A    
C61   C63   1.395127 A    
O11   Cr3   2.063796 S    
C2    O5    1.267447 A    
C11   H4    1.083509 S    
C39   C47   1.418719 A    
C51   C54   1.391071 A    
O18   Cr6   2.020763 S    
C8    H1    1.083607 S    
C70   C73   1.439085 S    
O25   C90   1.300709 A    
N4    O33   1.300897 A    
C17   H6    1.084946 S    
C85   O16   1.260528 A    
C84   C90   1.430859 S    
C76   C77   1.394881 A    
C38   H11   1.084989 S    
C24   H10   1.084333 S    
C14   C16   1.205253 T    
O14   Cr4   2.048244 S    
C56   C57   1.392527 A    
O4    C2    1.270970 A    
C53   H18   1.081838 S    
O21   Cr4   1.927202 S    
C25   C26   1.410860 A    
C2    C7    1.433693 S    
C25   C27   1.400896 A    
O2    C1    1.272468 A    
C6    C65   1.432954 S    
N1    O28   1.301202 A    
C40   C41   1.392681 A    
C72   C74   1.205573 T    
C20   N6    1.441590 S    
C40   H15   1.084682 S    
O21   C88   1.272126 A    
O23   Cr5   1.942474 S    
C66   H23   1.083804 S    
O3    Cr2   2.060121 S    
C10   H3    1.084018 S    
C4    O9    1.266074 A    
C10   C13   1.402855 A    
O19   Cr6   1.944836 S    
C77   H27   1.083682 S    
C11   C12   1.399529 A    
C21   H7    1.084268 S    
O10   C5    1.293208 A    
C41   C43   1.394956 A    
C81   C82   1.436631 S    
C71   C72   1.442429 S    
C56   C64   1.401460 A    
C5    O11   1.299952 A    
C79   F3    1.357726 S    
C29   C30   1.417240 A    
C4    C75   1.430515 S    
C68   C71   1.420084 A    
