data_mof_unit_8606.cif
_audit_creation_date              2012-12-10T17:20:41-0500
_audit_creation_method            fapswitch 2.2
_symmetry_space_group_name_H-M    P1
_symmetry_Int_Tables_number       1
_space_group_crystal_system       triclinic
_cell_length_a                    10.188316
_cell_length_b                    10.0
_cell_length_c                    13.670221
_cell_angle_alpha                 92.604526
_cell_angle_beta                  76.037145
_cell_angle_gamma                 97.526317
_cell_volume                      1339.82938889

loop_
_atom_site_label
_atom_site_type_symbol
_atom_type_description
_atom_site_fract_x
_atom_site_fract_y
_atom_site_fract_z
_atom_type_partial_charge
C1    C     C_R   0.560774 0.739218 0.486465 0.850044
C2    C     C_2   0.071017 0.463857 0.502664 0.538151
C3    C     C_1   0.464500 0.540325 0.878290 -0.050451
C4    C     C_1   0.516575 0.461127 0.125055 -0.027306
C5    C     C_2   0.612016 0.872923 0.436333 -0.312591
C6    C     C_2   0.392850 0.131610 0.570956 -0.335038
C7    C     C_2   0.545477 0.985030 0.452860 0.366223
C8    C     C_2   0.457831 0.017899 0.553262 0.419528
C9    C     C_3   0.139308 0.679565 0.679095 0.251169
C10   C     C_3   0.040288 0.760030 0.752028 -0.768515
C11   C     C_3   0.877931 0.341480 0.310679 0.254966
C12   C     C_R   0.439766 0.261072 0.514524 0.846109
C13   C     C_3   0.901849 0.376120 0.200020 -0.812778
C14   C     C_2   0.450142 0.689025 0.028096 0.389430
C15   C     C_2   0.496974 0.306143 0.983063 0.355390
C16   C     C_3   0.514327 0.976568 0.701730 0.134571
C17   C     C_3   0.644445 0.910258 0.686300 -0.902115
C18   C     C_3   0.499482 0.023245 0.302017 0.127114
C19   C     C_3   0.491628 0.134809 0.232758 -0.832602
C20   C     C_2   0.280375 0.141504 0.663176 0.421710
C21   C     C_2   0.738201 0.874164 0.353292 0.413757
C22   C     C_3   0.064375 0.234212 0.479576 0.017402
C23   C     C_R   0.478892 0.506587 0.687524 0.868919
C24   C     C_3   0.130674 0.123417 0.413526 -0.701216
C25   C     C_3   0.870293 0.384051 0.687319 0.032057
C26   C     C_3   0.775200 0.388027 0.791282 -0.755369
C27   C     C_R   0.521239 0.495663 0.312438 0.878505
C28   C     C_1   0.526419 0.477928 0.209545 -0.118277
C29   C     C_1   0.469121 0.525022 0.791021 -0.126088
C30   C     C_2   0.492765 0.444958 0.027252 0.007484
C31   C     C_2   0.466047 0.552376 0.981549 -0.002737
C32   C     C_2   0.917565 0.468732 0.528441 0.526916
H1    H     H_    0.241961 0.737972 0.663254 0.230529
H2    H     H_    0.844708 0.460460 0.191758 0.255597
H3    H     H_    0.449562 0.772769 0.980362 0.062993
H4    H     H_    0.549428 0.235454 0.012648 0.064735
H5    H     H_    0.450294 0.950305 0.778042 0.196828
H6    H     H_    0.540901 0.088618 0.701768 0.141746
H7    H     H_    0.714240 0.939671 0.612616 0.252627
H8    H     H_    0.697193 0.943806 0.747010 0.226943
H9    H     H_    0.619812 0.798722 0.688691 0.266268
H10   H     H_    0.393512 0.976642 0.335948 0.135587
H11   H     H_    0.556096 0.945629 0.255405 0.187445
H12   H     H_    0.140439 0.583551 0.716829 0.115263
H13   H     H_    0.595685 0.183639 0.197544 0.250604
H14   H     H_    0.441491 0.092181 0.172600 0.225061
H15   H     H_    0.430902 0.211303 0.276510 0.248903
H16   H     H_    0.248668 0.239038 0.689280 0.069258
H17   H     H_    0.772407 0.779908 0.321028 0.096802
H18   H     H_    0.953950 0.217926 0.480953 0.115270
H19   H     H_    0.077582 0.223419 0.557234 0.122493
H20   H     H_    0.239390 0.130773 0.415053 0.233097
H21   H     H_    0.079229 0.023131 0.442245 0.224639
H22   H     H_    0.122958 0.132801 0.334559 0.256621
H23   H     H_    0.080511 0.790585 0.819397 0.221865
H24   H     H_    0.976626 0.397032 0.696580 0.118302
H25   H     H_    0.847257 0.282516 0.653835 0.107808
H26   H     H_    0.669018 0.358451 0.784861 0.271470
H27   H     H_    0.800226 0.315363 0.841056 0.196598
H28   H     H_    0.784706 0.490688 0.825271 0.245587
H29   H     H_    0.025123 0.851316 0.714909 0.293732
H30   H     H_    0.940015 0.697681 0.776416 0.241586
H31   H     H_    0.768939 0.302145 0.339602 0.210794
H32   H     H_    0.938706 0.258958 0.315500 0.166627
H33   H     H_    0.012204 0.406363 0.167746 0.266830
H34   H     H_    0.866732 0.286773 0.157512 0.211201
N1    N     N_2   0.847200 0.448220 0.460120 0.005280
N2    N     N_2   0.152800 0.551780 0.539880 0.013933
O1    O     O_R   0.430150 0.692610 0.508030 -0.562198
O2    O     O_3   0.922503 0.455576 0.364164 -0.562312
O3    O     O_2   0.434081 0.709952 0.118634 -0.577938
O4    O     O_2   0.438121 0.267193 0.917133 -0.586511
O5    O     O_3   0.439147 0.925875 0.630108 -0.616645
O6    O     O_3   0.567778 0.077882 0.376284 -0.613145
O7    O     O_2   0.220271 0.041948 0.710146 -0.558828
O8    O     O_2   0.807158 0.979724 0.322001 -0.563862
O9    O     O_3   0.126508 0.361762 0.440134 -0.587662
O10   O     O_3   0.849461 0.487924 0.627848 -0.583840
O11   O     O_R   0.569850 0.307390 0.491970 -0.576511
O12   O     O_R   0.653100 0.659360 0.482430 -0.589513
O13   O     O_R   0.346900 0.340640 0.517570 -0.592024
O14   O     O_R   0.372470 0.518990 0.654990 -0.665771
O15   O     O_R   0.627530 0.481010 0.345010 -0.622062
O16   O     O_R   0.595430 0.485740 0.629390 -0.545915
O17   O     O_R   0.404570 0.514260 0.370610 -0.539772
O18   O     O_3   0.094706 0.656880 0.589626 -0.570690
Zn1   Zn    Zn3+2 0.351130 0.522200 0.517090 0.999146
Zn2   Zn    Zn3+2 0.648870 0.477800 0.482910 1.010768

loop_
_geom_bond_atom_site_label_1
_geom_bond_atom_site_label_2
_ccdc_geom_bond_type
C24   H20   S    
C23   O14   A    
N2    O18   S    
C14   O3    D    
C25   H24   S    
C14   C31   S    
C21   H17   S    
C11   O2    S    
C7    C8    S    
C13   H33   S    
C15   O4    D    
C21   O8    D    
N1    Zn2   S    
C1    C5    S    
C23   C29   S    
C11   H31   S    
C18   H10   S    
C6    C12   S    
C30   C31   D    
C19   H15   S    
C24   H22   S    
O14   Zn1   S    
C12   O11   A    
C2    C32   S    
C18   C19   S    
C17   H7    S    
C3    C29   T    
C16   C17   S    
C26   H27   S    
O1    Zn1   S    
C16   H5    S    
C22   H18   S    
O15   Zn2   S    
C18   O6    S    
C9    H1    S    
C10   H30   S    
C25   H25   S    
O11   Zn2   S    
C4    C28   T    
C27   O17   A    
C7    O6    S    
C13   H34   S    
O17   Zn1   S    
C19   H14   S    
C23   O16   A    
C25   O10   S    
C11   H32   S    
C14   H3    S    
C5    C7    D    
C6    C8    D    
C25   C26   S    
C1    O1    A    
C16   O5    S    
C20   O7    D    
C17   H8    S    
C9    O18   S    
C20   H16   S    
C3    C31   S    
C10   H23   S    
C26   H26   S    
O13   Zn1   S    
C32   N1    D    
C22   C24   S    
C10   H29   S    
C15   H4    S    
C15   C30   S    
C9    C10   S    
N2    Zn1   S    
C9    H12   S    
O16   Zn2   S    
C22   O9    S    
C19   H13   S    
C6    C20   S    
C2    N2    D    
N1    O2    S    
C27   O15   A    
C24   H21   S    
C13   H2    S    
O12   Zn2   S    
C2    O9    S    
C18   H11   S    
C11   C13   S    
C8    O5    S    
C12   O13   A    
C17   H9    S    
C32   O10   S    
C5    C21   S    
C27   C28   S    
C1    O12   A    
C26   H28   S    
C4    C30   S    
C16   H6    S    
C22   H19   S    
