data_mof_unit_63481.cif
_audit_creation_date              2012-12-10T20:52:40-0500
_audit_creation_method            fapswitch 2.2
_symmetry_space_group_name_H-M    P1
_symmetry_Int_Tables_number       1
_space_group_crystal_system       triclinic
_cell_length_a                    8.654966
_cell_length_b                    15.855283
_cell_length_c                    15.089175
_cell_angle_alpha                 89.996001
_cell_angle_beta                  98.624187
_cell_angle_gamma                 89.977331
_cell_volume                      2047.22867024

loop_
_atom_site_label
_atom_site_type_symbol
_atom_type_description
_atom_site_fract_x
_atom_site_fract_y
_atom_site_fract_z
_atom_type_partial_charge
Br1   Br    Br    0.526021 0.898978 0.695204 -0.268954
Br2   Br    Br    0.473979 0.101022 0.304796 -0.268954
Br3   Br    Br    0.185750 0.433928 0.083764 -0.270482
Br4   Br    Br    0.814250 0.566072 0.916236 -0.270482
Br5   Br    Br    0.186280 0.433636 0.861873 -0.244869
Br6   Br    Br    0.813719 0.566364 0.138127 -0.244869
C1    C     C_R   0.500165 0.338947 0.499991 0.872260
C2    C     C_R   0.799051 0.500030 0.523068 0.879363
C3    C     C_2   0.037270 0.499958 0.464105 0.289992
C4    C     C_2   0.962730 0.500042 0.535895 0.289992
C5    C     C_R   0.510978 0.956804 0.582177 0.149672
C6    C     C_R   0.489023 0.043196 0.417823 0.149671
C7    C     C_R   0.499937 0.913015 0.500792 -0.267443
C8    C     C_R   0.500063 0.086985 0.499208 -0.267443
C9    C     C_R   0.488999 0.955612 0.418969 0.616590
C10   C     C_R   0.511001 0.044388 0.581031 0.616590
C11   C     C_1   0.499819 0.824119 0.500378 0.197206
C12   C     C_R   0.499835 0.661053 0.500009 0.872259
C13   C     C_1   0.500182 0.175881 0.499622 0.197206
C14   C     C_1   0.500213 0.250656 0.499937 -0.081695
C15   C     C_1   0.499787 0.749344 0.500063 -0.081696
C16   C     C_R   0.367873 0.472050 0.941498 0.244171
C17   C     C_R   0.632127 0.527950 0.058502 0.244171
C18   C     C_R   0.500070 0.500017 0.905057 -0.218053
C19   C     C_R   0.499930 0.499983 0.094943 -0.218053
C20   C     C_R   0.632232 0.527939 0.964346 0.235973
C21   C     C_R   0.367767 0.472061 0.035653 0.235973
C22   C     C_1   0.500099 0.500011 0.807055 0.328962
C23   C     C_1   0.499901 0.499989 0.192945 0.328962
C24   C     C_R   0.200949 0.499970 0.476932 0.879362
F1    F     F_    0.963261 0.499845 0.377606 -0.600829
F2    F     F_    0.036739 0.500155 0.622394 -0.600829
F3    F     F_    0.521627 0.088048 0.659247 -0.570610
F4    F     F_    0.478374 0.911952 0.340753 -0.570610
N1    N     N_1   0.499960 0.500020 0.270540 -0.054121
N2    N     N_1   0.500040 0.499980 0.729460 -0.054121
O1    O     O_R   0.500000 0.378020 0.573650 -0.596957
O2    O     O_R   0.500000 0.621980 0.426350 -0.596956
O3    O     O_R   0.500070 0.378020 0.426320 -0.602864
O4    O     O_R   0.499930 0.621980 0.573680 -0.602864
O5    O     O_R   0.271720 0.500000 0.556430 -0.576297
O6    O     O_R   0.728280 0.500000 0.443570 -0.576297
O7    O     O_R   0.271790 0.500000 0.409110 -0.567605
O8    O     O_R   0.728210 0.500000 0.590890 -0.567605
Zn1   Zn    Zn3+2 0.499950 0.500000 0.598370 1.106591
Zn2   Zn    Zn3+2 0.500050 0.500000 0.401630 1.106591

loop_
_geom_bond_atom_site_label_1
_geom_bond_atom_site_label_2
_ccdc_geom_bond_type
Br4   C20   S    
C24   O5    A    
C10   F3    S    
C19   C21   A    
C12   C15   S    
C3    C4    D    
C23   N1    T    
C9    F4    S    
C13   C14   T    
Br1   C5    S    
C6    C9    A    
C7    C11   S    
Br2   C6    S    
Br3   C21   S    
C12   O2    A    
N2    Zn1   S    
C5    C7    A    
C18   C20   A    
C2    O8    A    
C3    C24   S    
O3    Zn2   S    
Br6   C17   S    
C6    C8    A    
C8    C10   A    
C16   C21   A    
C17   C19   A    
C7    C9    A    
C19   C23   S    
O4    Zn1   S    
O7    Zn2   S    
C16   C18   A    
C24   O7    A    
O2    Zn2   S    
C5    C10   A    
C3    F1    S    
O1    Zn1   S    
C4    F2    S    
C12   O4    A    
O8    Zn1   S    
C22   N2    T    
C2    C4    S    
C1    C14   S    
O6    Zn2   S    
C17   C20   A    
O5    Zn1   S    
C1    O3    A    
N1    Zn2   S    
C8    C13   S    
C11   C15   T    
Br5   C16   S    
C18   C22   S    
C2    O6    A    
C1    O1    A    
