data_mof_unit_48285.cif
_audit_creation_date              2012-12-10T18:09:34-0500
_audit_creation_method            fapswitch 2.2
_symmetry_space_group_name_H-M    P1
_symmetry_Int_Tables_number       1
_space_group_crystal_system       triclinic
_cell_length_a                    14.982723
_cell_length_b                    15.548857
_cell_length_c                    9.797824
_cell_angle_alpha                 92.7739
_cell_angle_beta                  91.253428
_cell_angle_gamma                 89.526197
_cell_volume                      2279.2629634

loop_
_atom_site_label
_atom_site_type_symbol
_atom_type_description
_atom_site_fract_x
_atom_site_fract_y
_atom_site_fract_z
_atom_type_partial_charge
C1    C     C_R   0.121060 0.381585 0.499455 0.740165
C2    C     C_R   0.117894 0.621470 0.500943 0.738680
C3    C     C_R   0.621059 0.881584 0.499456 0.740178
C4    C     C_R   0.617894 0.121470 0.500943 0.738690
C5    C     C_3   0.071661 0.562715 0.088487 0.860555
C6    C     C_3   0.076789 0.558176 0.916424 0.842635
C7    C     C_3   0.571665 0.062711 0.088488 0.860556
C8    C     C_3   0.576792 0.058173 0.916425 0.842625
C9    C     C_R   0.878681 0.382110 0.497070 0.770356
C10   C     C_R   0.881285 0.620068 0.501203 0.742481
C11   C     C_R   0.378682 0.882109 0.497070 0.770338
C12   C     C_R   0.381286 0.120069 0.501203 0.742443
C13   C     C_3   0.850688 0.226861 0.526962 -0.400101
C14   C     C_3   0.762406 0.299773 0.349601 -0.375980
C15   C     C_3   0.816398 0.744590 0.639671 -0.376837
C16   C     C_3   0.829557 0.750964 0.386086 -0.377365
C17   C     C_3   0.350688 0.726859 0.526955 -0.400091
C18   C     C_3   0.262404 0.799775 0.349602 -0.375990
C19   C     C_3   0.316401 0.244595 0.639663 -0.376836
C20   C     C_3   0.329557 0.250964 0.386077 -0.377343
C21   C     C_3   0.276765 0.662414 0.553359 -0.391801
C22   C     C_3   0.201193 0.720671 0.347914 -0.342469
C23   C     C_3   0.246169 0.317262 0.637151 -0.355990
C24   C     C_3   0.257612 0.321573 0.382962 -0.417483
C25   C     C_3   0.776764 0.162418 0.553366 -0.391796
C26   C     C_3   0.701194 0.220670 0.347916 -0.342468
C27   C     C_3   0.746167 0.817258 0.637158 -0.355996
C28   C     C_3   0.757611 0.821569 0.382971 -0.417490
C29   C     C_3   0.732247 0.338742 0.594066 -0.345758
C30   C     C_3   0.718463 0.651010 0.481325 -0.382989
C31   C     C_3   0.232249 0.838738 0.594069 -0.345749
C32   C     C_3   0.218466 0.151013 0.481317 -0.382989
C33   C     C_3   0.807886 0.314123 0.491956 0.145833
C34   C     C_3   0.812910 0.689974 0.502925 0.179647
C35   C     C_3   0.307887 0.814121 0.491955 0.145841
C36   C     C_3   0.312912 0.189976 0.502920 0.179641
C37   C     C_3   0.185219 0.692983 0.496294 0.154115
C38   C     C_3   0.191253 0.312587 0.500015 0.176359
C39   C     C_3   0.685218 0.192984 0.496296 0.154109
C40   C     C_3   0.691251 0.812586 0.500021 0.176348
C41   C     C_3   0.152826 0.776458 0.572755 -0.449960
C42   C     C_3   0.146997 0.223046 0.480485 -0.378594
C43   C     C_3   0.652825 0.276460 0.572757 -0.449961
C44   C     C_3   0.646994 0.723044 0.480491 -0.378614
C45   C     C_3   0.914516 0.533806 0.080286 -0.242919
C46   C     C_3   0.914826 0.533239 0.916961 -0.231263
C47   C     C_3   0.015346 0.411619 0.076886 -0.231668
C48   C     C_3   0.022769 0.412272 0.914989 -0.192323
C49   C     C_3   0.414517 0.033809 0.080287 -0.242946
C50   C     C_3   0.414828 0.033245 0.916963 -0.231268
C51   C     C_3   0.515343 0.911618 0.076885 -0.231656
C52   C     C_3   0.522764 0.912270 0.914988 -0.192296
Cu1   Cu    Cu3+1 0.000100 0.500000 0.642410 1.019172
Cu2   Cu    Cu3+1 0.000100 0.500000 0.357590 1.003057
Cu3   Cu    Cu3+1 0.500100 0.000000 0.642410 1.019158
Cu4   Cu    Cu3+1 0.500100 1.000000 0.357590 1.003065
H1    H     H_    0.896531 0.232621 0.616364 0.198198
H2    H     H_    0.721511 0.357156 0.325286 0.221641
H3    H     H_    0.803248 0.703862 0.727054 0.219193
H4    H     H_    0.826617 0.713911 0.286249 0.182421
H5    H     H_    0.396533 0.732617 0.616356 0.198200
H6    H     H_    0.221507 0.857157 0.325294 0.221636
H7    H     H_    0.303253 0.203871 0.727051 0.219210
H8    H     H_    0.326615 0.213909 0.286242 0.182414
H9    H     H_    0.891928 0.201389 0.440883 0.155134
H10   H     H_    0.812373 0.287599 0.271092 0.234436
H11   H     H_    0.884054 0.772686 0.656962 0.150811
H12   H     H_    0.896787 0.780589 0.399285 0.147104
H13   H     H_    0.391927 0.701389 0.440873 0.155136
H14   H     H_    0.312369 0.787606 0.271089 0.234442
H15   H     H_    0.384057 0.272691 0.656949 0.150805
H16   H     H_    0.396788 0.280589 0.399274 0.147096
H17   H     H_    0.294973 0.597197 0.510418 0.142495
H18   H     H_    0.232457 0.667126 0.286500 0.232787
H19   H     H_    0.279917 0.380738 0.650474 0.154587
H20   H     H_    0.290197 0.385703 0.392177 0.142617
H21   H     H_    0.794973 0.097199 0.510432 0.142504
H22   H     H_    0.732455 0.167125 0.286501 0.232787
H23   H     H_    0.779912 0.880734 0.650488 0.154599
H24   H     H_    0.790191 0.885699 0.392175 0.142638
H25   H     H_    0.273003 0.660936 0.663508 0.183794
H26   H     H_    0.137257 0.739241 0.299049 0.224120
H27   H     H_    0.202129 0.311582 0.725785 0.229599
H28   H     H_    0.221327 0.313661 0.282994 0.185458
H29   H     H_    0.773001 0.160948 0.663515 0.183798
H30   H     H_    0.637257 0.239243 0.299053 0.224115
H31   H     H_    0.702125 0.811575 0.725787 0.229594
H32   H     H_    0.721327 0.813651 0.283008 0.185450
H33   H     H_    0.757762 0.333877 0.700003 0.261639
H34   H     H_    0.708667 0.405720 0.579831 0.141654
H35   H     H_    0.703809 0.606911 0.563169 0.187405
H36   H     H_    0.714684 0.612228 0.383039 0.205794
H37   H     H_    0.257764 0.833864 0.700004 0.261659
H38   H     H_    0.208670 0.905716 0.579845 0.141613
H39   H     H_    0.203812 0.106911 0.563159 0.187364
H40   H     H_    0.214688 0.112232 0.383029 0.205794
H41   H     H_    0.120226 0.764744 0.668374 0.186527
H42   H     H_    0.099534 0.807891 0.511190 0.159127
H43   H     H_    0.098627 0.213638 0.562193 0.179873
H44   H     H_    0.108921 0.218310 0.381890 0.209602
H45   H     H_    0.620228 0.264746 0.668379 0.186530
H46   H     H_    0.599531 0.307891 0.511193 0.159123
H47   H     H_    0.598620 0.713638 0.562197 0.179856
H48   H     H_    0.608924 0.718308 0.381891 0.209604
H49   H     H_    0.909673 0.600199 0.114438 0.110121
H50   H     H_    0.907854 0.600969 0.888591 0.134043
H51   H     H_    0.078147 0.386459 0.116426 0.129444
H52   H     H_    0.094101 0.398029 0.899937 0.148723
H53   H     H_    0.409675 0.100201 0.114446 0.110130
H54   H     H_    0.407861 0.100976 0.888595 0.134051
H55   H     H_    0.578143 0.886454 0.116421 0.129433
H56   H     H_    0.594095 0.898026 0.899932 0.148711
N1    N     N_3   0.001260 0.500000 0.143650 -0.249067
N2    N     N_3   0.001260 0.500000 0.856350 -0.254971
N3    N     N_3   0.501260 0.000000 0.143650 -0.249060
N4    N     N_3   0.501260 1.000000 0.856350 -0.254973
O1    O     O_R   0.091250 0.408820 0.620260 -0.559468
O2    O     O_R   0.091250 0.408820 0.379740 -0.588038
O3    O     O_R   0.091250 0.591180 0.620260 -0.505321
O4    O     O_R   0.091250 0.591180 0.379740 -0.504509
O5    O     O_R   0.591250 0.908820 0.620260 -0.559489
O6    O     O_R   0.591250 0.908820 0.379740 -0.588020
O7    O     O_R   0.591250 0.091180 0.620260 -0.505320
O8    O     O_R   0.591250 0.091180 0.379740 -0.504495
O9    O     O_R   0.908940 0.408800 0.620260 -0.570739
O10   O     O_R   0.908940 0.408800 0.379740 -0.539087
O11   O     O_R   0.908940 0.591200 0.620260 -0.554568
O12   O     O_R   0.908940 0.591200 0.379740 -0.596823
O13   O     O_R   0.408940 0.908800 0.620260 -0.570742
O14   O     O_R   0.408940 0.908800 0.379740 -0.539074
O15   O     O_R   0.408940 0.091200 0.620260 -0.554598
O16   O     O_R   0.408940 0.091200 0.379740 -0.596821
C53   C     C_2   0.823005 0.517132 0.140097 0.968072
O17   O     O_2   0.807479 0.453673 0.200861 -0.532541
O18   O     O_R   0.751830 0.574619 0.119362 -0.776943
H57   H     H_    0.767394 0.624945 0.062591 0.274026
C54   C     C_2   0.829733 0.494420 0.853464 0.961410
O19   O     O_2   0.800058 0.427573 0.893201 -0.542799
O20   O     O_R   0.775952 0.543408 0.768580 -0.809074
H58   H     H_    0.715199 0.516755 0.749372 0.303130
C55   C     C_2   0.956619 0.340538 0.124782 0.971985
O21   O     O_2   0.881633 0.329500 0.077099 -0.539215
O22   O     O_R   0.993247 0.280006 0.211684 -0.799362
H59   H     H_    0.952592 0.229278 0.223264 0.295401
C56   C     C_2   0.988977 0.330667 0.838749 0.934191
O23   O     O_2   0.909842 0.315328 0.825057 -0.559104
O24   O     O_R   0.050405 0.266270 0.799931 -0.824129
H60   H     H_    0.020744 0.210552 0.766615 0.305395
C57   C     C_2   0.323004 0.017132 0.140091 0.968030
O25   O     O_2   0.307479 0.953673 0.200863 -0.532552
O26   O     O_R   0.251829 0.074616 0.119347 -0.776922
H61   H     H_    0.267394 0.124944 0.062578 0.274047
C58   C     C_2   0.329733 0.994434 0.853467 0.961476
O27   O     O_2   0.300071 0.927575 0.893157 -0.542792
O28   O     O_R   0.275941 0.043435 0.768627 -0.809123
H62   H     H_    0.215223 0.016764 0.749303 0.303165
C59   C     C_2   0.456612 0.840539 0.124777 0.971966
O29   O     O_2   0.381627 0.829500 0.077081 -0.539228
O30   O     O_R   0.493236 0.780011 0.211692 -0.799358
H63   H     H_    0.452586 0.729279 0.223259 0.295403
C60   C     C_2   0.488978 0.830662 0.838748 0.934186
O31   O     O_2   0.409844 0.815325 0.825032 -0.559091
O32   O     O_R   0.550407 0.766257 0.799965 -0.824146
H64   H     H_    0.520746 0.710544 0.766634 0.305401
O33   O     O_3   0.052047 0.647119 0.151949 -0.561641
C61   C     C_3   0.001599 0.717414 0.101224 -0.436318
H65   H     H_    0.952138 0.737295 0.178085 0.169903
H66   H     H_    0.964330 0.706185 0.004574 0.184275
H67   H     H_    0.044428 0.774923 0.097590 0.187873
O34   O     O_3   0.064975 0.641467 0.863247 -0.594966
C62   C     C_3   0.134614 0.700757 0.898042 -0.274757
H68   H     H_    0.189302 0.694302 0.826446 0.183692
H69   H     H_    0.162474 0.697322 0.003015 0.196923
H70   H     H_    0.107997 0.767106 0.890369 0.163289
O35   O     O_3   0.159626 0.553111 0.146015 -0.587077
C63   C     C_3   0.207407 0.475345 0.145854 -0.434314
H71   H     H_    0.197669 0.431586 0.055446 0.162450
H72   H     H_    0.196389 0.445677 0.240200 0.223535
H73   H     H_    0.279557 0.490833 0.151658 0.171506
O36   O     O_3   0.156286 0.519086 0.856849 -0.583817
C64   C     C_3   0.244991 0.545705 0.887992 -0.325419
H74   H     H_    0.286217 0.488448 0.910408 0.155372
H75   H     H_    0.254836 0.594539 0.971866 0.193769
H76   H     H_    0.276262 0.565310 0.795349 0.160010
O37   O     O_3   0.552059 0.147117 0.151948 -0.561646
C65   C     C_3   0.501606 0.217411 0.101233 -0.436335
H77   H     H_    0.452144 0.237286 0.178096 0.169907
H78   H     H_    0.464339 0.206185 0.004580 0.184278
H79   H     H_    0.544431 0.274923 0.097603 0.187871
O38   O     O_3   0.564981 0.141465 0.863249 -0.594964
C66   C     C_3   0.634618 0.200757 0.898048 -0.274753
H80   H     H_    0.689305 0.194306 0.826452 0.183685
H81   H     H_    0.662478 0.197319 0.003019 0.196926
H82   H     H_    0.607998 0.267105 0.890378 0.163290
O39   O     O_3   0.659628 0.053095 0.146022 -0.587050
C67   C     C_3   0.707406 0.975327 0.145817 -0.434369
H83   H     H_    0.697662 0.931586 0.055390 0.162478
H84   H     H_    0.696371 0.945628 0.240132 0.223527
H85   H     H_    0.779557 0.990811 0.151642 0.171537
O40   O     O_3   0.656289 0.019080 0.856852 -0.583830
C68   C     C_3   0.744993 0.045707 0.887984 -0.325410
H86   H     H_    0.786227 0.988453 0.910390 0.155366
H87   H     H_    0.754837 0.094536 0.971867 0.193766
H88   H     H_    0.776256 0.065316 0.795339 0.160017

loop_
_geom_bond_atom_site_label_1
_geom_bond_atom_site_label_2
_ccdc_geom_bond_type
C16   C28   S    
C9    C33   S    
C62   H68   S    
Cu3   O5    S    
C17   H13   S    
O38   C66   S    
C12   O15   A    
Cu2   O4    S    
C5    O35   S    
C68   H86   S    
C19   H15   S    
O24   H60   S    
Cu3   Cu4   S    
C13   C25   S    
C14   C33   S    
C29   H33   S    
C60   O31   D    
C44   H48   S    
C7    C8    S    
O33   C61   S    
C13   H9    S    
C45   C46   S    
Cu1   N2    S    
Cu2   O10   S    
C26   H22   S    
C23   H27   S    
C22   H26   S    
C25   H21   S    
C32   C36   S    
C48   N2    S    
C38   C42   S    
C27   H23   S    
C19   C36   S    
C57   O26   S    
O30   H63   S    
C5    C6    S    
Cu1   O1    S    
C26   C39   S    
C67   H83   S    
C6    O36   S    
C13   H1    S    
Cu3   N4    S    
C52   H56   S    
C50   C58   S    
O22   H59   S    
Cu2   N1    S    
C21   H17   S    
C50   H54   S    
C4    O8    A    
C16   H4    S    
C7    N3    S    
C6    N2    S    
C31   C35   S    
Cu1   O11   S    
C17   H5    S    
C42   H43   S    
C63   H73   S    
C20   C24   S    
C29   C33   S    
C19   H7    S    
O40   C68   S    
Cu3   O13   S    
C28   H32   S    
C24   C38   S    
O26   H61   S    
C16   H12   S    
Cu3   O15   S    
C5    O33   S    
C12   C36   S    
C12   O16   A    
C18   C35   S    
C15   C34   S    
C43   H45   S    
C3    O6    A    
C52   C60   S    
C16   C34   S    
C64   H75   S    
C59   O30   S    
C29   C43   S    
C61   H66   S    
C68   H87   S    
C30   C44   S    
C67   H85   S    
C10   O12   A    
C11   O13   A    
C29   H34   S    
C60   O32   S    
C44   H47   S    
C45   H49   S    
C56   O23   D    
C52   N4    S    
C14   H2    S    
C62   H70   S    
Cu3   O7    S    
C56   O24   S    
C51   C52   S    
O18   H57   S    
C30   H36   S    
C8    O38   S    
C30   C34   S    
C24   H20   S    
C39   C43   S    
C64   H74   S    
C22   C37   S    
Cu2   O12   S    
C51   C59   S    
C9    O9    A    
C66   H80   S    
C4    O7    A    
Cu4   O6    S    
C20   H8    S    
C19   C23   S    
C66   H81   S    
C28   C40   S    
C13   C33   S    
C42   H44   S    
C62   H69   S    
C15   C27   S    
C47   C48   S    
C4    C39   S    
C27   C40   S    
C26   H30   S    
C15   H11   S    
C48   C56   S    
C25   H29   S    
C14   H10   S    
C10   C34   S    
C1    O1    A    
C14   C26   S    
C27   H31   S    
C54   O20   S    
Cu4   O16   S    
C18   H14   S    
Cu1   O9    S    
C1    C38   S    
C65   H77   S    
C46   C54   S    
C67   H84   S    
C63   H71   S    
C49   N3    S    
C21   H25   S    
C3    C40   S    
C47   H51   S    
Cu2   O2    S    
C53   O17   D    
C48   H52   S    
C68   H88   S    
C41   H41   S    
C8    O40   S    
C58   O28   S    
C22   H18   S    
C65   H78   S    
C10   O11   A    
C23   C38   S    
C11   O14   A    
Cu4   O8    S    
O36   C64   S    
C49   H53   S    
C6    O34   S    
C64   H76   S    
C47   N1    S    
C59   O29   D    
C51   H55   S    
C31   C41   S    
C5    N1    S    
C18   C22   S    
C15   H3    S    
C7    O37   S    
C18   H6    S    
C46   N2    S    
C23   H19   S    
C30   H35   S    
O20   H58   S    
Cu1   O3    S    
Cu1   Cu2   S    
C31   H38   S    
C54   O19   D    
C47   C55   S    
C45   C53   S    
C9    O10   A    
C49   C57   S    
C65   H79   S    
C55   O22   S    
C24   H28   S    
C43   H46   S    
C32   H40   S    
O35   C63   S    
C31   H37   S    
C55   O21   D    
C25   C39   S    
C2    C37   S    
O37   C65   S    
C61   H65   S    
C46   H50   S    
C2    O3    A    
C11   C35   S    
Cu4   N3    S    
C50   N4    S    
C1    O2    A    
C37   C41   S    
C28   H24   S    
C51   N3    S    
C66   H82   S    
O32   H64   S    
C8    N4    S    
O39   C67   S    
C20   C36   S    
C45   N1    S    
C40   C44   S    
C32   H39   S    
C21   C37   S    
C61   H67   S    
C49   C50   S    
O34   C62   S    
O28   H62   S    
C53   O18   S    
C32   C42   S    
C41   H42   S    
C20   H16   S    
C17   C35   S    
C2    O4    A    
C58   O27   D    
C57   O25   D    
C7    O39   S    
Cu4   O14   S    
C3    O5    A    
C63   H72   S    
C17   C21   S    
