data_mof_unit_48943.cif
_audit_creation_date              2012-12-10T20:31:05-0500
_audit_creation_method            fapswitch 2.2
_symmetry_space_group_name_H-M    P1
_symmetry_Int_Tables_number       1
_space_group_crystal_system       triclinic
_cell_length_a                    15.007536
_cell_length_b                    10.678314
_cell_length_c                    9.851482
_cell_angle_alpha                 89.972117
_cell_angle_beta                  89.894371
_cell_angle_gamma                 90.165671
_cell_volume                      1578.7415649

loop_
_atom_site_label
_atom_site_type_symbol
_atom_type_description
_atom_site_fract_x
_atom_site_fract_y
_atom_site_fract_z
_atom_type_partial_charge
C1    C     C_R   0.497961 0.259862 0.499838 0.888756
C2    C     C_R   0.907400 0.520207 0.378628 0.139397
C3    C     C_R   0.953864 0.438531 0.742055 0.207548
C4    C     C_R   0.046809 0.440359 0.740295 -0.277656
C5    C     C_R   0.092711 0.467701 0.620315 0.083001
C6    C     C_R   0.046241 0.493852 0.499559 0.056528
C7    C     C_R   0.092682 0.521930 0.378462 0.135424
C8    C     C_R   0.046393 0.547733 0.258579 -0.211659
C9    C     C_R   0.953896 0.546848 0.258696 -0.219854
C10   C     C_R   0.184840 0.469277 0.619197 -0.203565
C11   C     C_R   0.230667 0.498182 0.499718 -0.073183
C12   C     C_R   0.326572 0.499792 0.500019 0.905779
C13   C     C_R   0.184875 0.524552 0.379686 -0.250730
C14   C     C_R   0.459963 0.063956 0.614328 0.064342
C15   C     C_R   0.484696 0.128368 0.497234 -0.105469
C16   C     C_R   0.490771 0.064348 0.373367 -0.197087
C17   C     C_R   0.489826 0.935396 0.373476 -0.187056
C18   C     C_R   0.481460 0.871182 0.497050 -0.173562
C19   C     C_R   0.456342 0.935975 0.613860 0.105747
C20   C     C_3   0.488056 0.927274 0.757422 0.328979
C21   C     C_3   0.494839 0.069676 0.756241 -0.542079
C22   C     C_R   0.456607 0.407696 0.071564 0.208855
C23   C     C_R   0.496449 0.740005 0.499796 0.890773
C24   C     C_R   0.549848 0.583737 0.071844 -0.108003
C25   C     C_R   0.550082 0.583481 0.927766 -0.032301
C26   C     C_R   0.456121 0.408243 0.928851 0.204260
C27   C     C_3   0.358574 0.382182 0.924752 -0.496833
C28   C     C_3   0.359533 0.379229 0.078562 -0.483596
C29   C     C_R   0.673391 0.499783 0.499896 0.887347
C30   C     C_R   0.815326 0.521379 0.379339 -0.251773
C31   C     C_R   0.769233 0.497484 0.499790 -0.087929
C32   C     C_R   0.814418 0.470693 0.620212 -0.249300
C33   C     C_R   0.906902 0.466510 0.621705 0.076815
C34   C     C_R   0.953502 0.493038 0.499986 0.017097
H1    H     H_    0.779661 0.542611 0.286475 0.159299
H2    H     H_    0.503354 0.887182 0.279121 0.205550
H3    H     H_    0.553218 0.879106 0.768524 0.061942
H4    H     H_    0.448367 0.118259 0.826326 0.241029
H5    H     H_    0.564765 0.104202 0.760497 0.170152
H6    H     H_    0.588510 0.653078 0.126144 0.148599
H7    H     H_    0.588958 0.652572 0.873189 0.135060
H8    H     H_    0.320425 0.462800 0.884213 0.233506
H9    H     H_    0.342821 0.290058 0.878116 0.210539
H10   H     H_    0.320394 0.456285 0.124866 0.217094
H11   H     H_    0.777158 0.452874 0.712513 0.192814
H12   H     H_    0.346254 0.284651 0.121383 0.215059
H13   H     H_    0.083122 0.419694 0.832691 0.153195
H14   H     H_    0.220649 0.447074 0.711143 0.154798
H15   H     H_    0.220751 0.548264 0.287608 0.156341
H16   H     H_    0.081665 0.569032 0.165219 0.150384
H17   H     H_    0.918689 0.567934 0.165556 0.142932
H18   H     H_    0.503566 0.112463 0.278404 0.184211
N1    N     N_R   0.499390 0.499140 0.142800 -0.116097
N2    N     N_R   0.499390 0.499180 0.857150 -0.098684
O1    O     O_R   0.500010 0.316790 0.614690 -0.620904
O2    O     O_R   0.500000 0.316760 0.385350 -0.627254
O3    O     O_R   0.367850 0.499990 0.614680 -0.599782
O4    O     O_R   0.367840 0.499950 0.385340 -0.631620
O5    O     O_R   0.500000 0.683240 0.614650 -0.595106
O6    O     O_R   0.499990 0.683210 0.385310 -0.626804
O7    O     O_R   0.632160 0.500050 0.614660 -0.638380
O8    O     O_R   0.632150 0.500010 0.385320 -0.626322
Zn1   Zn    Zn3+2 0.500010 0.500020 0.653130 0.985998
Zn2   Zn    Zn3+2 0.499990 0.499980 0.346870 0.950210
S1    S     S_3+6 0.402312 0.869314 0.868224 0.011994
O9    O     O_2   0.320910 0.950663 0.859324 -0.293841
O10   O     O_2   0.377808 0.737809 0.828616 -0.294978
O11   O     O_3   0.440648 0.870069 0.028293 -0.594170
H19   H     H_    0.395935 0.822030 0.081178 0.378416
N3    N     N_2   0.908375 0.410204 0.865342 -0.320071
H20   H     H_    0.941098 0.441817 0.950774 0.225919
C35   C     C_3   0.882128 0.280282 0.878369 -0.788545
H21   H     H_    0.942063 0.219523 0.883295 0.250423
H22   H     H_    0.840048 0.251068 0.791217 0.246550
H23   H     H_    0.842831 0.267677 0.973046 0.241531

loop_
_geom_bond_atom_site_label_1
_geom_bond_atom_site_label_2
_ccdc_geom_bond_type
C8    C9    A    
C32   H11   S    
C19   C20   S    
C9    H17   S    
C7    C8    A    
C23   O5    A    
C28   H12   S    
C26   C27   S    
C30   H1    S    
C14   C21   S    
C1    O2    A    
C5    C6    A    
N1    Zn2   S    
N2    Zn1   S    
C3    C33   A    
C15   C16   A    
C18   C19   A    
O7    Zn1   S    
O8    Zn2   S    
O11   H19   S    
C21   H4    S    
C16   C17   A    
S1    O10   D    
O1    Zn1   S    
O2    Zn2   S    
O3    Zn1   S    
N3    H20   S    
C1    C15   S    
C17   H2    S    
C12   O4    A    
C2    C34   A    
C22   C28   S    
C35   H23   S    
C26   N2    A    
C33   C34   A    
C22   N1    A    
O4    Zn2   S    
C23   O6    A    
C29   O7    A    
C18   C23   S    
C20   S1    S    
C3    N3    S    
C25   N2    A    
C35   H22   S    
C25   H7    S    
C4    C5    A    
C24   N1    A    
C28   H10   S    
C6    C34   A    
C31   C32   A    
C21   H5    S    
S1    O11   S    
C17   C18   A    
C24   C25   A    
C13   H15   S    
C12   O3    A    
C10   H14   S    
C3    C4    A    
C8    H16   S    
C29   O8    A    
C14   C19   A    
C16   H18   S    
C35   H21   S    
C11   C12   S    
C6    C7    A    
O5    Zn1   S    
C2    C30   A    
O6    Zn2   S    
C32   C33   A    
C1    O1    A    
C5    C10   A    
C29   C31   S    
C20   H3    S    
C11   C13   A    
C27   H8    S    
C30   C31   A    
C24   H6    S    
C10   C11   A    
C27   H9    S    
C7    C13   A    
C20   C21   S    
S1    O9    D    
C22   C26   A    
C27   C28   S    
C14   C15   A    
N3    C35   S    
C2    C9    A    
C4    H13   S    
