data_mof_unit_21223.cif
_audit_creation_date              2012-12-10T16:44:40-0500
_audit_creation_method            fapswitch 2.2
_symmetry_space_group_name_H-M    P1
_symmetry_Int_Tables_number       1
_space_group_crystal_system       triclinic
_cell_length_a                    15.074945
_cell_length_b                    8.697067
_cell_length_c                    7.619429
_cell_angle_alpha                 102.917489
_cell_angle_beta                  96.487256
_cell_angle_gamma                 95.647187
_cell_volume                      959.532133981

loop_
_atom_site_label
_atom_site_type_symbol
_atom_type_description
_atom_site_fract_x
_atom_site_fract_y
_atom_site_fract_z
_atom_type_partial_charge
C1    C     C_R   0.497067 0.200130 0.453255 0.855418
C2    C     C_R   0.502933 0.799870 0.546745 0.855417
C3    C     C_R   0.021068 0.395033 0.171308 -0.215414
C4    C     C_R   0.978932 0.604968 0.828692 -0.215417
C5    C     C_2   0.495904 0.031655 0.427947 -0.361618
C6    C     C_2   0.504096 0.968344 0.572052 -0.361618
C7    C     C_R   0.328899 0.499284 0.498948 0.784145
C8    C     C_R   0.671101 0.500716 0.501051 0.784145
C9    C     C_R   0.827176 0.551355 0.665082 -0.256158
C10   C     C_R   0.172824 0.448645 0.334919 -0.256157
C11   C     C_R   0.768177 0.500154 0.501551 -0.057175
C12   C     C_R   0.231822 0.499844 0.498449 -0.057176
C13   C     C_R   0.802172 0.449056 0.337024 -0.249293
C14   C     C_R   0.197828 0.550941 0.662976 -0.249294
C15   C     C_R   0.894450 0.447989 0.335331 0.099462
C16   C     C_R   0.105549 0.552005 0.664671 0.099463
C17   C     C_R   0.953510 0.500021 0.500252 0.066922
C18   C     C_R   0.046489 0.499972 0.499750 0.066922
C19   C     C_R   0.919696 0.552300 0.665653 0.105130
C20   C     C_R   0.080304 0.447697 0.334348 0.105130
C21   C     C_R   0.928620 0.395532 0.171705 -0.225326
C22   C     C_R   0.071380 0.604467 0.828295 -0.225330
Cu1   Cu    Cu3+1 0.510010 0.517380 0.684380 0.963502
Cu2   Cu    Cu3+1 0.489990 0.482620 0.315620 0.963502
H1    H     H_    0.801563 0.592182 0.791776 0.143811
H2    H     H_    0.198437 0.407821 0.208223 0.143812
H3    H     H_    0.756872 0.408848 0.210132 0.162339
H4    H     H_    0.243128 0.591151 0.789867 0.162339
H5    H     H_    0.883907 0.355181 0.044166 0.151742
H6    H     H_    0.116093 0.644824 0.955833 0.151743
H7    H     H_    0.046261 0.353786 0.043580 0.156812
H8    H     H_    0.953739 0.646225 0.956417 0.156812
H9    H     H_    0.488362 0.959426 0.289541 0.195635
H10   H     H_    0.511638 0.040574 0.710459 0.195635
N1    N     N_2   0.474890 0.456420 0.038520 0.025790
N2    N     N_2   0.525110 0.543580 0.961480 0.025790
O1    O     O_R   0.506510 0.286130 0.619770 -0.597334
O2    O     O_R   0.493490 0.713870 0.380230 -0.597334
O3    O     O_R   0.489600 0.256770 0.308360 -0.575770
O4    O     O_R   0.510400 0.743230 0.691640 -0.575770
O5    O     O_R   0.378710 0.514640 0.655720 -0.611912
O6    O     O_R   0.621290 0.485360 0.344280 -0.611912
O7    O     O_R   0.361800 0.485290 0.344300 -0.591129
O8    O     O_R   0.638200 0.514710 0.655700 -0.591129
N3    N     N_2   0.422066 0.322789 0.928142 -0.304772
H11   H     H_    0.405423 0.326964 0.797607 0.296723
C23   C     C_3   0.339766 0.274251 0.992023 -0.600453
H12   H     H_    0.301363 0.170602 0.889791 0.174795
H13   H     H_    0.297465 0.372473 0.007079 0.206169
H14   H     H_    0.352565 0.234628 0.119014 0.257962
N4    N     N_2   0.577934 0.677211 0.071858 -0.304772
H15   H     H_    0.594576 0.673036 0.202393 0.296723
C24   C     C_3   0.660234 0.725749 0.007976 -0.600453
H16   H     H_    0.698637 0.829398 0.110209 0.174795
H17   H     H_    0.647435 0.765372 0.880986 0.257962
H18   H     H_    0.702534 0.627527 0.992921 0.206169

loop_
_geom_bond_atom_site_label_1
_geom_bond_atom_site_label_2
_ccdc_geom_bond_type
Cu2   O2    S    
Cu1   Cu2   S    
C7    O7    A    
Cu2   O6    S    
C2    O2    A    
C15   C21   A    
N1    N2    D    
Cu1   O5    S    
C1    O1    A    
C6    H10   S    
C10   H2    S    
C24   H17   S    
C17   C18   A    
C9    H1    S    
C3    C20   A    
C23   H13   S    
C2    C6    S    
N3    H11   S    
C24   H18   S    
C3    H7    S    
C9    C11   A    
C8    O8    A    
C4    H8    S    
N2    N4    S    
C10   C12   A    
C8    C11   S    
C1    C5    S    
C17   C19   A    
Cu1   O1    S    
C12   C14   A    
C23   H14   S    
C18   C20   A    
C13   C15   A    
C5    C6    D    
C14   C16   A    
C7    C12   S    
C3    C21   A    
Cu2   N1    S    
C1    O3    A    
N4    H15   S    
N1    N3    S    
C23   H12   S    
C2    O4    A    
C11   C13   A    
Cu2   O3    S    
C4    C22   A    
C16   C18   A    
Cu1   N2    S    
N3    C23   S    
C10   C20   A    
C15   C17   A    
Cu2   O7    S    
C13   H3    S    
C16   C22   A    
C22   H6    S    
C14   H4    S    
C24   H16   S    
C4    C19   A    
C21   H5    S    
C9    C19   A    
Cu1   O8    S    
Cu1   O4    S    
C7    O5    A    
C8    O6    A    
N4    C24   S    
C5    H9    S    
