data_mof_unit_64038.cif
_audit_creation_date              2012-12-10T18:33:20-0500
_audit_creation_method            fapswitch 2.2
_symmetry_space_group_name_H-M    P1
_symmetry_Int_Tables_number       1
_space_group_crystal_system       triclinic
_cell_length_a                    21.712839
_cell_length_b                    21.713113
_cell_length_c                    24.735152
_cell_angle_alpha                 115.844904
_cell_angle_beta                  116.143635
_cell_angle_gamma                 89.966426
_cell_volume                      9152.84598424

loop_
_atom_site_label
_atom_site_type_symbol
_atom_type_description
_atom_site_fract_x
_atom_site_fract_y
_atom_site_fract_z
_atom_type_partial_charge
C1    C     C_R   0.066036 0.566187 0.632612 0.795923
C2    C     C_R   0.011966 0.285616 0.260338 -0.099285
C3    C     C_R   0.630375 0.306878 0.365836 -0.131194
C4    C     C_R   0.530789 0.201484 0.468046 -0.192559
C5    C     C_R   0.501922 0.187822 0.503605 -0.080895
C6    C     C_R   0.474434 0.239253 0.539770 0.007091
C7    C     C_R   0.473906 0.302064 0.537074 -0.209765
C8    C     C_R   0.501274 0.314623 0.500300 -0.034731
C9    C     C_R   0.531053 0.264792 0.466416 0.042745
C10   C     C_R   0.380427 0.233833 0.571159 -0.134603
C11   C     C_R   0.357893 0.228241 0.614136 -0.120302
C12   C     C_R   0.404709 0.220816 0.670570 -0.105537
C13   C     C_R   0.254137 0.449058 0.443714 -0.247923
C14   C     C_R   0.474141 0.219006 0.684141 -0.113244
C15   C     C_R   0.496767 0.224013 0.641007 -0.093691
C16   C     C_R   0.449910 0.231220 0.584023 0.121763
C17   C     C_R   0.313612 0.502459 0.500313 -0.081185
C18   C     C_R   0.307527 0.555493 0.555733 0.061595
C19   C     C_R   0.242446 0.553255 0.553569 -0.199732
C20   C     C_R   0.184008 0.498936 0.497816 -0.066824
C21   C     C_R   0.189224 0.446705 0.442011 -0.003922
C22   C     C_R   0.412880 0.612486 0.675233 0.185019
C23   C     C_R   0.470583 0.670142 0.729327 0.145969
C24   C     C_R   0.481603 0.729644 0.723023 -0.197579
C25   C     C_R   0.117838 0.499209 0.498473 0.809180
C26   C     C_R   0.435425 0.732769 0.663816 0.201662
C27   C     C_R   0.377983 0.676269 0.610366 -0.231309
C28   C     C_R   0.366988 0.615584 0.615024 -0.004187
C29   C     C_R   0.102495 0.674330 0.745114 -0.168621
C30   C     C_R   0.137966 0.709963 0.817068 -0.142176
C31   C     C_R   0.176280 0.676182 0.853878 0.072524
C32   C     C_R   0.177765 0.605828 0.817344 -0.126242
C33   C     C_R   0.141266 0.569818 0.745390 -0.186118
C34   C     C_R   0.103709 0.603893 0.708617 -0.040327
C35   C     C_R   0.284069 0.783802 0.069921 0.409533
C36   C     C_R   0.933814 0.433828 0.367388 0.802477
C37   C     C_R   0.214132 0.713986 0.929963 0.437258
C38   C     C_R   0.289206 0.861801 0.182639 -0.150159
C39   C     C_R   0.325199 0.897502 0.254613 -0.180330
C40   C     C_R   0.395440 0.895210 0.291360 -0.031658
C41   C     C_R   0.428785 0.855939 0.254822 -0.183745
C42   C     C_R   0.392336 0.819102 0.182851 -0.153444
C43   C     C_R   0.322309 0.821979 0.146047 0.054051
C44   C     C_R   0.947488 0.428419 0.657721 -0.160175
C45   C     C_R   0.890986 0.430566 0.602588 -0.038692
C46   C     C_R   0.868556 0.493163 0.611767 0.061523
C47   C     C_R   0.881748 0.500464 0.500980 0.802731
C48   C     C_R   0.902710 0.553442 0.676940 -0.217982
C49   C     C_R   0.959311 0.551565 0.732902 0.034824
C50   C     C_R   0.981522 0.488446 0.722560 -0.164766
C51   C     C_R   0.743816 0.497345 0.552722 -0.211984
C52   C     C_R   0.686526 0.503622 0.500695 -0.084925
C53   C     C_R   0.694451 0.511264 0.450081 0.007304
C54   C     C_R   0.758986 0.509087 0.450886 -0.241647
C55   C     C_R   0.815407 0.500856 0.501777 -0.074019
C56   C     C_R   0.808408 0.495768 0.553734 0.001385
C57   C     C_R   0.609949 0.478806 0.327784 -0.137849
C58   C     C_R   0.044086 0.279439 0.320108 -0.139124
C59   C     C_R   0.555928 0.491889 0.279182 -0.130560
C60   C     C_R   0.529906 0.551787 0.300753 -0.108538
C61   C     C_R   0.558075 0.598909 0.370961 -0.113513
C62   C     C_R   0.611960 0.585964 0.419738 -0.116582
C63   C     C_R   0.637931 0.525488 0.398441 0.125684
C64   C     C_R   0.896656 0.431718 0.255557 -0.204657
C65   C     C_R   0.861835 0.396952 0.183553 0.162534
C66   C     C_R   0.825328 0.325474 0.146093 0.007120
C67   C     C_R   0.824249 0.290647 0.182123 -0.210744
C68   C     C_R   0.859794 0.325573 0.254034 -0.185154
C69   C     C_R   0.101800 0.332133 0.379710 -0.097764
C70   C     C_R   0.896308 0.396445 0.291383 -0.050399
C71   C     C_R   0.717367 0.214198 0.930201 0.406566
C72   C     C_R   0.787509 0.286405 0.070133 0.432089
C73   C     C_R   0.711854 0.177326 0.816677 -0.163373
C74   C     C_R   0.675271 0.141768 0.744758 -0.189062
C75   C     C_R   0.604564 0.104569 0.708530 -0.043706
C76   C     C_R   0.571120 0.103418 0.745519 -0.215677
C77   C     C_R   0.607795 0.138697 0.817477 -0.160986
C78   C     C_R   0.678589 0.176132 0.853903 0.051783
C79   C     C_R   0.498572 0.618919 0.499776 0.778478
C80   C     C_R   0.127221 0.391634 0.379858 0.082933
C81   C     C_R   0.380820 0.501331 0.500090 0.793041
C82   C     C_R   0.500555 0.381212 0.500086 0.806092
C83   C     C_R   0.619150 0.501275 0.500111 0.795034
C84   C     C_R   0.500721 0.119561 0.501543 0.783974
C85   C     C_R   0.433639 0.933460 0.367388 0.777110
C86   C     C_R   0.500720 0.881771 0.501300 0.794340
C87   C     C_R   0.566341 0.066324 0.632577 0.781550
C88   C     C_R   0.290023 0.561473 0.273951 -0.124362
C89   C     C_R   0.351529 0.614552 0.325317 -0.152560
C90   C     C_R   0.373937 0.637708 0.395124 0.123994
C91   C     C_R   0.094668 0.397658 0.319751 -0.172107
C92   C     C_R   0.333582 0.607439 0.412656 -0.086817
C93   C     C_R   0.271916 0.554670 0.361190 -0.122183
C94   C     C_R   0.250225 0.531578 0.291878 -0.111767
C95   C     C_R   0.441211 0.759896 0.451835 -0.218766
C96   C     C_R   0.500955 0.815327 0.501921 -0.058886
C97   C     C_R   0.559702 0.806115 0.550815 0.009412
C98   C     C_R   0.557016 0.741330 0.549278 -0.208583
C99   C     C_R   0.497219 0.685711 0.499366 -0.076617
C100  C     C_R   0.438690 0.694570 0.449448 0.001804
C101  C     C_R   0.687297 0.860234 0.604321 -0.134147
C102  C     C_R   0.037129 0.344752 0.260198 -0.119002
C103  C     C_R   0.748439 0.912875 0.657871 -0.126261
C104  C     C_R   0.746330 0.968258 0.713491 -0.102979
C105  C     C_R   0.683021 0.971211 0.715466 -0.122891
C106  C     C_R   0.621430 0.919526 0.661334 -0.127210
C107  C     C_R   0.623381 0.863514 0.605640 0.110444
C108  C     C_R   0.557713 0.279706 0.331559 -0.114232
C109  C     C_R   0.526305 0.265786 0.364854 -0.117591
C110  C     C_R   0.567153 0.280055 0.433354 0.005975
C111  C     C_R   0.641300 0.307845 0.468626 -0.004330
C112  C     C_R   0.671963 0.320180 0.433519 -0.170327
Cu1   Cu    Cu3+1 0.000000 0.438230 0.500020 0.941437
Cu2   Cu    Cu3+1 0.000000 0.561770 0.499980 0.966588
Cu3   Cu    Cu3+1 0.465780 0.465820 0.431560 0.968832
Cu4   Cu    Cu3+1 0.534220 0.534230 0.568440 1.019942
Cu5   Cu    Cu3+1 0.561810 0.999860 0.500000 0.963801
Cu6   Cu    Cu3+1 0.438190 0.999810 0.500000 0.972962
H1    H     H_    0.967413 0.244716 0.214205 0.136704
H2    H     H_    0.526135 0.773660 0.764327 0.182583
H3    H     H_    0.341884 0.679626 0.565128 0.157328
H4    H     H_    0.073486 0.701690 0.718042 0.157950
H5    H     H_    0.135899 0.764163 0.843894 0.152653
H6    H     H_    0.206384 0.578305 0.844389 0.154615
H7    H     H_    0.143016 0.515500 0.718539 0.157043
H8    H     H_    0.235175 0.864724 0.155637 0.154347
H9    H     H_    0.298313 0.927581 0.281513 0.152711
H10   H     H_    0.482811 0.853028 0.281891 0.152673
H11   H     H_    0.024446 0.233677 0.320157 0.128026
H12   H     H_    0.419282 0.789070 0.156007 0.154916
H13   H     H_    0.025239 0.485495 0.764537 0.168913
H14   H     H_    0.964832 0.380033 0.650241 0.140452
H15   H     H_    0.864793 0.383514 0.552714 0.155964
H16   H     H_    0.884791 0.601534 0.683758 0.182338
H17   H     H_    0.737945 0.492527 0.592145 0.175278
H18   H     H_    0.765691 0.514828 0.412238 0.148684
H19   H     H_    0.629380 0.432003 0.310472 0.120197
H20   H     H_    0.534145 0.455518 0.224776 0.134751
H21   H     H_    0.126823 0.326502 0.425536 0.134836
H22   H     H_    0.488022 0.561765 0.263074 0.125066
H23   H     H_    0.538111 0.645424 0.387570 0.129718
H24   H     H_    0.633321 0.622878 0.474018 0.098735
H25   H     H_    0.924324 0.486533 0.283539 0.174006
H26   H     H_    0.796561 0.235859 0.154486 0.157916
H27   H     H_    0.858460 0.297174 0.280380 0.155818
H28   H     H_    0.766327 0.205519 0.843031 0.159664
H29   H     H_    0.702328 0.143520 0.717496 0.160350
H30   H     H_    0.516732 0.074781 0.718820 0.167251
H31   H     H_    0.113914 0.443187 0.319072 0.131322
H32   H     H_    0.580512 0.136790 0.844491 0.162082
H33   H     H_    0.202539 0.490622 0.252090 0.131379
H34   H     H_    0.273157 0.543596 0.220245 0.136160
H35   H     H_    0.381950 0.637249 0.310759 0.119541
H36   H     H_    0.350015 0.624630 0.466037 0.098722
H37   H     H_    0.240889 0.531759 0.375015 0.131907
H38   H     H_    0.396419 0.767593 0.414222 0.148048
H39   H     H_    0.602097 0.734145 0.587078 0.158677
H40   H     H_    0.689677 0.816958 0.561938 0.123676
H41   H     H_    0.797583 0.910382 0.656567 0.132183
H42   H     H_    0.011979 0.349612 0.213972 0.151079
H43   H     H_    0.793810 0.008630 0.755254 0.130803
H44   H     H_    0.681773 0.013399 0.759135 0.156884
H45   H     H_    0.572671 0.922494 0.663384 0.152926
H46   H     H_    0.654627 0.317674 0.339921 0.131937
H47   H     H_    0.525653 0.269260 0.279008 0.127922
H48   H     H_    0.469803 0.244358 0.337404 0.134160
H49   H     H_    0.728240 0.341355 0.458820 0.168780
H50   H     H_    0.553168 0.162766 0.441392 0.152608
H51   H     H_    0.452990 0.341930 0.564618 0.157790
H52   H     H_    0.258203 0.408688 0.400744 0.165567
H53   H     H_    0.343782 0.239958 0.527799 0.125328
H54   H     H_    0.304222 0.229978 0.603865 0.133106
H55   H     H_    0.387300 0.216844 0.703992 0.132129
H56   H     H_    0.510540 0.214222 0.728368 0.146506
H57   H     H_    0.550857 0.222995 0.652351 0.116503
H58   H     H_    0.237345 0.593869 0.595745 0.149805
N1    N     N_R   0.269693 0.693416 0.965851 -0.231005
N2    N     N_R   0.304166 0.727825 0.034452 -0.232166
N3    N     N_R   0.228245 0.804117 0.034021 -0.234276
N4    N     N_R   0.194148 0.770078 0.965419 -0.229377
N5    N     N_R   0.722407 0.243205 0.035137 -0.230401
N6    N     N_R   0.687916 0.208030 0.966538 -0.238849
N7    N     N_R   0.783035 0.256508 0.965399 -0.226334
N8    N     N_R   0.817451 0.291788 0.033966 -0.198450
O1    O     O_R   0.049920 0.497760 0.599870 -0.582916
O2    O     O_R   0.528910 0.619050 0.557800 -0.578271
O3    O     O_R   0.380930 0.471140 0.442200 -0.594316
O4    O     O_R   0.438710 0.528900 0.557790 -0.566908
O5    O     O_R   0.471090 0.380990 0.442200 -0.597318
O6    O     O_R   0.528880 0.438760 0.557790 -0.553473
O7    O     O_R   0.561290 0.471140 0.442210 -0.569344
O8    O     O_R   0.619070 0.528910 0.557800 -0.585149
O9    O     O_R   0.552160 0.089990 0.499980 -0.581625
O10   O     O_R   0.447770 0.089950 0.499980 -0.577048
O11   O     O_R   0.502270 0.949920 0.400150 -0.586102
O12   O     O_R   0.049920 0.602100 0.599840 -0.586251
O13   O     O_R   0.397880 0.949890 0.400140 -0.585676
O14   O     O_R   0.552230 0.909720 0.500030 -0.581590
O15   O     O_R   0.447840 0.909680 0.500020 -0.571907
O16   O     O_R   0.602120 0.049780 0.599860 -0.578948
O17   O     O_R   0.497730 0.049740 0.599850 -0.581412
O18   O     O_R   0.090180 0.447830 0.500020 -0.585168
O19   O     O_R   0.090180 0.552170 0.499990 -0.582304
O20   O     O_R   0.950080 0.397900 0.400160 -0.586055
O21   O     O_R   0.950080 0.502240 0.400130 -0.586742
O22   O     O_R   0.909820 0.447830 0.500010 -0.597252
O23   O     O_R   0.909820 0.552170 0.499980 -0.578897
O24   O     O_R   0.471120 0.561280 0.442210 -0.576627
I1    I     I_    0.452562 0.822410 0.654513 -0.418596
C113  C     C_2   0.994732 0.615236 0.801781 0.850277
O25   O     O_2   0.039689 0.611937 0.851676 -0.594676
O26   O     O_R   0.976861 0.679410 0.809945 -0.771148
H59   H     H_    0.005185 0.719016 0.859170 0.344716
I2    I     I_    0.863144 0.458351 0.136516 -0.332154
C114  C     C_2   0.688112 0.324708 0.541358 0.812817
O27   O     O_2   0.664277 0.335410 0.580313 -0.580065
O28   O     O_R   0.760462 0.329360 0.565812 -0.790551
H60   H     H_    0.787087 0.341886 0.616126 0.342396
I3    I     I_    0.395435 0.520343 0.682556 -0.321097
I4    I     I_    0.543858 0.671187 0.821603 -0.282064

loop_
_geom_bond_atom_site_label_1
_geom_bond_atom_site_label_2
_ccdc_geom_bond_type
C69   H21   S    
C22   I3    S    
C101  C107  A    
C93   C94   A    
C79   O2    A    
C109  C110  A    
C41   C42   A    
C32   H6    S    
C95   C96   A    
C41   H10   S    
N7    N8    A    
C97   C98   A    
C27   H3    S    
C7    C8    A    
C45   C46   A    
Cu2   O23   S    
C65   C66   A    
Cu4   O4    S    
C26   C27   A    
C29   C30   A    
Cu2   O12   S    
C8    C82   S    
C79   C99   S    
C24   C26   A    
C72   N5    A    
C51   C56   A    
C114  O28   S    
C30   C31   A    
C57   C59   A    
C20   C25   S    
Cu6   O15   S    
C58   H11   S    
C44   C50   A    
C15   C16   A    
C108  C109  A    
C17   C18   A    
C95   H38   S    
C73   C74   A    
Cu1   O20   S    
C19   H58   S    
C110  C111  A    
C51   H17   S    
C105  H44   S    
C66   C72   S    
C111  C112  A    
C84   O10   A    
C8    C9    A    
C49   C113  S    
C23   C24   A    
C61   H23   S    
C64   C70   A    
C35   C43   S    
C3    C112  A    
C81   O4    A    
C77   C78   A    
C86   O15   A    
Cu3   O7    S    
C88   C89   A    
C35   N2    A    
C66   C67   A    
Cu4   O8    S    
Cu1   O1    S    
C11   H54   S    
C101  C103  A    
C22   C28   A    
Cu3   O24   S    
C29   H4    S    
C88   H34   S    
C71   N6    A    
C87   O16   A    
C62   H24   S    
C67   H26   S    
C90   C100  S    
C104  C105  A    
C38   H8    S    
C36   C70   S    
C1    C34   S    
C57   C63   A    
C88   C94   A    
C35   N3    A    
C38   C39   A    
C46   C48   A    
C24   H2    S    
C39   H9    S    
C74   C75   A    
C57   H19   S    
C67   C68   A    
C71   N7    A    
C74   H29   S    
C93   H37   S    
C1    O12   A    
C18   C28   S    
C76   C77   A    
C72   N8    A    
Cu1   O18   S    
C25   O18   A    
C50   H13   S    
C102  H42   S    
C39   C40   A    
C91   H31   S    
C5    C84   S    
C95   C100  A    
C18   C19   A    
C59   H20   S    
C10   H53   S    
N5    N6    A    
C112  H49   S    
Cu4   O2    S    
C29   C34   A    
C4    H50   S    
C32   C33   A    
C60   C61   A    
C97   C107  S    
C40   C85   S    
C52   C83   S    
C75   C76   A    
C62   C63   A    
Cu5   O11   S    
Cu3   O3    S    
C83   O8    A    
C89   H35   S    
C31   C32   A    
C14   C15   A    
C98   H39   S    
C12   C14   A    
C84   O9    A    
C73   C78   A    
C54   H18   S    
C96   C97   A    
C55   C56   A    
C33   H7    S    
C33   C34   A    
C13   C21   A    
C79   O24   A    
C42   H12   S    
C106  H45   S    
C30   H5    S    
C65   I2    S    
Cu5   O16   S    
C86   C96   S    
C3    H46   S    
C60   H22   S    
C75   C87   S    
C13   H52   S    
C86   O14   A    
C101  H40   S    
C49   C50   A    
C113  O26   S    
C7    H51   S    
C82   O5    A    
C68   H27   S    
C38   C43   A    
C94   H33   S    
Cu6   O17   S    
C42   C43   A    
C91   C102  A    
C89   C90   A    
C104  H43   S    
C52   C53   A    
C47   C55   S    
Cu1   Cu2   S    
C83   O7    A    
C9    C110  S    
C37   N4    A    
Cu4   O6    S    
C23   I4    S    
C40   C41   A    
C1    O1    A    
C47   O22   A    
C22   C23   A    
C15   H57   S    
C85   O11   A    
C44   C45   A    
C111  C114  S    
C4    C5    A    
C25   O19   A    
C77   H32   S    
C48   H16   S    
C54   C55   A    
C2    H1    S    
C2    C58   A    
C58   C69   A    
C53   C54   A    
C6    C7    A    
C109  H48   S    
C64   H25   S    
C47   O23   A    
C3    C108  A    
C44   H14   S    
C37   N1    A    
C105  C106  A    
C45   H15   S    
Cu2   O21   S    
C13   C17   A    
C73   H28   S    
C85   O13   A    
Cu1   O22   S    
C19   C20   A    
O28   H60   S    
C51   C52   A    
C14   H56   S    
C10   C16   A    
C99   C100  A    
C64   C65   A    
C53   C63   S    
C108  H47   S    
C103  H41   S    
C5    C6    A    
C80   C91   A    
C48   C49   A    
C21   C80   S    
C92   C93   A    
C90   C92   A    
C81   O3    A    
C26   I1    S    
C17   C81   S    
C36   O21   A    
C113  O25   D    
C114  O27   D    
C61   C62   A    
Cu6   O10   S    
Cu5   O9    S    
C10   C11   A    
N1    N2    A    
C6    C16   S    
N3    N4    A    
Cu3   O5    S    
C31   C37   S    
C59   C60   A    
C20   C21   A    
C76   H30   S    
C68   C70   A    
C98   C99   A    
C106  C107  A    
C46   C56   S    
C103  C104  A    
C2    C102  A    
Cu2   O19   S    
C69   C80   A    
C92   H36   S    
C36   O20   A    
C4    C9    A    
Cu5   Cu6   S    
Cu6   O13   S    
C87   O17   A    
C71   C78   S    
C82   O6    A    
Cu5   O14   S    
Cu3   Cu4   S    
C11   C12   A    
O26   H59   S    
C12   H55   S    
C27   C28   A    
