data_mof_unit_17966.cif
_audit_creation_date              2013-03-05T16:10:11-0500
_audit_creation_method            fapswitch 2.2
_symmetry_space_group_name_H-M    P1
_symmetry_Int_Tables_number       1
_space_group_crystal_system       triclinic
_cell_length_a                    14.642137
_cell_length_b                    7.259608
_cell_length_c                    13.473712
_cell_angle_alpha                 90.000041
_cell_angle_beta                  99.837854
_cell_angle_gamma                 89.999961
_cell_volume                      1411.14381614

loop_
_atom_site_label
_atom_site_type_symbol
_atom_site_description
_atom_site_fract_x
_atom_site_fract_y
_atom_site_fract_z
_atom_type_partial_charge
O1    O     O_R   0.648180 0.355050 0.151550 -0.581485
O2    O     O_R   0.351820 0.644950 0.848450 -0.581485
O3    O     O_R   0.851820 0.855050 0.348450 -0.581480
O4    O     O_R   0.148180 0.144950 0.651550 -0.581480
O5    O     O_R   0.835240 0.681980 0.154280 -0.570124
O6    O     O_R   0.164760 0.318020 0.845720 -0.570124
O7    O     O_R   0.664760 0.181980 0.345720 -0.570130
O8    O     O_R   0.335240 0.818020 0.654280 -0.570130
C1    C     C_R   0.863676 0.516140 0.133260 0.911071
C2    C     C_R   0.136324 0.483860 0.866740 0.911071
C3    C     C_R   0.636325 0.016140 0.366739 0.911073
C4    C     C_R   0.363675 0.983860 0.633261 0.911072
O9    O     O_R   0.647870 0.684600 0.139630 -0.557547
O10   O     O_R   0.352130 0.315400 0.860370 -0.557547
O11   O     O_R   0.852130 0.184600 0.360370 -0.557551
O12   O     O_R   0.147870 0.815400 0.639630 -0.557552
O13   O     O_R   0.663110 0.857440 0.333700 -0.586752
O14   O     O_R   0.336890 0.142560 0.666300 -0.586752
O15   O     O_R   0.836890 0.357440 0.166300 -0.586749
O16   O     O_R   0.163110 0.642560 0.833700 -0.586749
C5    C     C_R   0.615050 0.515982 0.113193 0.935818
C6    C     C_R   0.384950 0.484018 0.886807 0.935818
C7    C     C_R   0.884950 0.015982 0.386808 0.935814
C8    C     C_R   0.115050 0.984018 0.613192 0.935815
H1    H     H_    0.511184 0.959708 0.761856 0.163397
H2    H     H_    0.488816 0.040292 0.238144 0.163397
H3    H     H_    0.988815 0.459745 0.738143 0.163401
H4    H     H_    0.011185 0.540255 0.261857 0.163401
O17   O     O_3   0.755220 0.522230 0.313690 -0.259109
O18   O     O_3   0.244780 0.477770 0.686310 -0.259108
O19   O     O_3   0.744780 0.022230 0.186310 -0.259114
O20   O     O_3   0.255220 0.977770 0.813690 -0.259114
V1    V     V_3+5 0.749030 0.796100 0.238190 1.263945
V2    V     V_3+5 0.250970 0.203900 0.761810 1.263945
V3    V     V_3+5 0.750970 0.296100 0.261810 1.263941
V4    V     V_3+5 0.249030 0.703900 0.738190 1.263941
C9    C     C_1   0.966029 0.005354 0.466766 -0.151643
C10   C     C_1   0.033971 0.994646 0.533234 -0.151643
C11   C     C_1   0.533971 0.505354 0.033234 -0.151632
C12   C     C_1   0.466029 0.494646 0.966766 -0.151632
H5    H     H_    0.206440 0.043873 0.284986 0.166040
H6    H     H_    0.793560 0.956127 0.715014 0.166041
H7    H     H_    0.293561 0.543816 0.215017 0.166043
H8    H     H_    0.706439 0.456184 0.784983 0.166043
C13   C     C_R   0.560453 0.965257 0.710561 -0.300750
C14   C     C_R   0.439547 0.034743 0.289439 -0.300750
C15   C     C_R   0.939547 0.465291 0.789437 -0.300750
C16   C     C_R   0.060453 0.534709 0.210563 -0.300750
C17   C     C_R   0.655296 0.956059 0.751165 0.378090
C18   C     C_R   0.344704 0.043941 0.248835 0.378089
C19   C     C_R   0.844702 0.456107 0.748834 0.378086
C20   C     C_R   0.155298 0.543893 0.251166 0.378086
C21   C     C_R   0.719995 0.963187 0.685908 -0.205533
C22   C     C_R   0.280005 0.036813 0.314092 -0.205533
C23   C     C_R   0.780004 0.463232 0.814090 -0.205540
C24   C     C_R   0.219996 0.536768 0.185910 -0.205540
C25   C     C_R   0.691020 0.979546 0.582300 -0.086037
C26   C     C_R   0.308980 0.020454 0.417700 -0.086037
C27   C     C_R   0.808979 0.479578 0.917700 -0.086034
C28   C     C_R   0.191021 0.520421 0.082300 -0.086034
C29   C     C_R   0.595904 0.989752 0.540236 0.123983
C30   C     C_R   0.404096 0.010248 0.459763 0.123983
C31   C     C_R   0.904096 0.489767 0.959761 0.123981
C32   C     C_R   0.095904 0.510233 0.040239 0.123981
C33   C     C_R   0.529294 0.982287 0.605522 0.068840
C34   C     C_R   0.470706 0.017713 0.394478 0.068840
C35   C     C_R   0.970705 0.482306 0.894478 0.068837
C36   C     C_R   0.029294 0.517694 0.105522 0.068837
C37   C     C_R   0.566699 0.007551 0.434803 -0.230481
C38   C     C_R   0.433301 0.992449 0.565197 -0.230481
C39   C     C_R   0.933300 0.507551 0.065198 -0.230489
C40   C     C_R   0.066700 0.492449 0.934802 -0.230489
H9    H     H_    0.744215 0.984723 0.535618 0.110074
H10   H     H_    0.255785 0.015277 0.464382 0.110074
H11   H     H_    0.755786 0.484755 0.964379 0.110083
H12   H     H_    0.244214 0.515245 0.035620 0.110083
N1    N     N_R   0.685750 0.940059 0.858322 0.225968
O21   O     O_R   0.773700 0.940271 0.896244 -0.415646
O22   O     O_R   0.625900 0.926045 0.919118 -0.402124
N2    N     N_R   0.314250 0.059941 0.141678 0.225968
O23   O     O_R   0.226300 0.059729 0.103756 -0.415646
O24   O     O_R   0.374100 0.073955 0.080881 -0.402124
N3    N     N_R   0.814249 0.440114 0.641675 0.225971
O25   O     O_R   0.726297 0.440302 0.603756 -0.415644
O26   O     O_R   0.874098 0.426134 0.580879 -0.402114
N4    N     N_R   0.185751 0.559886 0.358324 0.225971
O27   O     O_R   0.273703 0.559697 0.396244 -0.415644
O28   O     O_R   0.125902 0.573866 0.419121 -0.402114

loop_
_geom_bond_atom_site_label_1
_geom_bond_atom_site_label_2
_geom_bond_distance
_ccdc_geom_bond_type
C26   C30   1.413007 A    
O1    C5    1.334796 A    
C23   C27   1.393026 A    
O3    C7    1.334796 A    
N1    O21   1.301760 A    
O7    C3    1.320341 A    
O1    V3    1.972649 S    
C18   C22   1.399229 A    
C32   C36   1.421629 A    
C14   C34   1.416240 A    
H6    C21   1.082737 S    
O4    C8    1.334797 A    
N4    O28   1.301747 A    
C34   C37   1.419594 A    
O3    V1    1.972647 S    
H1    C13   1.081715 S    
O2    V4    1.972646 S    
C33   C38   1.419594 A    
C30   C38   1.417749 A    
C35   C40   1.419606 A    
O8    V4    2.011379 S    
O11   V3    1.985067 S    
C4    C38   1.484497 S    
C1    O15   1.318712 A    
C3    O13   1.318698 A    
C2    O16   1.318711 A    
O5    V1    2.011379 S    
O2    C6    1.334797 A    
C8    C10   1.462502 S    
O19   V1    1.781160 S    
O11   C7    1.340799 A    
O12   C8    1.340798 A    
C27   H11   1.082136 S    
O13   V1    1.997565 S    
C15   C35   1.416263 A    
C25   H9    1.082169 S    
O4    V2    1.972649 S    
N1    O22   1.301780 A    
C31   C35   1.421629 A    
C30   C34   1.421660 A    
N2    O24   1.301781 A    
C11   C12   1.222019 T    
C21   C25   1.393018 A    
N4    O27   1.301788 A    
C15   C19   1.404528 A    
C7    C9    1.462501 S    
C28   H12   1.082136 S    
C24   C28   1.393026 A    
O20   V2    1.781161 S    
O5    C1    1.320349 A    
C9    C10   1.222018 T    
C29   C33   1.421660 A    
N3    O25   1.301786 A    
C5    C11   1.462502 S    
C13   C17   1.404505 A    
O8    C4    1.320342 A    
C6    C12   1.462502 S    
O9    C5    1.340799 A    
C16   C36   1.416263 A    
O14   V2    1.997564 S    
N3    O26   1.301748 A    
C31   C39   1.417783 A    
C13   C33   1.416240 A    
C19   N3    1.441152 S    
C26   H10   1.082169 S    
C22   C26   1.393018 A    
H3    C15   1.081697 S    
C14   C18   1.404505 A    
H4    C16   1.081696 S    
O7    V3    2.011381 S    
C1    C39   1.484448 S    
N2    O23   1.301760 A    
C18   N2    1.441148 S    
O10   V2    1.985067 S    
C3    C37   1.484497 S    
C25   C29   1.413007 A    
O17   V3    1.781160 S    
C27   C31   1.413002 A    
O18   V4    1.781160 S    
C28   C32   1.413002 A    
C29   C37   1.417749 A    
O10   C6    1.340799 A    
C20   N4    1.441152 S    
O15   V3    1.997565 S    
O12   V4    1.985068 S    
H8    C23   1.082742 S    
C36   C39   1.419606 A    
C17   C21   1.399229 A    
C17   N1    1.441148 S    
C19   C23   1.399200 A    
C32   C40   1.417783 A    
H5    C22   1.082737 S    
O6    C2    1.320349 A    
H2    C14   1.081715 S    
O16   V4    1.997567 S    
O6    V2    2.011380 S    
H7    C24   1.082742 S    
C16   C20   1.404529 A    
O9    V1    1.985068 S    
C4    O14   1.318698 A    
C20   C24   1.399199 A    
C2    C40   1.484448 S    
