data_mof_unit_36683.cif
_audit_creation_date              2012-12-11T14:38:17-0500
_audit_creation_method            fapswitch 2.2
_symmetry_space_group_name_H-M    P1
_symmetry_Int_Tables_number       1
_space_group_crystal_system       triclinic
_cell_length_a                    19.743361
_cell_length_b                    11.166264
_cell_length_c                    19.674072
_cell_angle_alpha                 90.01053
_cell_angle_beta                  95.918506
_cell_angle_gamma                 90.369184
_cell_volume                      4314.12664515

loop_
_atom_site_label
_atom_site_type_symbol
_atom_type_description
_atom_site_fract_x
_atom_site_fract_y
_atom_site_fract_z
_atom_type_partial_charge
C1    C     C_R   0.725467 0.951654 0.359369 0.516785
C2    C     C_R   0.274559 0.952059 0.640519 0.521882
C3    C     C_R   0.225441 0.451883 0.359474 0.520575
C4    C     C_R   0.774545 0.451840 0.640621 0.517997
C5    C     C_3   0.685140 0.460321 0.456933 -0.227418
C6    C     C_3   0.316527 0.460865 0.542959 -0.231780
C7    C     C_3   0.183397 0.959583 0.457083 -0.231694
C8    C     C_3   0.814898 0.961580 0.543123 -0.227620
C9    C     C_3   0.823219 0.434007 0.531391 -0.063412
C10   C     C_3   0.177484 0.438814 0.469248 -0.062137
C11   C     C_3   0.322555 0.939955 0.530784 -0.062582
C12   C     C_3   0.676832 0.933051 0.468633 -0.062686
C13   C     C_3   0.736720 0.280496 0.564113 -0.230446
C14   C     C_3   0.260360 0.281423 0.436626 -0.234790
C15   C     C_3   0.239280 0.781130 0.563175 -0.234465
C16   C     C_3   0.762894 0.780901 0.435753 -0.230589
C17   C     C_3   0.757035 0.412513 0.569689 0.004043
C18   C     C_3   0.242790 0.413830 0.430627 0.000503
C19   C     C_3   0.257120 0.913834 0.569331 -0.000224
C20   C     C_3   0.742896 0.912588 0.430287 0.004448
C21   C     C_3   0.733295 0.357917 0.440122 0.001899
C22   C     C_3   0.266104 0.361199 0.560319 0.003043
C23   C     C_3   0.233863 0.861204 0.439569 0.004213
C24   C     C_3   0.766642 0.858177 0.559802 0.001236
C25   C     C_3   0.809071 0.397459 0.457353 -0.039560
C26   C     C_3   0.191317 0.406286 0.544176 -0.044842
C27   C     C_3   0.308594 0.908057 0.455698 -0.043631
C28   C     C_3   0.690873 0.896483 0.542621 -0.040924
C29   C     C_3   0.716230 0.252302 0.487592 -0.281578
C30   C     C_3   0.280625 0.254171 0.513053 -0.276953
C31   C     C_3   0.219383 0.753645 0.486656 -0.276606
C32   C     C_3   0.783688 0.753052 0.512193 -0.281394
C33   C     C_3   0.495898 0.297823 0.963086 -0.304856
C34   C     C_3   0.533439 0.299176 0.032491 -0.300357
C35   C     C_3   0.995886 0.797820 0.963090 -0.305667
C36   C     C_3   0.033420 0.799173 0.032498 -0.299565
C37   C     C_3   0.441890 0.082617 0.976847 0.472583
C38   C     C_3   0.585682 0.090150 0.022046 0.462820
C39   C     C_3   0.941884 0.582612 0.976850 0.472348
C40   C     C_3   0.085673 0.590143 0.022056 0.462864
C41   C     C_3   0.561983 0.110135 0.940469 -0.058500
C42   C     C_3   0.463343 0.109247 0.054970 -0.022153
C43   C     C_3   0.061982 0.610137 0.940481 -0.059845
C44   C     C_3   0.963335 0.609234 0.054977 -0.020986
C45   C     C_R   0.559145 0.183761 0.347262 0.528724
C46   C     C_R   0.464238 0.181199 0.661931 0.549326
C47   C     C_R   0.035909 0.680883 0.338171 0.548185
C48   C     C_R   0.940728 0.683613 0.652716 0.529397
C49   C     C_3   0.489324 0.167684 0.933533 -0.004180
C50   C     C_3   0.536151 0.170678 0.062962 0.020655
C51   C     C_3   0.989320 0.667682 0.933537 -0.006613
C52   C     C_3   0.036139 0.670673 0.062968 0.022677
C53   C     C_1   0.762633 0.436128 0.906542 0.037179
C54   C     C_1   0.243586 0.423215 0.097388 0.048480
C55   C     C_1   0.262636 0.936132 0.906545 0.037234
C56   C     C_1   0.743587 0.923216 0.097389 0.048142
C57   C     C_1   0.751575 0.428570 0.038706 -0.036494
C58   C     C_1   0.257032 0.412464 0.965585 -0.106275
C59   C     C_1   0.251580 0.928583 0.038710 -0.036772
C60   C     C_1   0.757035 0.912460 0.965586 -0.106171
C61   C     C_1   0.755516 0.433332 0.966955 -0.021039
C62   C     C_1   0.254154 0.414977 0.037850 -0.029507
C63   C     C_1   0.255520 0.933338 0.966959 -0.021204
C64   C     C_1   0.754157 0.914976 0.037852 -0.029321
C65   C     C_1   0.746988 0.407814 0.098456 0.023689
C66   C     C_1   0.256651 0.400801 0.904136 -0.015499
C67   C     C_1   0.246992 0.907828 0.098460 0.024071
C68   C     C_1   0.756652 0.900797 0.904137 -0.015417
C69   C     C_R   0.725098 0.316436 0.367735 0.550214
C70   C     C_R   0.274398 0.318055 0.632081 0.569787
C71   C     C_R   0.225558 0.818196 0.367752 0.568642
C72   C     C_R   0.774815 0.816442 0.632096 0.551941
C73   C     C_R   0.723421 0.952522 0.164054 0.575068
C74   C     C_R   0.277964 0.955775 0.837323 0.551851
C75   C     C_R   0.223421 0.452521 0.164054 0.575116
C76   C     C_R   0.777963 0.455773 0.837322 0.552087
C77   C     C_R   0.560128 0.181754 0.136697 0.622624
C78   C     C_R   0.462849 0.178733 0.860869 0.579999
C79   C     C_R   0.060122 0.681753 0.136698 0.619858
C80   C     C_R   0.962850 0.678732 0.860869 0.586595
C81   C     C_R   0.737035 0.361775 0.165178 0.584485
C82   C     C_R   0.262828 0.363233 0.834648 0.582941
C83   C     C_R   0.237037 0.861781 0.165180 0.585677
C84   C     C_R   0.762829 0.863230 0.834649 0.582265
C85   C     C_1   0.489730 0.177624 0.596735 0.071906
C86   C     C_1   0.536652 0.179288 0.413863 0.053505
C87   C     C_1   0.963544 0.679594 0.586266 0.053599
C88   C     C_1   0.010855 0.677054 0.403562 0.071466
C89   C     C_1   0.521456 0.178585 0.471438 0.037377
C90   C     C_1   0.505247 0.178289 0.539267 0.045564
C91   C     C_1   0.995482 0.678033 0.461076 0.045202
C92   C     C_1   0.979068 0.678788 0.528820 0.035983
C93   C     C_3   0.691213 0.478056 0.534962 -0.258812
C94   C     C_3   0.310079 0.477588 0.464731 -0.260844
C95   C     C_3   0.189932 0.976416 0.535303 -0.261058
C96   C     C_3   0.808848 0.979264 0.465073 -0.258627
Cr1   Cr    Cr6+3 0.765780 0.160710 0.267420 1.034182
Cr2   Cr    Cr6+3 0.234220 0.160710 0.732580 1.038671
Cr3   Cr    Cr6+3 0.265780 0.660710 0.267420 1.040316
Cr4   Cr    Cr6+3 0.734220 0.660710 0.732580 1.032399
Cr5   Cr    Cr6+3 0.612200 0.009560 0.248850 1.099931
Cr6   Cr    Cr6+3 0.387800 0.009560 0.751150 1.098560
Cr7   Cr    Cr6+3 0.112200 0.509560 0.248850 1.098537
Cr8   Cr    Cr6+3 0.887800 0.509560 0.751150 1.099957
Cr9   Cr    Cr6+3 0.616030 0.323720 0.248510 1.046714
Cr10  Cr    Cr6+3 0.383970 0.323720 0.751490 1.037450
Cr11  Cr    Cr6+3 0.116030 0.823720 0.248510 1.046867
Cr12  Cr    Cr6+3 0.883970 0.823720 0.751490 1.037254
H1    H     H_    0.682847 0.571486 0.549474 0.153740
H2    H     H_    0.320089 0.570364 0.449799 0.157079
H3    H     H_    0.180084 0.069022 0.550282 0.156033
H4    H     H_    0.817357 0.072857 0.450621 0.154428
H5    H     H_    0.740446 0.171740 0.474017 0.113510
H6    H     H_    0.254603 0.175119 0.527012 0.114882
H7    H     H_    0.245755 0.675561 0.472685 0.116235
H8    H     H_    0.759809 0.671630 0.525780 0.112886
H9    H     H_    0.839314 0.315217 0.449851 0.164058
H10   H     H_    0.157635 0.328926 0.553824 0.166872
H11   H     H_    0.342380 0.831853 0.445650 0.167708
H12   H     H_    0.660415 0.813772 0.550036 0.163432
H13   H     H_    0.445801 0.340526 0.964496 0.126579
H14   H     H_    0.585566 0.335577 0.030997 0.137409
H15   H     H_    0.945787 0.840518 0.964496 0.126413
H16   H     H_    0.085543 0.835592 0.031011 0.137340
H17   H     H_    0.522985 0.360692 0.931547 0.221723
H18   H     H_    0.507533 0.366709 0.061869 0.214086
H19   H     H_    0.022973 0.860694 0.931555 0.221756
H20   H     H_    0.007501 0.866691 0.061874 0.214360
H21   H     H_    0.553116 0.021041 0.916847 0.165085
H22   H     H_    0.469815 0.021703 0.081302 0.164351
H23   H     H_    0.053120 0.521047 0.916852 0.165180
H24   H     H_    0.969811 0.521688 0.081305 0.164050
H25   H     H_    0.645197 0.436487 0.553841 0.129570
H26   H     H_    0.355092 0.434017 0.445599 0.134808
H27   H     H_    0.144849 0.932087 0.554449 0.135055
H28   H     H_    0.854777 0.938477 0.446162 0.129334
H29   H     H_    0.631366 0.437921 0.438363 0.138603
H30   H     H_    0.369851 0.435932 0.561127 0.141972
H31   H     H_    0.130073 0.933309 0.438983 0.141757
H32   H     H_    0.868647 0.940253 0.561702 0.138876
H33   H     H_    0.697852 0.543417 0.431522 0.197444
H34   H     H_    0.306063 0.545121 0.568384 0.190527
H35   H     H_    0.193731 0.044133 0.431672 0.190002
H36   H     H_    0.802235 0.044380 0.568596 0.197648
H37   H     H_    0.333790 0.036529 0.536403 0.090152
H38   H     H_    0.664977 0.029506 0.465439 0.074651
H39   H     H_    0.835437 0.530653 0.534719 0.072979
H40   H     H_    0.166765 0.535287 0.464052 0.089966
H41   H     H_    0.778084 0.224004 0.587123 0.205910
H42   H     H_    0.217877 0.225784 0.414055 0.200947
H43   H     H_    0.281498 0.726117 0.585978 0.201262
H44   H     H_    0.721245 0.723822 0.412958 0.205587
H45   H     H_    0.692662 0.262590 0.593663 0.134644
H46   H     H_    0.303937 0.261680 0.407004 0.145521
H47   H     H_    0.195485 0.760533 0.592536 0.145218
H48   H     H_    0.806755 0.763744 0.405983 0.134698
H49   H     H_    0.660771 0.233734 0.480205 0.101089
H50   H     H_    0.336016 0.233760 0.520419 0.123188
H51   H     H_    0.164037 0.731719 0.479044 0.121827
H52   H     H_    0.839215 0.735978 0.519378 0.101215
O1    O     O_R   0.783100 0.287550 0.345460 -0.498348
O2    O     O_R   0.216900 0.287550 0.654540 -0.499012
O3    O     O_R   0.283100 0.787550 0.345460 -0.502682
O4    O     O_R   0.716900 0.787550 0.654540 -0.494816
O5    O     O_R   0.554710 0.081900 0.170950 -0.471154
O6    O     O_R   0.445290 0.081900 0.829050 -0.459513
O7    O     O_R   0.054710 0.581900 0.170950 -0.477046
O8    O     O_R   0.945290 0.581900 0.829050 -0.454799
O9    O     O_R   0.545650 0.284910 0.163740 -0.491764
O10   O     O_R   0.454350 0.284910 0.836260 -0.524912
O11   O     O_R   0.045650 0.784910 0.163740 -0.496856
O12   O     O_R   0.954350 0.784910 0.836260 -0.520675
O13   O     O_R   0.677950 0.374280 0.185410 -0.504202
O14   O     O_R   0.322050 0.374280 0.814590 -0.508364
O15   O     O_R   0.177950 0.874280 0.185410 -0.503648
O16   O     O_R   0.822050 0.874280 0.814590 -0.508715
O17   O     O_3   0.664670 0.164660 0.254930 -0.328743
O18   O     O_3   0.335330 0.164660 0.745070 -0.310485
O19   O     O_3   0.164670 0.664660 0.254930 -0.314756
O20   O     O_3   0.835330 0.664660 0.745070 -0.324767
O21   O     O_R   0.760020 0.037400 0.337700 -0.537855
O22   O     O_R   0.239980 0.037400 0.662300 -0.533622
O23   O     O_R   0.260020 0.537400 0.337700 -0.535043
O24   O     O_R   0.739980 0.537400 0.662300 -0.536522
O25   O     O_R   0.666600 0.921990 0.332020 -0.498508
O26   O     O_R   0.333400 0.921990 0.667980 -0.492083
O27   O     O_R   0.166600 0.421990 0.332020 -0.494906
O28   O     O_R   0.833400 0.421990 0.667980 -0.495825
O29   O     O_R   0.557260 0.082670 0.312540 -0.435657
O30   O     O_R   0.442740 0.082670 0.687460 -0.446248
O31   O     O_R   0.057260 0.582670 0.312540 -0.448670
O32   O     O_R   0.942740 0.582670 0.687460 -0.432665
O33   O     O_R   0.548410 0.285740 0.316480 -0.520136
O34   O     O_R   0.451590 0.285740 0.683520 -0.541723
O35   O     O_R   0.048410 0.785740 0.316480 -0.541174
O36   O     O_R   0.951590 0.785740 0.683520 -0.520943
O37   O     O_R   0.680500 0.375040 0.327000 -0.477076
O38   O     O_R   0.319500 0.375040 0.673000 -0.462162
O39   O     O_R   0.180500 0.875040 0.327000 -0.465258
O40   O     O_R   0.819500 0.875040 0.673000 -0.473332
O41   O     O_R   0.780350 0.286720 0.192720 -0.490775
O42   O     O_R   0.219650 0.286720 0.807280 -0.487207
O43   O     O_R   0.280350 0.786720 0.192720 -0.491131
O44   O     O_R   0.719650 0.786720 0.807280 -0.486779
O45   O     O_R   0.757470 0.036630 0.196110 -0.500239
O46   O     O_R   0.242530 0.036630 0.803890 -0.507074
O47   O     O_R   0.257470 0.536630 0.196110 -0.500811
O48   O     O_R   0.742530 0.536630 0.803890 -0.506515
O49   O     O_R   0.663840 0.921160 0.179280 -0.476450
O50   O     O_R   0.336160 0.921160 0.820720 -0.483831
O51   O     O_R   0.163840 0.421160 0.179280 -0.476758
O52   O     O_R   0.836160 0.421160 0.820720 -0.483505
C97   C     C_2   0.888834 0.368610 0.559625 0.611918
O53   O     O_2   0.940643 0.425935 0.576549 -0.451989
O54   O     O_R   0.891142 0.243485 0.562440 -0.748939
H53   H     H_    0.937596 0.212300 0.580709 0.345158
C98   C     C_2   0.110835 0.374544 0.442094 0.614030
O55   O     O_2   0.060191 0.433149 0.424219 -0.446789
O56   O     O_R   0.106090 0.249459 0.441730 -0.747481
H54   H     H_    0.059043 0.219186 0.424003 0.345910
C99   C     C_2   0.388830 0.875695 0.557673 0.613902
O57   O     O_2   0.439810 0.934301 0.575904 -0.446119
O58   O     O_R   0.392892 0.750641 0.557237 -0.748105
H55   H     H_    0.439755 0.720404 0.574821 0.346505
C100  C     C_2   0.610918 0.867310 0.440266 0.611606
O59   O     O_2   0.559445 0.924421 0.423347 -0.454110
O60   O     O_R   0.607970 0.742174 0.437198 -0.748568
H56   H     H_    0.561367 0.710739 0.418816 0.344476
O61   O     O_3   0.370527 0.086318 0.959713 -0.563079
C101  C     C_3   0.341180 0.197560 0.950514 -0.110682
H57   H     H_    0.354771 0.259910 0.992810 0.141469
H58   H     H_    0.285427 0.182848 0.947353 0.151567
H59   H     H_    0.353047 0.234419 0.901985 0.143561
O62   O     O_3   0.653947 0.113127 0.050594 -0.576382
C102  C     C_3   0.697189 0.173805 0.010654 -0.139804
H60   H     H_    0.675271 0.259962 0.994344 0.154978
H61   H     H_    0.710244 0.119950 0.967302 0.165822
H62   H     H_    0.746241 0.188621 0.042221 0.136254
O63   O     O_3   0.870523 0.586317 0.959711 -0.563091
C103  C     C_3   0.841178 0.697563 0.950529 -0.110482
H63   H     H_    0.854763 0.759887 0.992840 0.142146
H64   H     H_    0.785424 0.682851 0.947356 0.151767
H65   H     H_    0.853056 0.734455 0.902012 0.143025
O64   O     O_3   0.153938 0.613098 0.050612 -0.576274
C104  C     C_3   0.197184 0.673818 0.010695 -0.140379
H66   H     H_    0.175261 0.759976 0.994395 0.154564
H67   H     H_    0.210262 0.619990 0.967342 0.165276
H68   H     H_    0.246227 0.688634 0.042279 0.136351
C105  C     C_2   0.409502 0.165837 0.094907 0.553338
O65   O     O_2   0.362464 0.103732 0.110916 -0.521273
O66   O     O_R   0.412649 0.286493 0.113822 -0.707026
H69   H     H_    0.374213 0.310446 0.141309 0.338091
C106  C     C_2   0.608372 0.163017 0.889951 0.498753
O67   O     O_2   0.636842 0.095484 0.853063 -0.532790
O68   O     O_R   0.616239 0.286559 0.882322 -0.735643
H70   H     H_    0.645608 0.307800 0.844700 0.341019
C107  C     C_2   0.909495 0.665800 0.094926 0.549307
O69   O     O_2   0.862453 0.603686 0.110918 -0.523973
O70   O     O_R   0.912653 0.786436 0.113882 -0.709447
H71   H     H_    0.874223 0.810366 0.141384 0.336348
C108  C     C_2   0.108386 0.663036 0.889985 0.502853
O71   O     O_2   0.136883 0.595512 0.853114 -0.527328
O72   O     O_R   0.116249 0.786580 0.882364 -0.734044
H72   H     H_    0.145639 0.807831 0.844762 0.342765
O73   O     O_3   0.571890 0.969329 0.041609 -0.534489
C109  C     C_3   0.600540 0.878041 0.004039 -0.062740
H73   H     H_    0.629073 0.815512 0.039889 0.142936
H74   H     H_    0.559656 0.824061 0.975884 0.140796
H75   H     H_    0.632855 0.911494 0.965878 0.132736
O74   O     O_3   0.459003 0.961381 0.962479 -0.552854
C110  C     C_3   0.419311 0.872006 0.991545 -0.052921
H76   H     H_    0.386779 0.825903 0.950187 0.151122
H77   H     H_    0.453653 0.803991 0.017210 0.113138
H78   H     H_    0.387216 0.905506 0.030384 0.157763
O75   O     O_3   0.071874 0.469320 0.041611 -0.534278
C111  C     C_3   0.100535 0.378035 0.004047 -0.062667
H79   H     H_    0.129067 0.315513 0.039902 0.142903
H80   H     H_    0.059655 0.324048 0.975888 0.140935
H81   H     H_    0.132852 0.411492 0.965890 0.132632
O76   O     O_3   0.958997 0.461379 0.962478 -0.552950
C112  C     C_3   0.919306 0.372001 0.991544 -0.052951
H82   H     H_    0.886776 0.325895 0.950185 0.151161
H83   H     H_    0.953649 0.303989 0.017210 0.113015
H84   H     H_    0.887209 0.405499 0.030381 0.157774
C113  C     C_2   0.330500 0.007930 0.409552 0.552332
O77   O     O_2   0.388369 0.048272 0.419409 -0.504075
O78   O     O_R   0.287233 0.048427 0.353600 -0.687047
H85   H     H_    0.310176 0.108001 0.324395 0.340357
C114  C     C_2   0.664116 0.988199 0.590418 0.562952
O79   O     O_2   0.602844 0.003874 0.587653 -0.491961
O80   O     O_R   0.707344 0.046144 0.641000 -0.694546
H86   H     H_    0.681745 0.097890 0.671985 0.344349
C115  C     C_2   0.836049 0.489379 0.409540 0.561727
O81   O     O_2   0.897414 0.504536 0.411583 -0.494526
O82   O     O_R   0.792856 0.547619 0.359477 -0.699365
H87   H     H_    0.818566 0.599278 0.328268 0.337520
C116  C     C_2   0.169197 0.505216 0.590557 0.554937
O83   O     O_2   0.111150 0.543553 0.580960 -0.498651
O84   O     O_R   0.212562 0.547242 0.646309 -0.683326
H88   H     H_    0.189573 0.606182 0.675557 0.346909

loop_
_geom_bond_atom_site_label_1
_geom_bond_atom_site_label_2
_ccdc_geom_bond_type
C69   O37   A    
C116  O84   S    
O80   H86   S    
C15   H43   S    
Cr4   O48   S    
Cr11  O11   S    
C112  H84   S    
Cr6   O26   S    
C71   O3    A    
C47   O35   A    
C36   H16   S    
C14   C30   S    
Cr5   O29   S    
C110  H76   S    
Cr8   O32   S    
C49   C78   S    
C37   C42   S    
C51   C80   S    
C55   C74   S    
C75   O47   A    
C40   C43   S    
C82   O14   A    
C6    C94   S    
C46   O34   A    
Cr11  O19   S    
C84   O44   A    
Cr9   O37   S    
C104  H66   S    
C70   O2    A    
C41   C49   S    
Cr2   O2    S    
C97   O54   S    
C105  O66   S    
O72   H72   S    
Cr7   O27   S    
C82   O42   A    
C1    O21   A    
C9    C97   S    
C21   C29   S    
Cr3   O47   S    
C35   C36   S    
C23   C31   S    
O54   H53   S    
C24   C32   S    
O61   C101  S    
C66   C82   S    
O60   H56   S    
C11   C27   S    
C16   C20   S    
C11   C19   S    
C12   C20   S    
C33   H17   S    
C48   C87   S    
C32   H8    S    
C101  H58   S    
C40   O64   S    
Cr9   O9    S    
C35   C51   S    
C80   O12   A    
C50   C77   S    
C106  O68   S    
C29   H5    S    
C1    C20   S    
C56   C73   S    
C25   C115  S    
C2    C19   S    
C11   H37   S    
Cr9   O17   S    
C3    O27   A    
C85   C90   T    
C57   C61   S    
C1    O25   A    
C44   H24   S    
C26   H10   S    
C59   C63   S    
C8    H32   S    
C60   C64   S    
C4    O28   A    
C43   H23   S    
C5    H29   S    
C113  O78   S    
C10   C18   S    
C5    C21   S    
C104  H68   S    
Cr2   O46   S    
C79   O7    A    
C80   O8    A    
C76   O48   A    
C10   H40   S    
C39   C51   S    
C67   C83   S    
C11   C99   S    
C39   O63   S    
Cr10  O34   S    
O64   C104  S    
C37   O61   S    
C105  O65   D    
C99   O57   D    
C73   O49   A    
C93   H25   S    
C108  O71   D    
C72   O40   A    
C77   O5    A    
C41   C106  S    
C78   O10   A    
C107  O69   D    
C59   C67   T    
C53   C61   T    
C39   O76   S    
C42   C105  S    
C55   C63   T    
C56   C64   T    
Cr2   O18   S    
C52   C79   S    
Cr3   O23   S    
C36   C52   S    
C44   C52   S    
C20   C96   S    
C70   O38   A    
Cr9   O13   S    
C14   H46   S    
Cr10  O10   S    
C36   H20   S    
Cr5   O25   S    
C31   H7    S    
C100  O59   D    
Cr8   O28   S    
O76   C112  S    
C38   C41   S    
C8    H36   S    
C28   H12   S    
Cr7   O51   S    
C91   C92   S    
Cr5   O49   S    
C98   O55   D    
C26   C116  S    
C21   C69   S    
C81   O13   A    
C115  O81   D    
C88   C91   T    
C114  O79   D    
C109  H74   S    
C42   C50   S    
Cr3   O3    S    
Cr1   O1    S    
Cr12  O12   S    
Cr6   O18   S    
C102  H62   S    
Cr7   O31   S    
Cr8   O52   S    
Cr4   O20   S    
C19   C95   S    
C24   C72   S    
C45   O29   A    
C77   O9    A    
C73   O45   A    
C22   C30   S    
Cr3   O43   S    
C24   C28   S    
Cr1   O41   S    
C109  H75   S    
C15   C31   S    
C39   C44   S    
C16   C32   S    
C13   C17   S    
C35   H15   S    
C45   C86   S    
Cr11  O39   S    
C7    C23   S    
C103  H63   S    
C8    C24   S    
C54   C75   S    
C17   C93   S    
C111  H79   S    
C3    O23   A    
Cr10  O18   S    
O70   H71   S    
C10   C98   S    
C93   H1    S    
C58   C62   S    
C110  H78   S    
O63   C103  S    
C9    C25   S    
O66   H69   S    
C96   H28   S    
C97   O53   D    
C15   C19   S    
C75   O51   A    
C6    H34   S    
C12   C28   S    
C13   C29   S    
C38   O73   S    
C28   C114  S    
C100  O60   S    
C33   C49   S    
C6    C22   S    
C30   H50   S    
C79   O11   A    
C21   C25   S    
C34   H14   S    
C16   H48   S    
C102  H60   S    
Cr12  O36   S    
Cr10  O38   S    
C46   C85   S    
C87   C92   T    
C7    H35   S    
C45   O33   A    
C78   O6    A    
C68   C84   S    
C23   C71   S    
O58   H55   S    
C83   O43   A    
O56   H54   S    
C43   C108  S    
C81   O41   A    
C54   C62   T    
C40   O75   S    
C94   H2    S    
C103  H65   S    
Cr2   O22   S    
O84   H88   S    
Cr3   O19   S    
C113  O77   D    
C27   C113  S    
C37   C49   S    
Cr1   O17   S    
O78   H85   S    
C111  H81   S    
C34   H18   S    
C14   H42   S    
C95   H27   S    
C72   O4    A    
Cr4   O4    S    
Cr7   O7    S    
Cr5   O5    S    
C13   H45   S    
C4    C17   S    
C74   O50   A    
C104  H67   S    
C53   C76   S    
C112  H83   S    
O62   C102  S    
O82   H87   S    
C30   H6    S    
C57   C65   T    
C86   C89   T    
C38   O62   S    
C29   H49   S    
C71   O39   A    
Cr4   O44   S    
C43   C51   S    
C106  O67   D    
Cr11  O15   S    
Cr12  O16   S    
Cr6   O30   S    
Cr7   O19   S    
C47   O31   A    
C101  H57   S    
Cr4   O24   S    
C48   O32   A    
Cr5   O17   S    
C60   C68   T    
C115  O82   S    
C22   C26   S    
O74   C110  S    
Cr1   O45   S    
C89   C90   S    
C84   O16   A    
C7    H31   S    
C83   O15   A    
C116  O83   D    
C14   C18   S    
C8    C96   S    
Cr11  O35   S    
Cr9   O33   S    
C96   H4    S    
C101  H59   S    
C69   O1    A    
C6    H30   S    
Cr12  O20   S    
C3    C18   S    
C2    O22   A    
C12   H38   S    
C114  O80   S    
C44   C107  S    
C65   C81   S    
C58   C66   T    
C23   C27   S    
O73   C109  S    
C10   C26   S    
C48   O36   A    
C33   H13   S    
C102  H61   S    
C46   O30   A    
Cr10  O14   S    
C34   C50   S    
C16   H44   S    
C108  O72   S    
Cr6   O50   S    
C112  H82   S    
C40   C52   S    
C9    H39   S    
C107  O70   S    
Cr12  O40   S    
C35   H19   S    
C2    O26   A    
Cr8   O8    S    
C5    H33   S    
C103  H64   S    
C33   C34   S    
C42   H22   S    
C4    O24   A    
C9    C17   S    
O75   C111  S    
C111  H80   S    
C18   C94   S    
C37   O74   S    
O68   H70   S    
C74   O46   A    
C110  H77   S    
C15   H47   S    
Cr2   O42   S    
C25   H9    S    
C5    C93   S    
Cr1   O21   S    
C38   C50   S    
C27   H11   S    
C98   O56   S    
C7    C95   S    
C47   C88   S    
C13   H41   S    
C99   O58   S    
C95   H3    S    
C41   H21   S    
C76   O52   A    
C12   C100  S    
Cr8   O20   S    
C94   H26   S    
C22   C70   S    
C109  H73   S    
Cr6   O6    S    
C31   H51   S    
C32   H52   S    
