data_mof_unit_8261.cif
_audit_creation_date              2013-03-05T16:48:13-0500
_audit_creation_method            fapswitch 2.2
_symmetry_space_group_name_H-M    P1
_symmetry_Int_Tables_number       1
_space_group_crystal_system       triclinic
_cell_length_a                    23.384246
_cell_length_b                    8.918735
_cell_length_c                    8.099582
_cell_angle_alpha                 89.964599
_cell_angle_beta                  89.990301
_cell_angle_gamma                 89.990057
_cell_volume                      1689.23138607

loop_
_atom_site_label
_atom_site_type_symbol
_atom_site_description
_atom_site_fract_x
_atom_site_fract_y
_atom_site_fract_z
_atom_type_partial_charge
O1    O     O_R   0.500000 0.285350 0.636850 -0.617472
O2    O     O_R   0.500000 0.714650 0.363150 -0.617469
O3    O     O_R   0.500000 0.714650 0.636850 -0.601758
O4    O     O_R   0.500000 0.285350 0.363150 -0.601749
H1    H     H_    0.948041 0.376997 0.895806 0.203151
H2    H     H_    0.051956 0.622862 0.104189 0.203157
H3    H     H_    0.948068 0.622370 0.104009 0.203107
H4    H     H_    0.051929 0.377492 0.895973 0.203109
C1    C     C_R   0.499999 0.217987 0.500037 0.965286
C2    C     C_R   0.500001 0.782013 0.499963 0.965274
O5    O     O_R   0.416160 0.500000 0.636910 -0.597661
O6    O     O_R   0.583840 0.500000 0.363090 -0.597685
O7    O     O_R   0.583840 0.500000 0.636910 -0.597689
O8    O     O_R   0.416160 0.500000 0.363090 -0.597659
C3    C     C_R   0.208747 0.500378 0.500135 0.036920
C4    C     C_R   0.791250 0.499539 0.499866 0.036836
C5    C     C_R   0.389286 0.500025 0.500014 1.000359
C6    C     C_R   0.610713 0.499974 0.499986 1.000370
Zn1   Zn    Zn3+2 0.500000 0.500000 0.682780 1.081800
Zn2   Zn    Zn3+2 0.500000 0.500000 0.317220 1.081804
C7    C     C_R   0.297940 0.627017 0.558002 0.179607
C8    C     C_R   0.702047 0.372855 0.442128 0.179604
C9    C     C_R   0.297886 0.373391 0.442139 0.179790
C10   C     C_R   0.702119 0.626656 0.557732 0.179797
C11   C     C_R   0.327448 0.500144 0.500053 -0.285408
C12   C     C_R   0.672550 0.499829 0.499947 -0.285471
C13   C     C_R   0.880319 0.543337 0.360091 0.606564
C14   C     C_R   0.119678 0.456544 0.639893 0.606609
C15   C     C_R   0.880311 0.455572 0.639563 0.606615
C16   C     C_R   0.119686 0.544308 0.360440 0.606653
N1    N     N_R   0.852110 0.499416 0.499815 -0.331979
N2    N     N_R   0.147887 0.500474 0.500181 -0.331968
C17   C     C_R   0.940000 0.455178 0.642817 -0.032032
C18   C     C_R   0.059997 0.544687 0.357178 -0.032039
C19   C     C_R   0.940009 0.544136 0.356980 -0.032031
C20   C     C_R   0.059988 0.455732 0.643006 -0.032036
C21   C     C_R   0.969965 0.499793 0.499946 -0.005333
C22   C     C_R   0.030032 0.500071 0.500043 -0.005349
C23   C     C_R   0.970227 0.411498 0.784662 -0.141877
C24   C     C_R   0.029770 0.588362 0.215330 -0.141866
C25   C     C_R   0.970246 0.588079 0.215227 -0.142032
C26   C     C_R   0.029751 0.411783 0.784758 -0.142017
C27   C     C_1   0.500000 0.065212 0.500053 -0.083052
C28   C     C_1   0.500000 0.934787 0.499947 -0.083060
C29   C     C_R   0.238213 0.627015 0.557405 0.293608
C30   C     C_R   0.761775 0.372826 0.442724 0.293629
C31   C     C_R   0.238159 0.373626 0.442820 0.293220
C32   C     C_R   0.761846 0.626395 0.557054 0.293222
N3    N     N_1   0.500000 0.500000 0.073640 0.001092
N4    N     N_1   0.500000 0.500000 0.926360 0.001090
O9    O     O_2   0.850510 0.585924 0.225217 -0.480191
O10   O     O_2   0.149488 0.413968 0.774755 -0.480175
O11   O     O_2   0.850494 0.412740 0.774350 -0.480088
O12   O     O_2   0.149503 0.587142 0.225668 -0.480076
Br1   Br    Br    0.195939 0.799207 0.632983 -0.274454
Br2   Br    Br    0.804035 0.200492 0.367310 -0.274333
Br3   Br    Br    0.195813 0.201587 0.367296 -0.274806
Br4   Br    Br    0.804201 0.798538 0.632413 -0.274727
Br5   Br    Br    0.339148 0.801802 0.632699 -0.336821
Br6   Br    Br    0.660823 0.197989 0.367609 -0.336807
Br7   Br    Br    0.339019 0.198455 0.367380 -0.336588
Br8   Br    Br    0.660993 0.801712 0.632308 -0.336513

loop_
_geom_bond_atom_site_label_1
_geom_bond_atom_site_label_2
_geom_bond_distance
_ccdc_geom_bond_type
C32   Br4   1.926805 S    
C27   C28   1.163226 T    
O3    Zn1   1.949991 S    
C21   C22   1.404629 A    
O8    Zn2   1.995368 S    
C31   Br3   1.926375 S    
Zn2   N3    1.972896 S    
C14   O10   1.350168 S    
C10   C32   1.396678 A    
C20   C26   1.403947 A    
C6    C12   1.446010 S    
C3    C31   1.402416 A    
C14   C20   1.396042 A    
C5    C11   1.446045 S    
C13   C19   1.396039 A    
C4    C32   1.402733 A    
O6    C6    1.274579 A    
C1    C27   1.362558 S    
C3    N2    1.423161 S    
C15   N1    1.366980 A    
O3    C2    1.260713 A    
C4    N1    1.423165 S    
C16   N2    1.366901 A    
C16   O12   1.350187 S    
O8    C5    1.274606 A    
O5    Zn1   1.995492 S    
C17   C23   1.403908 A    
C15   O11   1.350276 S    
O7    C6    1.274596 A    
C18   C24   1.403909 A    
C20   C22   1.409790 A    
C24   C25   1.391925 A    
C8    C30   1.396696 A    
H4    C26   1.083373 S    
C7    Br5   1.930419 S    
C23   C26   1.391925 A    
C7    C29   1.396699 A    
C9    C11   1.406026 A    
C13   N1    1.366981 A    
C8    Br6   1.930736 S    
C19   C25   1.403932 A    
Zn1   N4    1.972896 S    
O1    Zn1   1.950443 S    
C9    C31   1.396677 A    
C16   C18   1.396029 A    
C2    C28   1.362558 S    
O4    Zn2   1.949992 S    
C15   C17   1.396027 A    
C14   N2    1.366921 A    
H2    C24   1.083398 S    
O1    C1    1.260843 A    
C29   Br1   1.926360 S    
C17   C21   1.409849 A    
N3    N4    1.192906 T    
C8    C12   1.406351 A    
C9    Br7   1.930425 S    
C30   Br2   1.926781 S    
H1    C23   1.083418 S    
C7    C11   1.406088 A    
C4    C30   1.402673 A    
O7    Zn1   1.995366 S    
C10   Br8   1.930742 S    
C19   C21   1.409824 A    
O4    C1    1.260713 A    
C18   C22   1.409818 A    
O2    Zn2   1.950442 S    
O6    Zn2   1.995489 S    
O5    C5    1.274589 A    
C10   C12   1.406295 A    
H3    C25   1.083390 S    
C13   O9    1.350267 S    
C3    C29   1.402359 A    
O2    C2    1.260843 A    
