data_mof_unit_66473.cif
_audit_creation_date              2013-03-05T16:10:19-0500
_audit_creation_method            fapswitch 2.2
_symmetry_space_group_name_H-M    P1
_symmetry_Int_Tables_number       1
_space_group_crystal_system       triclinic
_cell_length_a                    12.742066
_cell_length_b                    13.896977
_cell_length_c                    27.807105
_cell_angle_alpha                 90.170124
_cell_angle_beta                  92.949849
_cell_angle_gamma                 97.971738
_cell_volume                      4869.67840791

loop_
_atom_site_label
_atom_site_type_symbol
_atom_site_description
_atom_site_fract_x
_atom_site_fract_y
_atom_site_fract_z
_atom_type_partial_charge
O1    O     O_R   0.399110 0.356330 0.497030 -0.571659
O2    O     O_R   0.600890 0.643670 0.502970 -0.571649
O3    O     O_R   0.575890 0.366530 0.502210 -0.561576
O4    O     O_R   0.424110 0.633470 0.497790 -0.561568
C1    C     C_R   0.483542 0.315798 0.499500 0.851244
C2    C     C_R   0.516458 0.684202 0.500500 0.851349
O5    O     O_R   0.411620 0.494910 0.427670 -0.558096
O6    O     O_R   0.588380 0.505090 0.572330 -0.558101
O7    O     O_R   0.588400 0.505120 0.432860 -0.579435
O8    O     O_R   0.411600 0.494880 0.567140 -0.579453
C3    C     C_R   0.500774 0.503074 0.407379 0.855393
C4    C     C_R   0.499226 0.496923 0.592621 0.855296
Cu1   Cu    Cu3+1 0.395330 0.493960 0.496930 1.019858
Cu2   Cu    Cu3+1 0.604670 0.506040 0.503070 1.019874
C5    C     C_R   0.451791 0.419356 0.177308 0.591753
C6    C     C_R   0.548170 0.580642 0.822693 0.591722
O9    O     O_2   0.403343 0.344667 0.202390 -0.487503
O10   O     O_2   0.596580 0.655348 0.797610 -0.487498
N1    N     N_R   0.502339 0.499136 0.202027 -0.459182
N2    N     N_R   0.497644 0.500853 0.797974 -0.459183
C7    C     C_R   0.545637 0.580263 0.178852 0.586171
C8    C     C_R   0.454365 0.419720 0.821149 0.586201
C9    C     C_R   0.428949 0.548674 0.276092 -0.167182
C10   C     C_R   0.571120 0.451415 0.723912 -0.167221
C11   C     C_R   0.428663 0.554292 0.326398 -0.055198
C12   C     C_R   0.571415 0.445800 0.673607 -0.055139
C13   C     C_R   0.576938 0.460269 0.331517 -0.246279
C14   C     C_R   0.422983 0.539628 0.668483 -0.246241
C15   C     C_R   0.577713 0.457001 0.281404 0.221141
C16   C     C_R   0.422202 0.542893 0.718596 0.221113
C17   C     C_R   0.502836 0.500728 0.253600 0.279271
C18   C     C_R   0.497151 0.499262 0.746401 0.279311
C19   C     C_R   0.496499 0.499506 0.101857 -0.045153
C20   C     C_R   0.503485 0.500483 0.898144 -0.045149
C21   C     C_R   0.448825 0.416469 0.126262 -0.085473
C22   C     C_R   0.551148 0.583524 0.873739 -0.085482
C23   C     C_R   0.393838 0.337760 0.098481 -0.017420
C24   C     C_R   0.606138 0.662232 0.901519 -0.017403
C25   C     C_R   0.541272 0.582786 0.128496 -0.056140
C26   C     C_R   0.458724 0.417200 0.871505 -0.056143
C27   C     C_R   0.502271 0.507313 0.354510 -0.138862
C28   C     C_R   0.497730 0.492682 0.645492 -0.138897
H1    H     H_    0.633879 0.424532 0.352570 0.178139
H2    H     H_    0.365984 0.575292 0.647429 0.178179
C29   C     C_R   0.460968 0.413382 0.973278 0.000201
C30   C     C_R   0.539019 0.586608 0.026723 0.000202
C31   C     C_R   0.547850 0.583087 0.976032 0.050665
C32   C     C_R   0.452132 0.416904 0.023969 0.050660
C33   C     C_R   0.502579 0.499448 0.949268 0.061006
C34   C     C_R   0.497405 0.500542 0.050733 0.061007
C35   C     C_R   0.435620 0.326234 0.945372 0.120427
C36   C     C_R   0.564376 0.673754 0.054631 0.120428
C37   C     C_R   0.427005 0.330693 0.895407 -0.137727
C38   C     C_R   0.572998 0.669292 0.104595 -0.137729
O11   O     O_2   0.408152 0.341270 0.795371 -0.507858
O12   O     O_2   0.591876 0.658704 0.204630 -0.507869
C39   C     C_R   0.390910 0.342524 0.048335 -0.197914
C40   C     C_R   0.609070 0.657468 0.951666 -0.197911
H3    H     H_    0.626666 0.416076 0.746070 0.181177
H4    H     H_    0.373462 0.584086 0.253936 0.181227
H5    H     H_    0.403586 0.263843 0.875093 0.212965
H6    H     H_    0.596426 0.736140 0.124910 0.212964
H7    H     H_    0.337674 0.287697 0.028443 0.186855
H8    H     H_    0.662310 0.712293 0.971557 0.186836
C41   C     C_1   0.525901 0.787547 0.500544 -0.130206
C42   C     C_1   0.474099 0.212453 0.499456 -0.130194
C43   C     C_2   0.543580 0.978450 0.500602 -0.141067
C44   C     C_2   0.456420 0.021550 0.499397 -0.141086
C45   C     C_1   0.465534 0.125379 0.499426 0.030967
C46   C     C_1   0.534466 0.874620 0.500573 0.030947
H9    H     H_    0.377944 0.979177 0.498376 0.165779
H10   H     H_    0.622056 0.020823 0.501623 0.165785
N3    N     N_1   0.238040 0.484880 0.492320 -0.153421
N4    N     N_1   0.761960 0.515120 0.507680 -0.153420
C47   C     C_2   0.028252 0.473753 0.486172 -0.241403
C48   C     C_2   0.971748 0.526247 0.513828 -0.241374
C49   C     C_1   0.854626 0.519077 0.509874 0.243573
C50   C     C_1   0.145373 0.480922 0.490126 0.243564
H11   H     H_    0.013894 0.576562 0.540489 0.173072
H12   H     H_    0.986106 0.423438 0.459511 0.173062
I1    I     I_    0.693344 0.385989 0.249117 -0.213703
I2    I     I_    0.306462 0.613762 0.750881 -0.213714
C51   C     C_2   0.338676 0.248148 0.119404 0.957330
O13   O     O_2   0.243129 0.225815 0.111375 -0.555716
O14   O     O_R   0.396920 0.186861 0.146232 -0.680783
H13   H     H_    0.350699 0.127178 0.158004 0.355670
C52   C     C_2   0.661316 0.751836 0.880596 0.957314
O15   O     O_2   0.756873 0.774132 0.888608 -0.555710
O16   O     O_R   0.603079 0.813155 0.853785 -0.680784
H14   H     H_    0.649312 0.872828 0.842011 0.355665
C53   C     C_2   0.645025 0.385815 0.652076 0.886180
O17   O     O_2   0.733325 0.383697 0.671164 -0.567101
O18   O     O_R   0.612158 0.328557 0.611177 -0.757684
H15   H     H_    0.669145 0.290497 0.600236 0.338612
C54   C     C_2   0.355157 0.614385 0.347933 0.886132
O19   O     O_2   0.266910 0.616692 0.328821 -0.567094
O20   O     O_R   0.388072 0.671537 0.388862 -0.757743
H16   H     H_    0.331163 0.709698 0.399799 0.338601
I3    I     I_    0.444644 0.182006 0.970705 -0.233695
I4    I     I_    0.555356 0.817985 0.029301 -0.233695

loop_
_geom_bond_atom_site_label_1
_geom_bond_atom_site_label_2
_geom_bond_distance
_ccdc_geom_bond_type
C52   O15   1.222786 D    
O18   H15   1.013857 S    
C13   C15   1.394690 A    
C54   O19   1.223290 D    
C48   H11   1.085704 S    
C47   C48   1.356930 D    
N1    C17   1.433881 S    
O20   H16   1.013880 S    
C32   C39   1.403916 A    
C31   C33   1.415039 A    
O14   H13   1.013858 S    
C5    N1    1.366894 A    
C19   C25   1.407807 A    
O1    C1    1.280674 A    
Cu2   N4    1.988085 S    
N1    C7    1.363494 A    
C10   C12   1.401026 A    
C44   H9    1.086793 S    
C25   C38   1.395697 A    
C29   C35   1.425963 A    
C41   C46   1.199799 T    
C30   C36   1.425964 A    
C43   H10   1.086792 S    
C14   C28   1.404995 A    
O4    Cu1   1.922366 S    
C4    C28   1.472535 S    
C24   C40   1.395027 A    
C37   H5    1.083449 S    
C2    C41   1.424481 S    
C44   C45   1.431430 S    
N4    C49   1.172819 T    
N3    C50   1.172818 T    
C47   H12   1.085705 S    
C6    N2    1.366884 A    
C32   C34   1.415037 A    
Cu1   Cu2   2.645985 S    
C40   H8    1.078034 S    
O2    C2    1.280672 A    
C5    C21   1.418305 A    
C36   C38   1.390295 A    
C39   H7    1.078034 S    
C35   I3    2.142609 S    
C9    H4    1.084022 S    
C43   C44   1.331954 D    
C48   C49   1.480200 S    
O4    C2    1.283672 A    
C11   C27   1.419287 A    
C53   O17   1.223236 D    
C38   H6    1.083450 S    
C12   C53   1.484854 S    
C36   I4    2.142612 S    
C35   C37   1.390297 A    
C9    C17   1.397730 A    
C16   I2    2.117728 S    
O5    C3    1.285430 A    
O7    Cu2   1.952488 S    
C10   C18   1.397701 A    
C15   I1    2.117766 S    
C53   O18   1.398265 S    
C13   C27   1.405002 A    
C51   O13   1.222778 D    
C7    C25   1.399222 A    
C29   C33   1.422229 A    
O6    C4    1.285436 A    
C8    C26   1.399227 A    
O7    C3    1.288076 A    
O3    Cu2   1.922366 S    
O8    C4    1.288089 A    
C51   O14   1.398156 S    
N2    C8    1.363484 A    
C11   C54   1.484903 S    
C52   O16   1.398160 S    
C20   C26   1.407806 A    
O1    Cu1   1.919918 S    
C12   C28   1.419276 A    
N2    C18   1.433872 S    
C29   C32   1.421041 A    
C5    O9    1.347510 S    
C30   C31   1.421043 A    
C20   C33   1.422345 A    
O6    Cu2   1.947553 S    
C21   C23   1.418023 A    
Cu1   N3    1.988087 S    
C1    C42   1.424480 S    
O3    C1    1.283672 A    
O8    Cu1   1.952493 S    
C7    O12   1.350193 S    
C54   O20   1.398279 S    
C8    O11   1.350187 S    
C30   C34   1.422231 A    
C24   C52   1.478845 S    
C43   C46   1.431430 S    
C22   C24   1.418021 A    
C19   C34   1.422345 A    
C15   C17   1.401769 A    
C6    C22   1.418299 A    
C31   C40   1.403915 A    
C16   C18   1.401744 A    
C10   H3    1.084009 S    
C14   C16   1.394693 A    
C19   C21   1.419092 A    
C14   H2    1.083372 S    
C3    C27   1.472504 S    
C20   C22   1.419090 A    
C9    C11   1.401035 A    
O2    Cu2   1.919919 S    
C47   C50   1.480200 S    
C42   C45   1.199799 T    
C13   H1    1.083386 S    
O5    Cu1   1.947553 S    
C6    O10   1.347504 S    
C26   C37   1.395697 A    
C23   C51   1.478850 S    
O16   H14   1.013860 S    
C23   C39   1.395033 A    
