data_mof_unit_18701.cif
_audit_creation_date              2013-03-05T15:40:17-0500
_audit_creation_method            fapswitch 2.2
_symmetry_space_group_name_H-M    P1
_symmetry_Int_Tables_number       1
_space_group_crystal_system       triclinic
_cell_length_a                    10.973766
_cell_length_b                    8.831473
_cell_length_c                    7.423623
_cell_angle_alpha                 102.254123
_cell_angle_beta                  91.487269
_cell_angle_gamma                 95.13969
_cell_volume                      699.489965253

loop_
_atom_site_label
_atom_site_type_symbol
_atom_site_description
_atom_site_fract_x
_atom_site_fract_y
_atom_site_fract_z
_atom_type_partial_charge
O1    O     O_R   0.509050 0.286130 0.619770 -0.588963
O2    O     O_R   0.485540 0.256780 0.308360 -0.594201
C1    C     C_R   0.489279 0.200065 0.455708 0.820979
O3    O     O_R   0.331410 0.514680 0.655740 -0.571184
O4    O     O_R   0.307900 0.485330 0.344330 -0.520499
C2    C     C_R   0.261454 0.498430 0.506965 0.832540
Cu1   Cu    Cu3+1 0.513920 0.517380 0.684380 1.084362
Cu2   Cu    Cu3+1 0.486080 0.482620 0.315620 1.069597
O5    O     O_R   0.514460 0.743220 0.691640 -0.557515
O6    O     O_R   0.490950 0.713870 0.380230 -0.560059
O7    O     O_R   0.692100 0.514670 0.655670 -0.534559
O8    O     O_R   0.668590 0.485320 0.344260 -0.582424
C3    C     C_R   0.501422 0.799705 0.546272 0.899240
C4    C     C_R   0.738427 0.512421 0.494843 0.868788
H1    H     H_    0.103591 0.391865 0.229255 0.239642
C5    C     C_R   0.120476 0.632294 0.855092 0.381515
C6    C     C_R   0.075230 0.753812 0.979523 -0.181190
H2    H     H_    0.116589 0.795989 0.116554 0.251422
C7    C     C_R   0.970290 0.813826 0.935906 -0.187648
H3    H     H_    0.937517 0.909241 0.033678 0.201294
C8    C     C_R   0.903045 0.745469 0.773460 0.408072
C9    C     C_R   0.945921 0.621003 0.644770 -0.074231
C10   C     C_R   0.066293 0.581487 0.673591 -0.035957
C11   C     C_R   0.126184 0.500379 0.518379 -0.108701
C12   C     C_R   0.058481 0.446835 0.350338 -0.188230
C13   C     C_R   0.935479 0.470044 0.329888 0.305930
C14   C     C_R   0.874178 0.539723 0.485998 -0.149300
C15   C     C_2   0.461504 0.033837 0.441959 0.042518
C16   C     C_2   0.512678 0.967877 0.569747 0.161521
N1    N     N_2   0.465100 0.456430 0.038520 -0.193068
H4    H     H_    0.406179 0.376219 0.949719 0.259142
N2    N     N_2   0.534900 0.543570 0.961480 -0.184666
H5    H     H_    0.593450 0.624972 0.050216 0.276160
N3    N     N_R   0.201739 0.543565 0.930925 0.120046
O9    O     O_R   0.276457 0.614375 0.067149 -0.308794
O10   O     O_R   0.183832 0.392200 0.892156 -0.367622
N4    N     N_R   0.794728 0.811812 0.738338 0.113135
O11   O     O_R   0.780073 0.861774 0.587226 -0.362547
O12   O     O_R   0.720979 0.844184 0.871808 -0.389967
N5    N     N_R   0.881134 0.443397 0.146298 0.101832
O13   O     O_R   0.820325 0.550253 0.100110 -0.369797
O14   O     O_R   0.922517 0.341314 0.014873 -0.358046
N6    N     N_R   0.362530 0.952241 0.317705 0.115031
O15   O     O_R   0.276066 0.869124 0.379938 -0.383181
O16   O     O_R   0.345361 0.985495 0.157002 -0.376007
O17   O     O_3   0.602094 0.053182 0.695106 -0.542556
C17   C     C_3   0.558637 0.079900 0.875433 0.159880
H6    H     H_    0.531520 0.970983 0.921483 0.209082
H7    H     H_    0.477197 0.146011 0.885471 0.127915
C18   C     C_3   0.661881 0.170037 0.005833 -0.507414
H8    H     H_    0.661632 0.295819 0.009846 0.250427
H9    H     H_    0.653850 0.146781 0.145940 0.181932
H10   H     H_    0.751315 0.133091 0.957113 0.296325

loop_
_geom_bond_atom_site_label_1
_geom_bond_atom_site_label_2
_geom_bond_distance
_ccdc_geom_bond_type
C7    C8    1.388601 A    
O4    Cu2   1.974099 S    
C18   H9    1.106320 S    
C10   C11   1.430378 A    
N4    O11   1.300939 A    
C4    C14   1.493014 S    
C5    C10   1.422790 A    
C15   N6    1.440621 S    
Cu1   O7    1.974100 S    
C7    H3    1.083721 S    
C16   O17   1.385271 S    
Cu2   O8    2.006056 S    
C2    C11   1.490470 S    
N2    H5    1.028505 S    
N5    O14   1.301489 A    
C6    H2    1.079103 S    
Cu2   N1    2.025341 S    
Cu1   Cu2   2.695314 S    
N4    O12   1.296646 A    
C17   H7    1.106178 S    
C8    C9    1.418649 A    
N1    N2    1.268858 D    
N6    O16   1.300754 A    
C13   N5    1.437029 S    
C13   C14   1.409316 A    
N1    H4    1.025685 S    
O3    Cu1   2.006055 S    
C3    C16   1.451757 S    
N5    O13   1.300661 A    
C6    C7    1.369220 A    
O8    C4    1.305122 A    
C18   H8    1.105153 S    
C17   C18   1.519464 S    
N3    O10   1.301966 A    
C9    C14   1.419783 A    
O1    Cu1   1.991760 S    
N6    O15   1.301721 A    
O4    C2    1.309219 A    
O7    C4    1.306727 A    
H1    C12   1.081491 S    
C18   H10   1.107334 S    
C1    C15   1.453643 S    
C8    N4    1.413395 S    
C11   C12   1.403681 A    
O3    C2    1.303338 A    
N3    O9    1.297183 A    
Cu1   O5    1.983230 S    
O5    C3    1.291199 A    
C9    C10   1.418463 A    
C15   C16   1.349131 D    
O2    C1    1.297307 A    
Cu1   N2    2.025341 S    
C5    N3    1.418658 S    
C12   C13   1.392538 A    
O17   C17   1.412222 S    
Cu2   O6    1.991759 S    
O2    Cu2   1.983232 S    
C17   H6    1.106458 S    
C5    C6    1.396416 A    
O1    C1    1.293030 A    
O6    C3    1.299088 A    
