data_mof_unit_61063.cif
_audit_creation_date              2013-03-05T16:19:45-0500
_audit_creation_method            fapswitch 2.2
_symmetry_space_group_name_H-M    P1
_symmetry_Int_Tables_number       1
_space_group_crystal_system       triclinic
_cell_length_a                    23.60488
_cell_length_b                    22.338188
_cell_length_c                    27.826562
_cell_angle_alpha                 90.000428
_cell_angle_beta                  88.592715
_cell_angle_gamma                 89.999086
_cell_volume                      14668.2491099

loop_
_atom_site_label
_atom_site_type_symbol
_atom_site_description
_atom_site_fract_x
_atom_site_fract_y
_atom_site_fract_z
_atom_type_partial_charge
O1    O     O_R   0.417880 0.550320 0.500010 -0.550362
O2    O     O_R   0.582120 0.449680 0.499990 -0.560049
O3    O     O_R   0.582120 0.550320 0.499990 -0.550397
O4    O     O_R   0.417880 0.449680 0.500010 -0.560049
C1    C     C_R   0.390960 0.500315 0.500507 0.984117
C2    C     C_R   0.609040 0.500315 0.499492 0.983884
O5    O     O_R   0.500010 0.550300 0.430260 -0.508366
O6    O     O_R   0.499990 0.449700 0.569740 -0.582545
O7    O     O_R   0.499990 0.550300 0.569740 -0.508380
O8    O     O_R   0.500010 0.449700 0.430260 -0.582552
O9    O     O_2   0.422629 0.839795 0.449344 -0.394645
O10   O     O_2   0.580679 0.159239 0.546902 -0.403539
O11   O     O_2   0.577366 0.839795 0.550663 -0.394612
O12   O     O_2   0.419314 0.159237 0.453097 -0.403541
C3    C     C_R   0.499212 0.500045 0.407294 0.979982
C4    C     C_R   0.500793 0.500045 0.592705 0.979857
Cu1   Cu    Cu3+1 0.500000 0.559570 0.500000 1.166985
Cu2   Cu    Cu3+1 0.500000 0.440430 0.500000 1.093401
C5    C     C_R   0.457517 0.255532 0.524088 0.511073
C6    C     C_R   0.541612 0.743737 0.474453 0.516262
C7    C     C_R   0.542475 0.255528 0.475912 0.511085
C8    C     C_R   0.458387 0.743737 0.525551 0.516241
C9    C     C_R   0.445432 0.493564 0.178139 0.768747
C10   C     C_R   0.554590 0.493584 0.821860 0.768752
O13   O     O_2   0.396567 0.486912 0.203753 -0.375139
O14   O     O_2   0.603457 0.486948 0.796246 -0.375142
N1    N     N_R   0.495224 0.499776 0.201741 -0.430047
N2    N     N_R   0.504797 0.499782 0.798258 -0.430048
C11   C     C_R   0.545625 0.507794 0.177430 0.672506
C12   C     C_R   0.454393 0.507784 0.822570 0.672498
C13   C     C_R   0.505712 0.444689 0.278464 0.302128
C14   C     C_R   0.494316 0.444691 0.721536 0.302125
C15   C     C_R   0.506452 0.446393 0.328843 -0.268573
C16   C     C_R   0.493572 0.446393 0.671157 -0.268556
C17   C     C_R   0.485688 0.552647 0.328555 0.612984
C18   C     C_R   0.514317 0.552652 0.671444 0.612950
C19   C     C_R   0.484389 0.551568 0.278538 0.593150
C20   C     C_R   0.515621 0.551573 0.721461 0.593167
C21   C     C_R   0.494573 0.498256 0.253267 -0.012430
C22   C     C_R   0.505447 0.498260 0.746733 -0.012431
C23   C     C_R   0.497001 0.500926 0.101739 -0.124060
C24   C     C_R   0.503019 0.500929 0.898260 -0.124061
C25   C     C_R   0.445272 0.493556 0.127516 -0.283516
C26   C     C_R   0.554751 0.493577 0.872483 -0.283516
C27   C     C_R   0.395320 0.484704 0.102134 0.655866
C28   C     C_R   0.604705 0.484739 0.897864 0.655864
C29   C     C_R   0.547497 0.508526 0.127041 0.010973
C30   C     C_R   0.452521 0.508514 0.872958 0.010973
C31   C     C_R   0.497278 0.499982 0.354250 -0.300927
C32   C     C_R   0.502733 0.499984 0.645750 -0.300957
C33   C     C_R   0.448761 0.503908 0.974662 0.146679
C34   C     C_R   0.551258 0.503923 0.025337 0.146679
C35   C     C_R   0.552988 0.497038 0.974547 -0.177277
C36   C     C_R   0.447033 0.497021 0.025452 -0.177278
C37   C     C_R   0.501630 0.500643 0.949307 0.022789
C38   C     C_R   0.498390 0.500641 0.050693 0.022789
C39   C     C_R   0.399643 0.515740 0.948291 -0.075292
C40   C     C_R   0.600373 0.515769 0.051708 -0.075291
C41   C     C_R   0.401438 0.517366 0.898385 -0.109067
C42   C     C_R   0.598577 0.517394 0.101615 -0.109070
O15   O     O_2   0.406265 0.514755 0.797964 -0.461138
O16   O     O_2   0.593751 0.514779 0.202035 -0.461146
C43   C     C_R   0.396160 0.485549 0.052083 0.528023
C44   C     C_R   0.603865 0.485583 0.947916 0.528025
H1    H     H_    0.486104 0.405425 0.651697 0.266149
H2    H     H_    0.513926 0.405426 0.348304 0.266153
H3    H     H_    0.362444 0.525809 0.879794 0.214942
H4    H     H_    0.637569 0.525848 0.120206 0.214941
H5    H     H_    0.359509 0.526539 0.965441 0.228729
H6    H     H_    0.640504 0.526581 0.034559 0.228729
C45   C     C_R   0.882293 0.518236 0.457406 0.724131
C46   C     C_R   0.117709 0.518262 0.542597 0.724115
N3    N     N_R   0.852126 0.510147 0.499768 -0.434507
N4    N     N_R   0.147873 0.510114 0.500242 -0.434503
C47   C     C_R   0.879609 0.503792 0.542455 0.717789
C48   C     C_R   0.120388 0.503702 0.457560 0.717824
C49   C     C_R   0.938978 0.508786 0.543867 -0.173101
C50   C     C_R   0.061021 0.508709 0.456145 -0.173098
C51   C     C_R   0.970104 0.511937 0.500082 -0.078716
C52   C     C_R   0.029896 0.511928 0.499927 -0.078716
C53   C     C_R   0.941608 0.515006 0.456409 -0.118143
C54   C     C_R   0.058392 0.515047 0.543597 -0.118149
C55   C     C_R   0.968134 0.510156 0.587494 0.702053
C56   C     C_R   0.031864 0.510028 0.412516 0.702057
C57   C     C_R   0.027097 0.514943 0.587165 -0.153356
C58   C     C_R   0.972903 0.514833 0.412841 -0.153350
C59   C     C_R   0.457850 0.318802 0.523728 0.277006
C60   C     C_R   0.541017 0.680545 0.474454 0.321785
C61   C     C_R   0.542147 0.318797 0.476273 0.277001
C62   C     C_R   0.458983 0.680545 0.525547 0.321753
O17   O     O_2   0.855079 0.529734 0.416325 -0.427013
O18   O     O_2   0.144925 0.529807 0.583669 -0.427012
O19   O     O_2   0.849686 0.491752 0.583239 -0.357943
O20   O     O_2   0.150307 0.491597 0.416787 -0.357947
H7    H     H_    0.048217 0.516992 0.621250 0.233524
H8    H     H_    0.951784 0.516842 0.378755 0.233527
C63   C     C_R   0.241635 0.544823 0.469882 0.599586
C64   C     C_R   0.758353 0.544882 0.530091 0.599665
C65   C     C_R   0.300796 0.539890 0.467768 0.163450
C66   C     C_R   0.699194 0.539942 0.532197 0.163478
C67   C     C_R   0.328494 0.502387 0.500840 -0.397695
C68   C     C_R   0.671507 0.502392 0.499155 -0.397763
C69   C     C_R   0.296043 0.471157 0.536210 0.176158
C70   C     C_R   0.703966 0.471130 0.463810 0.176232
C71   C     C_R   0.236799 0.469619 0.532624 0.587710
C72   C     C_R   0.763210 0.469601 0.467408 0.587649
C73   C     C_R   0.209137 0.507839 0.500640 -0.057399
C74   C     C_R   0.790863 0.507862 0.499367 -0.057442
N5    N     N_R   0.500000 0.350920 0.500000 -0.354842
N6    N     N_R   0.500000 0.649080 0.500000 -0.350458
C75   C     C_R   0.459863 0.871588 0.474991 0.720578
C76   C     C_R   0.540976 0.127444 0.524039 0.718770
C77   C     C_R   0.540131 0.871588 0.525017 0.720584
C78   C     C_R   0.459014 0.127443 0.475966 0.718772
N7    N     N_R   0.499998 0.841240 0.500003 -0.414241
N8    N     N_R   0.499995 0.157840 0.500002 -0.413165
C79   C     C_R   0.542164 0.935391 0.524702 -0.169612
C80   C     C_R   0.458160 0.063612 0.474905 -0.169262
C81   C     C_R   0.457827 0.935391 0.475308 -0.169605
C82   C     C_R   0.541828 0.063613 0.525105 -0.169258
C83   C     C_R   0.499995 0.967467 0.500005 -0.053562
C84   C     C_R   0.499995 0.031548 0.500005 -0.053986
C85   C     C_R   0.584398 0.967957 0.549009 0.250848
C86   C     C_R   0.416327 0.031003 0.450121 0.254644
C87   C     C_R   0.415590 0.967955 0.451004 0.250850
C88   C     C_R   0.583659 0.031004 0.549893 0.254637
C89   C     C_R   0.499995 0.223180 0.500000 -0.028441
C90   C     C_R   0.499999 0.775977 0.500002 -0.023458
F1    F     F_    0.415717 0.225713 0.548479 -0.526047
F2    F     F_    0.582348 0.773620 0.448854 -0.529686
F3    F     F_    0.584275 0.225704 0.451522 -0.526047
F4    F     F_    0.417650 0.773618 0.551150 -0.529692
F5    F     F_    0.347508 0.469516 0.030546 -0.576932
F6    F     F_    0.652522 0.469564 0.969452 -0.576934
F7    F     F_    0.940010 0.508681 0.630629 -0.536534
F8    F     F_    0.059988 0.508487 0.369383 -0.536529
F9    F     F_    0.215497 0.584617 0.440901 -0.524962
F10   F     F_    0.784474 0.584724 0.559042 -0.524930
N9    N     N_R   0.332319 0.572919 0.431753 0.203361
O21   O     O_R   0.319827 0.628503 0.422890 -0.149534
O22   O     O_R   0.369627 0.545788 0.404338 -0.331300
N10   N     N_R   0.667655 0.573029 0.568163 0.203384
O23   O     O_R   0.680019 0.628697 0.576845 -0.149726
O24   O     O_R   0.630451 0.545911 0.595689 -0.330980
N11   N     N_R   0.321897 0.447376 0.578554 0.212415
O25   O     O_R   0.363704 0.475912 0.597830 -0.324423
O26   O     O_R   0.297567 0.404443 0.603034 -0.124554
N12   N     N_R   0.678124 0.447327 0.421469 0.212444
O27   O     O_R   0.636319 0.475851 0.402179 -0.324411
O28   O     O_R   0.702468 0.404391 0.397002 -0.124546
F11   F     F_    0.205553 0.432945 0.561803 -0.535073
F12   F     F_    0.794463 0.432894 0.438261 -0.535091
N13   N     N_R   0.412236 0.348168 0.548109 0.205747
O29   O     O_R   0.361800 0.342032 0.530937 -0.243493
O30   O     O_R   0.417067 0.359934 0.593540 -0.259018
N14   N     N_R   0.584356 0.650159 0.447352 0.195835
O31   O     O_R   0.636299 0.653081 0.461770 -0.249936
O32   O     O_R   0.575608 0.636784 0.402687 -0.225532
N15   N     N_R   0.587767 0.348157 0.451897 0.205747
O33   O     O_R   0.638198 0.342018 0.469079 -0.243489
O34   O     O_R   0.582948 0.359911 0.406463 -0.258991
N16   N     N_R   0.415641 0.650158 0.552644 0.195848
O35   O     O_R   0.363700 0.653076 0.538219 -0.250036
O36   O     O_R   0.424382 0.636786 0.597311 -0.225468
F13   F     F_    0.474615 0.605083 0.351589 -0.518576
F14   F     F_    0.525379 0.605089 0.648410 -0.518570
F15   F     F_    0.473593 0.602845 0.254239 -0.540313
F16   F     F_    0.526409 0.602853 0.745759 -0.540306
F17   F     F_    0.345152 0.473692 0.125435 -0.501144
F18   F     F_    0.654876 0.473743 0.874563 -0.501147
N17   N     N_R   0.629422 0.937750 0.572733 0.193200
O37   O     O_R   0.632462 0.939984 0.619314 -0.195578
O38   O     O_R   0.671382 0.915262 0.547483 -0.186028
N18   N     N_R   0.373396 0.061186 0.423834 0.193363
O39   O     O_R   0.384867 0.080825 0.380663 -0.201422
O40   O     O_R   0.321240 0.061324 0.440071 -0.194322
N19   N     N_R   0.370561 0.937749 0.427288 0.193192
O41   O     O_R   0.367511 0.939981 0.380707 -0.195575
O42   O     O_R   0.328607 0.915261 0.452543 -0.186057
N20   N     N_R   0.626584 0.061189 0.576188 0.193376
O43   O     O_R   0.615091 0.080860 0.619344 -0.201439
O44   O     O_R   0.678751 0.061286 0.559982 -0.194317
N21   N     N_R   0.483218 0.388813 0.746087 0.188595
O45   O     O_R   0.458682 0.344987 0.723848 -0.223755
O46   O     O_R   0.499843 0.379838 0.789722 -0.287773
N22   N     N_R   0.516822 0.388813 0.253913 0.188601
O47   O     O_R   0.541360 0.344990 0.276155 -0.223749
O48   O     O_R   0.500210 0.379835 0.210276 -0.287772

loop_
_geom_bond_atom_site_label_1
_geom_bond_atom_site_label_2
_geom_bond_distance
_ccdc_geom_bond_type
C5    F1    1.358343 S    
N17   O37   1.300908 A    
O2    Cu2   1.949411 S    
N3    C47   1.374717 A    
C70   N12   1.441632 S    
C14   N21   1.443815 S    
Cu2   N5    1.999491 S    
O10   C76   1.347907 S    
O3    C2    1.285013 A    
Cu1   N6    1.999491 S    
C70   C72   1.404880 A    
N11   O25   1.301495 A    
C9    C25   1.408773 A    
C19   F15   1.357428 S    
C7    C61   1.413375 A    
N20   O43   1.301096 A    
C20   F16   1.357432 S    
C71   C73   1.405663 A    
C69   N11   1.441645 S    
N16   O35   1.301055 A    
N4    C48   1.374720 A    
C64   F10   1.358565 S    
O1    C1    1.285020 A    
C43   F5    1.356496 S    
C12   C30   1.401850 A    
N14   O31   1.301053 A    
C17   C19   1.393095 A    
O7    C4    1.292118 A    
C56   C58   1.395714 A    
C6    C90   1.398092 A    
C5    C59   1.413380 A    
O8    C3    1.293872 A    
N21   O46   1.300716 A    
C46   O18   1.349614 S    
C35   C44   1.418869 A    
C82   C88   1.419429 A    
C39   C41   1.388791 A    
C86   N18   1.432832 S    
C36   C43   1.418871 A    
N2    C22   1.433885 S    
C40   C42   1.388795 A    
C61   N5    1.381418 A    
C64   C74   1.404072 A    
N1    C11   1.365886 A    
C75   C81   1.426071 A    
C80   C84   1.417686 A    
C63   F9    1.358549 S    
C79   C83   1.417768 A    
N18   O39   1.301139 A    
C7    F3    1.358339 S    
N11   O26   1.301712 A    
C29   C42   1.397062 A    
N20   O44   1.300924 A    
N19   O42   1.301080 A    
N8    C89   1.459557 S    
C17   C31   1.407026 A    
C34   C40   1.412231 A    
C13   C15   1.402925 A    
C88   N20   1.432871 S    
C33   C39   1.412229 A    
C9    N1    1.367447 A    
C7    C89   1.394248 A    
C55   F7    1.357707 S    
C53   C58   1.404103 A    
C60   N6    1.379487 A    
O5    C3    1.292120 A    
N4    C73   1.447329 S    
O6    C4    1.293875 A    
C2    C68   1.475042 S    
C23   C25   1.410532 A    
C65   N9    1.437287 S    
O2    C2    1.297289 A    
C24   C26   1.410530 A    
C16   H1    1.080062 S    
C18   F14   1.357525 S    
C63   C65   1.400618 A    
C82   C84   1.417688 A    
C15   H2    1.080061 S    
C61   N15   1.419146 S    
N16   O36   1.299731 A    
C49   C51   1.409003 A    
C23   C29   1.409437 A    
C71   F11   1.358315 S    
C36   C38   1.418197 A    
C16   C32   1.404354 A    
C72   F12   1.358304 S    
O9    C75   1.347966 S    
C48   C50   1.407331 A    
C44   F6    1.356495 S    
N12   O27   1.301493 A    
C46   N4    1.374049 A    
N1    C21   1.433885 S    
C51   C53   1.405038 A    
C40   H6    1.077602 S    
C85   C88   1.408684 A    
C24   C30   1.409436 A    
C26   C28   1.403248 A    
C33   C37   1.420315 A    
O5    Cu1   1.951634 S    
O12   C78   1.347906 S    
C27   C43   1.392546 A    
O6    Cu2   1.951631 S    
N7    C90   1.457862 S    
C28   F18   1.358512 S    
C28   C44   1.392545 A    
C14   C16   1.402920 A    
N21   O45   1.301715 A    
C23   C38   1.420025 A    
C24   C37   1.420025 A    
C47   C49   1.407341 A    
C41   H3    1.083426 S    
C8    C90   1.398093 A    
N15   O33   1.300934 A    
C59   N13   1.419157 S    
Cu1   Cu2   2.661369 S    
C8    C62   1.411656 A    
C69   C71   1.404866 A    
N18   O40   1.300961 A    
C80   C86   1.419432 A    
C57   H7    1.083246 S    
C68   C70   1.415993 A    
C25   C27   1.403252 A    
C83   C84   1.431471 A    
C78   C80   1.426330 A    
C81   C83   1.417771 A    
C58   H8    1.083249 S    
N22   O47   1.301717 A    
C77   C79   1.426078 A    
N12   O28   1.301691 A    
O7    Cu1   1.951634 S    
C55   C57   1.395721 A    
C11   C29   1.401848 A    
C64   C66   1.400599 A    
C87   N19   1.433540 S    
C10   C26   1.408773 A    
N10   O24   1.300728 A    
C62   N16   1.427629 S    
N13   O30   1.298994 A    
C62   N6    1.379482 A    
C35   C37   1.418194 A    
N22   O48   1.300714 A    
C18   C20   1.393097 A    
C60   N14   1.427626 S    
C81   C87   1.419032 A    
C76   N8    1.369647 A    
C14   C22   1.414785 A    
C18   C32   1.407030 A    
C34   C35   1.421259 A    
C47   O19   1.348998 S    
C30   C41   1.397060 A    
C76   C82   1.426330 A    
C66   C68   1.416198 A    
C11   O16   1.349763 S    
C56   F8    1.357707 S    
C8    F4    1.357924 S    
C10   N2    1.367446 A    
C6    F2    1.357928 S    
O4    C1    1.297275 A    
N3    C74   1.447333 S    
C27   F17   1.358513 S    
C78   N8    1.369652 A    
N9    O21   1.301162 A    
C59   N5    1.381433 A    
C48   O20   1.349001 S    
N17   O38   1.301085 A    
C54   C57   1.404106 A    
O1    Cu1   1.949413 S    
C1    C67   1.475041 S    
C33   C36   1.421257 A    
N14   O32   1.299730 A    
N15   O34   1.298993 A    
C79   C85   1.419040 A    
O4    Cu2   1.949407 S    
C19   C21   1.400791 A    
C66   N10   1.437180 S    
C20   C22   1.400795 A    
N9    O22   1.300695 A    
C10   O14   1.349135 S    
C77   N7    1.368896 A    
C72   C74   1.405681 A    
O8    Cu2   1.951637 S    
C46   C54   1.401594 A    
C6    C60   1.411663 A    
C13   N22   1.443814 S    
N2    C12   1.365888 A    
C17   F13   1.357524 S    
C52   C54   1.405042 A    
C13   C21   1.414785 A    
O3    Cu1   1.949404 S    
C50   C52   1.409000 A    
C3    C31   1.477875 S    
C4    C32   1.477877 S    
O11   C77   1.347962 S    
C51   C52   1.411284 A    
C63   C73   1.404050 A    
C50   C56   1.410473 A    
C9    O13   1.349136 S    
C45   O17   1.349622 S    
C42   H4    1.083429 S    
C67   C69   1.416021 A    
N19   O41   1.300901 A    
C12   O15   1.349761 S    
C45   N3    1.374047 A    
C49   C55   1.410472 A    
N10   O23   1.301294 A    
C75   N7    1.368890 A    
C5    C89   1.394247 A    
C39   H5    1.077602 S    
N13   O29   1.300934 A    
C15   C31   1.404351 A    
C65   C67   1.416256 A    
C85   N17   1.433537 S    
C34   C38   1.420315 A    
C86   C87   1.408682 A    
C45   C53   1.401586 A    
