data_mof_unit_11057.cif
_audit_creation_date              2012-12-10T16:49:26-0500
_audit_creation_method            fapswitch 2.2
_symmetry_space_group_name_H-M    P1
_symmetry_Int_Tables_number       1
_space_group_crystal_system       triclinic
_cell_length_a                    19.319087
_cell_length_b                    8.689432
_cell_length_c                    7.438428
_cell_angle_alpha                 103.047092
_cell_angle_beta                  93.633128
_cell_angle_gamma                 92.337677
_cell_volume                      1212.07189839

loop_
_atom_site_label
_atom_site_type_symbol
_atom_type_description
_atom_site_fract_x
_atom_site_fract_y
_atom_site_fract_z
_atom_type_partial_charge
C1    C     C_R   0.497916 0.199687 0.453211 0.881757
C2    C     C_R   0.502084 0.800313 0.546789 0.881767
C3    C     C_2   0.496959 0.031770 0.426903 -0.379562
C4    C     C_2   0.503041 0.968230 0.573097 -0.379564
C5    C     C_R   0.367654 0.495966 0.502790 0.776592
C6    C     C_R   0.632347 0.504030 0.497210 0.776600
C7    C     C_R   0.255624 0.407401 0.617494 0.153106
C8    C     C_R   0.744382 0.592542 0.382479 0.153131
C9    C     C_R   0.183155 0.412288 0.615733 -0.171415
C10   C     C_R   0.816850 0.587642 0.384246 -0.171442
C11   C     C_R   0.146502 0.498517 0.506432 0.018603
C12   C     C_R   0.853499 0.501435 0.493580 0.018623
C13   C     C_R   0.183078 0.581606 0.398096 -0.165446
C14   C     C_R   0.816919 0.418376 0.601942 -0.165455
C15   C     C_R   0.254946 0.578923 0.399263 -0.233609
C16   C     C_R   0.745051 0.421071 0.600767 -0.233629
C17   C     C_R   0.291938 0.493489 0.508603 -0.049373
C18   C     C_R   0.708063 0.506488 0.491396 -0.049353
C19   C     C_R   0.929761 0.500267 0.496524 0.423169
C20   C     C_R   0.070240 0.499677 0.503491 0.423170
Cu1   Cu    Cu3+1 0.507710 0.517380 0.684380 0.936330
Cu2   Cu    Cu3+1 0.492290 0.482620 0.315620 0.936327
H1    H     H_    0.155327 0.345811 0.698099 0.159492
H2    H     H_    0.844680 0.654091 0.301855 0.159496
H3    H     H_    0.156280 0.648911 0.311958 0.163770
H4    H     H_    0.843715 0.351088 0.688105 0.163762
H5    H     H_    0.281940 0.645082 0.315016 0.157835
H6    H     H_    0.718054 0.354934 0.685033 0.157848
H7    H     H_    0.491270 0.960076 0.286038 0.180072
H8    H     H_    0.508730 0.039924 0.713962 0.180071
H9    H     H_    0.447891 0.374080 0.948062 0.229614
H10   H     H_    0.552106 0.625923 0.051938 0.229614
N1    N     N_R   0.034330 0.579511 0.394556 -0.234935
N2    N     N_R   0.965671 0.420432 0.605459 -0.234931
N3    N     N_R   0.965460 0.579839 0.391201 -0.238277
N4    N     N_R   0.034541 0.420104 0.608813 -0.238273
N5    N     N_2   0.480680 0.456420 0.038530 -0.220534
N6    N     N_2   0.519320 0.543580 0.961470 -0.220541
O1    O     O_R   0.505010 0.286130 0.619770 -0.585989
O2    O     O_R   0.494990 0.713870 0.380230 -0.585984
O3    O     O_R   0.491990 0.256780 0.308370 -0.583674
O4    O     O_R   0.508010 0.743220 0.691630 -0.583668
O5    O     O_R   0.406650 0.514660 0.655750 -0.577971
O6    O     O_R   0.593350 0.485340 0.344250 -0.577979
O7    O     O_R   0.393640 0.485310 0.344340 -0.585384
O8    O     O_R   0.606360 0.514690 0.655660 -0.585389
C21   C     C_3   0.290710 0.302490 0.728685 -0.440828
C22   C     C_3   0.295470 0.379691 0.935168 -0.772676
H11   H     H_    0.321591 0.300988 0.013498 0.242275
H12   H     H_    0.325874 0.494943 0.963191 0.264208
H13   H     H_    0.242783 0.399424 0.984560 0.248407
H14   H     H_    0.260252 0.187360 0.704262 0.202435
H15   H     H_    0.343235 0.272938 0.684603 0.202002
C23   C     C_3   0.709302 0.697425 0.271246 -0.440904
C24   C     C_3   0.704520 0.620159 0.064798 -0.772744
H16   H     H_    0.674059 0.504988 0.036841 0.264235
H17   H     H_    0.678453 0.698898 0.986427 0.242315
H18   H     H_    0.757199 0.600245 0.015406 0.248418
H19   H     H_    0.656788 0.727037 0.315346 0.202016
H20   H     H_    0.739774 0.812519 0.295589 0.202470

loop_
_geom_bond_atom_site_label_1
_geom_bond_atom_site_label_2
_ccdc_geom_bond_type
C16   H6    S    
C2    C4    S    
C24   H16   S    
C21   H14   S    
C14   C16   A    
H10   N6    S    
C8    C18   A    
C11   C13   A    
C15   H5    S    
C21   C22   S    
Cu1   O1    S    
C13   C15   A    
C21   H15   S    
Cu2   O2    S    
C7    C9    A    
C22   H12   S    
C5    O5    A    
C23   H20   S    
Cu1   Cu2   S    
C14   H4    S    
C9    C11   A    
C13   H3    S    
N5    N6    D    
C10   C12   A    
C2    O4    A    
C20   N1    A    
C12   C19   S    
C8    C10   A    
C22   H11   S    
N1    N3    A    
C12   C14   A    
C19   N3    A    
N2    N4    A    
C23   H19   S    
C24   H17   S    
C6    C18   S    
Cu2   O6    S    
C11   C20   S    
Cu2   O3    S    
C5    C17   S    
C1    O1    A    
C3    C4    D    
C20   N4    A    
C2    O2    A    
Cu2   O7    S    
C16   C18   A    
Cu1   O8    S    
C24   H18   S    
C8    C23   S    
C1    C3    S    
C15   C17   A    
C23   C24   S    
C9    H1    S    
C3    H7    S    
C6    O6    A    
Cu1   O4    S    
C6    O8    A    
C10   H2    S    
Cu1   O5    S    
Cu2   N5    S    
C5    O7    A    
C22   H13   S    
C4    H8    S    
Cu1   N6    S    
C1    O3    A    
H9    N5    S    
C7    C17   A    
C19   N2    A    
C7    C21   S    
