data_mof_unit_10050.cif
_audit_creation_date              2012-12-10T17:33:05-0500
_audit_creation_method            fapswitch 2.2
_symmetry_space_group_name_H-M    P1
_symmetry_Int_Tables_number       1
_space_group_crystal_system       triclinic
_cell_length_a                    12.438111
_cell_length_b                    13.295917
_cell_length_c                    14.124353
_cell_angle_alpha                 93.462584
_cell_angle_beta                  107.814123
_cell_angle_gamma                 117.390716
_cell_volume                      1917.80994658

loop_
_atom_site_label
_atom_site_type_symbol
_atom_type_description
_atom_site_fract_x
_atom_site_fract_y
_atom_site_fract_z
_atom_type_partial_charge
C1    C     C_R   0.651269 0.714171 0.509388 0.870242
C2    C     C_R   0.848832 0.496843 0.917694 0.054498
C3    C     C_R   0.797344 0.504574 0.992942 0.099003
C4    C     C_R   0.951027 0.469973 0.939190 -0.080188
C5    C     C_R   0.022367 0.481968 0.042755 0.011209
C6    C     C_R   0.971114 0.491929 0.117345 -0.271768
C7    C     C_R   0.858380 0.501038 0.092979 0.385052
C8    C     C_R   0.980769 0.426529 0.861672 0.294003
C9    C     C_R   0.088206 0.408979 0.887927 0.439622
C10   C     C_R   0.158301 0.419468 0.991587 -0.220103
C11   C     C_R   0.135503 0.470949 0.068756 -0.122495
C12   C     C_R   0.619567 0.518656 0.687385 0.789954
C13   C     C_R   0.244144 0.374157 0.022128 0.438454
C14   C     C_R   0.307808 0.385441 0.126390 0.293507
C15   C     C_R   0.226107 0.508280 0.171054 0.340296
C16   C     C_R   0.125483 0.971194 0.345443 0.431713
C17   C     C_R   0.248210 0.161699 0.461884 -0.138769
C18   C     C_R   0.745882 0.919554 0.590990 -0.319805
C19   C     C_R   0.844855 0.036022 0.619052 0.495690
C20   C     C_R   0.939984 0.069974 0.576828 -0.100802
C21   C     C_R   0.936138 0.989806 0.502908 -0.048521
C22   C     C_R   0.825648 0.875505 0.465211 -0.008661
C23   C     C_R   0.345456 0.285268 0.485246 0.807045
C24   C     C_R   0.037510 0.020455 0.464166 0.050547
C25   C     C_R   0.023494 0.940102 0.383429 -0.021973
C26   C     C_R   0.906998 0.832852 0.340695 -0.242193
C27   C     C_R   0.806599 0.803714 0.376333 0.383367
C28   C     C_R   0.152947 0.129311 0.503760 -0.172251
C29   C     C_R   0.237480 0.081070 0.386482 -0.184298
C30   C     C_R   0.737907 0.838164 0.517374 -0.111449
C31   C     C_R   0.252984 0.699159 0.646934 -0.231656
C32   C     C_R   0.651698 0.341371 0.362378 0.168620
C33   C     C_R   0.726676 0.308557 0.327737 -0.224069
C34   C     C_R   0.378809 0.479167 0.312171 0.902315
C35   C     C_R   0.862077 0.368646 0.377388 -0.171165
C36   C     C_R   0.925240 0.461021 0.465268 0.052112
C37   C     C_R   0.843494 0.494672 0.494721 0.311814
C38   C     C_R   0.065667 0.525572 0.521556 -0.022481
C39   C     C_R   0.118560 0.628114 0.596845 0.022626
C40   C     C_R   0.037488 0.659589 0.623514 -0.215061
C41   C     C_R   0.903139 0.592595 0.575626 -0.145593
C42   C     C_R   0.156527 0.493887 0.507486 0.513095
C43   C     C_R   0.337931 0.669058 0.626602 0.550942
C44   C     C_R   0.683702 0.524043 0.795293 -0.076541
C45   C     C_R   0.304396 0.457837 0.201664 -0.232236
C46   C     C_R   0.685683 0.516669 0.966392 -0.093339
C47   C     C_R   0.626474 0.522023 0.866951 -0.185286
C48   C     C_R   0.800213 0.521911 0.824664 -0.145122
Cu1   Cu    Cu3+1 0.416420 0.526630 0.522910 0.996991
Cu2   Cu    Cu3+1 0.583580 0.473370 0.477090 0.991951
H1    H     H_    0.311594 0.106275 0.353573 0.171289
H2    H     H_    0.889425 0.771240 0.276402 0.197988
H3    H     H_    0.171477 0.193021 0.566322 0.185760
H4    H     H_    0.678104 0.891701 0.629977 0.191715
H5    H     H_    0.013915 0.160845 0.602600 0.205570
H6    H     H_    0.078487 0.736694 0.683391 0.157012
H7    H     H_    0.293225 0.779015 0.703333 0.180609
H8    H     H_    0.546728 0.294323 0.323167 0.131919
H9    H     H_    0.913707 0.343990 0.341307 0.190617
H10   H     H_    0.679840 0.237623 0.260815 0.172817
H11   H     H_    0.849423 0.622130 0.603368 0.180511
H12   H     H_    0.642122 0.519388 0.021506 0.224696
H13   H     H_    0.536766 0.524901 0.846411 0.198618
H14   H     H_    0.853389 0.541288 0.774274 0.186965
H15   H     H_    0.014084 0.486021 0.194402 0.174834
N1    N     N_R   0.290690 0.566960 0.557640 -0.258538
N2    N     N_R   0.709100 0.433710 0.442970 -0.206869
O1    O     O_R   0.545970 0.684450 0.528810 -0.573355
O2    O     O_R   0.687130 0.639470 0.490120 -0.583610
O3    O     O_R   0.519670 0.535100 0.660030 -0.604886
O4    O     O_R   0.660830 0.490120 0.621340 -0.574825
O5    O     O_R   0.312870 0.360530 0.509880 -0.547734
O6    O     O_R   0.454030 0.315550 0.471190 -0.593748
O7    O     O_R   0.339170 0.509880 0.378660 -0.562059
O8    O     O_R   0.480330 0.464900 0.339970 -0.541742
O9    O     O_3   0.808531 0.509510 0.166296 -0.714816
H16   H     H_    0.867128 0.512527 0.233653 0.328834
Cl1   Cl    Cl    0.255075 0.280232 0.935880 -0.470868
O10   O     O_3   0.118656 0.898967 0.266810 -0.717084
H17   H     H_    0.030081 0.862372 0.213009 0.323106
O11   O     O_3   0.855104 0.117879 0.691371 -0.630687
H18   H     H_    0.780782 0.080446 0.714143 0.342887
Cl2   Cl    Cl    0.651524 0.690775 0.292063 -0.582022
O12   O     O_3   0.468968 0.745990 0.679130 -0.741155
H19   H     H_    0.516085 0.703290 0.683707 0.359909
O13   O     O_3   0.246053 0.599013 0.240606 -0.695693
H20   H     H_    0.220062 0.649454 0.202302 0.349996
O14   O     O_3   0.108991 0.383955 0.452795 -0.729994
H21   H     H_    0.144601 0.393127 0.398423 0.336663
O15   O     O_3   0.370856 0.322857 0.152045 -0.646644
H22   H     H_    0.348868 0.288150 0.208374 0.303839
Cl3   Cl    Cl    0.140676 0.389493 0.788251 -0.491034
Cl4   Cl    Cl    0.869012 0.363700 0.732253 -0.537631

loop_
_geom_bond_atom_site_label_1
_geom_bond_atom_site_label_2
_ccdc_geom_bond_type
Cu1   O1    S    
C17   C29   A    
C35   C36   A    
C32   H8    S    
C4    C8    A    
O11   H18   S    
C26   C27   A    
C17   C23   S    
C31   C43   A    
C46   H12   S    
C36   C37   A    
Cu2   O2    S    
C38   C42   A    
C3    C7    A    
C47   H13   S    
C5    C6    A    
C48   H14   S    
C1    O1    A    
C35   H9    S    
C18   C19   A    
C14   O15   S    
C13   C14   A    
C46   C47   A    
C11   C15   A    
O12   H19   S    
C6    H15   S    
C19   C20   A    
C8    C9    A    
C40   H6    S    
Cu1   O5    S    
C18   C30   A    
C41   H11   S    
Cu2   N2    S    
C44   C47   A    
C34   O8    A    
C21   C22   A    
C43   O12   S    
C23   O6    A    
C20   H5    S    
C9    Cl3   S    
C14   C45   A    
Cu1   N1    S    
O9    H16   S    
Cu2   O6    S    
C39   C40   A    
O13   H20   S    
C2    C48   A    
C25   C26   A    
C1    O2    A    
C2    C4    A    
Cu2   O4    S    
C26   H2    S    
C20   C21   A    
C34   C45   S    
C24   C25   A    
C7    O9    S    
C34   O7    A    
C15   O13   S    
C40   C41   A    
C12   O4    A    
C33   H10   S    
C22   C27   A    
C32   N2    A    
C42   O14   S    
C15   C45   A    
C29   H1    S    
C16   C25   A    
C12   O3    A    
C13   Cl1   S    
C22   C30   A    
C17   C28   A    
C23   O5    A    
C8    Cl4   S    
C24   C28   A    
C4    C5    A    
C10   C13   A    
C28   H3    S    
C5    C11   A    
C6    C7    A    
C3    C46   A    
Cu1   O3    S    
C16   O10   S    
C32   C33   A    
C31   H7    S    
C36   C38   A    
C2    C3    A    
C16   C29   A    
C12   C44   S    
Cu2   O8    S    
O15   H22   S    
C38   C39   A    
C43   N1    A    
C37   N2    A    
C27   Cl2   S    
C1    C30   S    
C33   C35   A    
C31   C39   A    
C9    C10   A    
C37   C41   A    
C10   C11   A    
C18   H4    S    
O10   H17   S    
O14   H21   S    
Cu1   Cu2   S    
C21   C24   A    
C42   N1    A    
Cu1   O7    S    
C19   O11   S    
C44   C48   A    
