data_mof_unit_22154.cif
_audit_creation_date              2013-03-05T15:55:17-0500
_audit_creation_method            fapswitch 2.2
_symmetry_space_group_name_H-M    P1
_symmetry_Int_Tables_number       1
_space_group_crystal_system       triclinic
_cell_length_a                    27.730977
_cell_length_b                    10.621318
_cell_length_c                    9.911241
_cell_angle_alpha                 89.959697
_cell_angle_beta                  90.169864
_cell_angle_gamma                 91.679246
_cell_volume                      2917.98513838

loop_
_atom_site_label
_atom_site_type_symbol
_atom_site_description
_atom_site_fract_x
_atom_site_fract_y
_atom_site_fract_z
_atom_type_partial_charge
O1    O     O_R   0.500000 0.316780 0.614690 -0.641263
O2    O     O_R   0.500000 0.316750 0.385360 -0.629324
C1    C     C_R   0.501262 0.260736 0.500082 0.855223
O3    O     O_R   0.428760 0.500030 0.614650 -0.633679
O4    O     O_R   0.428750 0.500010 0.385320 -0.638992
C2    C     C_R   0.406087 0.498580 0.499750 0.884955
Zn1   Zn    Zn3+2 0.500000 0.500020 0.653130 0.938630
Zn2   Zn    Zn3+2 0.500000 0.499980 0.346870 0.947781
O5    O     O_R   0.500000 0.683250 0.614640 -0.611386
O6    O     O_R   0.500000 0.683220 0.385310 -0.609738
O7    O     O_R   0.571250 0.499990 0.614680 -0.636766
O8    O     O_R   0.571240 0.499970 0.385350 -0.615320
C3    C     C_R   0.501408 0.739445 0.499926 0.878572
C4    C     C_R   0.593895 0.499953 0.500276 0.840882
C5    C     C_R   0.175918 0.366158 0.516591 0.578710
O9    O     O_2   0.199280 0.256774 0.526233 -0.537576
N1    N     N_R   0.201518 0.476962 0.501550 -0.339334
C6    C     C_R   0.179453 0.589910 0.493207 0.571261
C7    C     C_R   0.277727 0.486796 0.373195 0.364127
C8    C     C_R   0.328144 0.495306 0.375994 -0.286068
C9    C     C_R   0.328018 0.478875 0.620320 -0.195272
C10   C     C_R   0.278055 0.470834 0.619097 -0.135407
C11   C     C_R   0.252827 0.475414 0.496990 0.196491
C12   C     C_R   0.101728 0.481064 0.510186 -0.046227
C13   C     C_R   0.125493 0.366031 0.520756 -0.023668
C14   C     C_R   0.098604 0.253673 0.533478 -0.122065
C15   C     C_R   0.129146 0.594119 0.497075 -0.024605
C16   C     C_R   0.353375 0.491832 0.498869 -0.103857
H1    H     H_    0.346696 0.475206 0.716318 0.183862
H2    H     H_    0.258653 0.462923 0.713558 0.178111
H3    H     H_    0.116078 0.163922 0.539841 0.190441
C17   C     C_R   0.646533 0.498059 0.501423 -0.037697
C18   C     C_R   0.972577 0.371387 0.535751 0.046926
C19   C     C_R   0.976311 0.600368 0.490185 0.047927
C20   C     C_R   0.949225 0.486704 0.512383 0.071778
C21   C     C_R   0.943861 0.262546 0.565256 -0.212595
C22   C     C_R   0.893923 0.265664 0.565244 -0.134705
C23   C     C_R   0.870698 0.377328 0.536689 -0.021363
C24   C     C_R   0.898151 0.488314 0.510764 -0.051468
C25   C     C_R   0.874400 0.600864 0.482904 -0.020454
C26   C     C_R   0.823969 0.600217 0.481058 0.503131
N2    N     N_R   0.798235 0.491240 0.506229 -0.357811
C27   C     C_R   0.820320 0.380920 0.533938 0.504581
C28   C     C_R   0.721415 0.483760 0.625572 -0.106732
C29   C     C_R   0.671394 0.486378 0.624282 -0.240524
C30   C     C_R   0.672381 0.507089 0.380032 -0.207809
C31   C     C_R   0.722449 0.504677 0.381729 -0.101910
C32   C     C_R   0.746905 0.492973 0.504430 0.323626
O10   O     O_2   0.793525 0.275102 0.557758 -0.556780
C33   C     C_R   0.023583 0.368555 0.529193 0.047350
C34   C     C_R   0.050670 0.483049 0.512314 0.075774
C35   C     C_R   0.027328 0.599498 0.496943 0.047061
C36   C     C_R   0.048644 0.254569 0.537235 -0.206323
H4    H     H_    0.652288 0.478886 0.719231 0.162194
H5    H     H_    0.740465 0.474969 0.720500 0.139415
H6    H     H_    0.873554 0.179622 0.587768 0.192400
H7    H     H_    0.958744 0.173257 0.591351 0.142142
H8    H     H_    0.030798 0.163389 0.543389 0.138305
O11   O     O_2   0.206247 0.697491 0.480986 -0.534053
C37   C     C_R   0.105972 0.708609 0.488714 -0.118306
H9    H     H_    0.347727 0.503721 0.281883 0.205325
H10   H     H_    0.126358 0.796956 0.481469 0.194972
C38   C     C_R   0.951240 0.711116 0.459955 -0.212777
C39   C     C_R   0.901282 0.711139 0.456806 -0.137254
O12   O     O_2   0.800718 0.707580 0.455307 -0.555305
C40   C     C_R   0.056057 0.711586 0.489220 -0.206945
H11   H     H_    0.969061 0.799421 0.434932 0.142082
H12   H     H_    0.654019 0.516240 0.284081 0.160845
H13   H     H_    0.883797 0.798419 0.433260 0.190902
H14   H     H_    0.742316 0.511720 0.287992 0.139275
H15   H     H_    0.041213 0.804057 0.485764 0.139352
H16   H     H_    0.438857 0.109535 0.382415 0.144588
C41   C     C_R   0.582317 0.137475 0.624214 -0.175359
H17   H     H_    0.584340 0.239220 0.623759 0.153860
C42   C     C_R   0.620256 0.074631 0.684357 -0.112734
H18   H     H_    0.649945 0.127809 0.729963 0.153421
C43   C     C_R   0.620287 0.943611 0.684264 -0.119761
H19   H     H_    0.649995 0.894980 0.729835 0.149024
C44   C     C_R   0.582397 0.874985 0.623938 -0.190050
H20   H     H_    0.584479 0.773493 0.623188 0.143830
C45   C     C_R   0.543347 0.937304 0.563775 0.093428
C46   C     C_R   0.543295 0.069271 0.563940 0.097854
C47   C     C_R   0.504569 0.128706 0.499855 -0.088185
C48   C     C_R   0.468007 0.061872 0.432459 -0.208470
H21   H     H_    0.438953 0.881151 0.382183 0.163758
C49   C     C_R   0.468067 0.933282 0.432295 -0.185118
C50   C     C_R   0.504683 0.871998 0.499525 -0.102966
H22   H     H_    0.554498 0.640670 0.125572 0.147997
C51   C     C_R   0.436444 0.335739 0.139775 -0.160858
H23   H     H_    0.434389 0.329980 0.246740 0.198257
C52   C     C_R   0.405046 0.254969 0.069430 -0.167916
H24   H     H_    0.380597 0.192003 0.123812 0.163584
C53   C     C_R   0.405091 0.254739 0.929770 -0.169437
H25   H     H_    0.380665 0.191604 0.875226 0.166738
C54   C     C_R   0.436529 0.335291 0.859637 -0.161906
H26   H     H_    0.434541 0.329109 0.752642 0.203658
C55   C     C_R   0.468702 0.418907 0.927526 0.171772
C56   C     C_R   0.468683 0.419042 0.072136 0.173700
N3    N     N_R   0.499540 0.498800 0.142780 -0.121933
C57   C     C_R   0.529989 0.577411 0.071679 -0.108839
H27   H     H_    0.554451 0.640687 0.874860 0.144252
C58   C     C_R   0.529969 0.577404 0.928543 -0.110643
N4    N     N_R   0.499520 0.498720 0.857170 -0.121528
N5    N     N_R   0.252697 0.490618 0.245486 0.217990
O13   O     O_R   0.274548 0.534955 0.138748 -0.379726
O14   O     O_R   0.209325 0.442118 0.232069 -0.375338

loop_
_geom_bond_atom_site_label_1
_geom_bond_atom_site_label_2
_geom_bond_distance
_ccdc_geom_bond_type
C53   H25   1.082795 S    
C26   N2    1.365103 A    
C20   C24   1.416968 A    
C54   H26   1.063705 S    
C12   C15   1.408470 A    
N5    O14   1.300957 A    
C55   C56   1.433264 A    
C43   H19   1.082543 S    
Zn1   O7    2.013366 S    
N1    C11   1.424283 S    
C47   C48   1.390173 A    
C21   C22   1.386206 A    
Zn2   N3    2.022833 S    
C48   C49   1.365842 A    
C15   C37   1.394247 A    
C23   C24   1.408316 A    
O7    C4    1.297791 A    
C5    C13   1.399035 A    
C52   C53   1.384215 A    
C5    O9    1.349906 S    
C18   C21   1.415281 A    
C37   H10   1.083664 S    
C19   C20   1.420391 A    
C41   H17   1.080483 S    
C8    H9    1.083040 S    
O5    C3    1.283898 A    
C22   H6    1.083639 S    
C2    C16   1.461407 S    
C40   H15   1.076497 S    
C51   C52   1.390554 A    
C12   C34   1.416874 A    
C37   C40   1.385506 A    
C14   H3    1.083670 S    
C53   C54   1.390784 A    
Zn1   N4    2.022407 S    
C9    C10   1.385673 A    
C41   C42   1.394498 A    
O3    Zn1   2.010927 S    
N5    O13   1.301723 A    
C45   C46   1.401713 A    
C43   C44   1.394560 A    
C38   H11   1.076410 S    
H16   C48   1.084890 S    
C33   C36   1.415599 A    
C34   C35   1.420567 A    
H27   C58   1.081983 S    
C12   C13   1.408794 A    
O3    C2    1.299091 A    
C21   H7    1.076376 S    
C52   H24   1.082839 S    
C44   C45   1.415630 A    
C49   C50   1.390277 A    
C27   O10   1.350118 S    
C26   O12   1.350168 S    
C8    C16   1.403728 A    
C33   C34   1.420562 A    
C18   C33   1.417323 A    
H21   C49   1.084857 S    
C9    H1    1.083176 S    
C44   H20   1.081235 S    
O1    C1    1.283845 A    
C7    C11   1.413062 A    
C42   H18   1.082616 S    
C31   H14   1.082942 S    
C30   H12   1.083059 S    
C22   C23   1.394556 A    
C55   N4    1.376768 A    
C7    N5    1.442899 S    
C31   C32   1.397913 A    
Zn2   O8    2.010924 S    
C3    C50   1.408155 S    
C57   C58   1.418646 A    
N1    C6    1.364911 A    
C17   C29   1.404740 A    
N2    C32   1.424145 S    
C39   H13   1.083660 S    
C42   C43   1.391634 A    
H22   C57   1.081796 S    
C25   C26   1.398387 A    
C9    C16   1.400534 A    
O8    C4    1.299193 A    
C29   H4    1.083072 S    
C56   N3    1.376550 A    
C1    C47   1.408010 S    
N2    C27   1.365329 A    
C14   C36   1.386351 A    
C41   C46   1.415442 A    
C24   C25   1.408440 A    
C35   C40   1.415113 A    
C28   C29   1.388237 A    
C5    N1    1.364795 A    
C30   C31   1.389473 A    
C10   H2    1.083182 S    
O1    Zn1   1.983453 S    
C17   C30   1.404086 A    
O2    Zn2   1.982916 S    
C6    C15   1.397727 A    
C4    C17   1.460447 S    
O6    C3    1.283726 A    
O4    Zn2   2.013368 S    
C36   H8    1.076356 S    
C54   C55   1.410070 A    
C19   C35   1.416457 A    
C25   C39   1.394274 A    
N3    C57   1.366790 A    
C51   C56   1.409931 A    
C7    C8    1.398583 A    
O2    C1    1.283772 A    
C13   C14   1.394372 A    
C23   C27   1.398831 A    
C45   C50   1.410387 A    
C28   H5    1.082973 S    
O4    C2    1.298122 A    
C19   C38   1.415282 A    
C18   C20   1.420701 A    
C58   N4    1.366663 A    
C38   C39   1.385647 A    
Zn1   O5    1.982919 S    
C6    O11   1.350175 S    
Zn2   O6    1.983453 S    
C46   C47   1.410782 A    
C10   C11   1.397630 A    
C51   H23   1.063478 S    
C28   C32   1.397010 A    
