data_mof_unit_66484.cif
_audit_creation_date              2012-10-26T21:25:39-0400
_audit_creation_method            fapswitch 2.2
_symmetry_space_group_name_H-M    P1
_symmetry_Int_Tables_number       1
_space_group_crystal_system       triclinic
_cell_length_a                    16.009695
_cell_length_b                    14.771444
_cell_length_c                    14.367169
_cell_angle_alpha                 89.99786
_cell_angle_beta                  89.984602
_cell_angle_gamma                 89.998605
_cell_volume                      3397.63870113

loop_
_atom_site_label
_atom_site_type_symbol
_atom_type_description
_atom_site_fract_x
_atom_site_fract_y
_atom_site_fract_z
_atom_type_partial_charge
C1    C     C_1   0.251760 0.500001 0.500018 0.047607
C2    C     C_R   0.659175 0.499999 0.499982 0.544517
C3    C     C_R   0.499996 0.500001 0.330583 0.543215
C4    C     C_R   0.500004 0.499998 0.669417 0.542006
C5    C     C_1   0.500039 0.802589 0.500076 0.182709
C6    C     C_1   0.500016 0.197414 0.500032 0.130594
C7    C     C_1   0.499995 0.500001 0.228406 -0.012736
C8    C     C_1   0.500008 0.499995 0.771594 -0.015689
C9    C     C_1   0.499995 0.499998 0.143127 -0.012180
C10   C     C_1   0.500007 0.499994 0.856873 -0.013654
C11   C     C_1   0.499999 0.499996 0.042638 0.027553
C12   C     C_1   0.748239 0.499996 0.499990 0.046466
C13   C     C_1   0.500004 0.499995 0.957361 0.027377
C14   C     C_R   0.537130 0.952063 0.574139 0.121522
C15   C     C_R   0.463041 0.047891 0.426199 0.092574
C16   C     C_R   0.463173 0.951595 0.426464 0.132682
C17   C     C_R   0.537088 0.048039 0.574059 0.137359
C18   C     C_R   0.956383 0.582243 0.499913 0.372601
C19   C     C_R   0.043616 0.417751 0.500104 0.372306
C20   C     C_R   0.043610 0.582244 0.499914 0.373147
C21   C     C_R   0.956389 0.417749 0.500104 0.372764
C22   C     C_R   0.912741 0.499995 0.500007 -0.077327
C23   C     C_R   0.087259 0.499998 0.500009 -0.077430
C24   C     C_1   0.823237 0.499995 0.499999 0.098511
C25   C     C_1   0.176762 0.500000 0.500013 0.099018
C26   C     C_R   0.500131 0.902846 0.500261 -0.006316
C27   C     C_R   0.500045 0.097132 0.500091 -0.032111
C28   C     C_R   0.340825 0.500000 0.500021 0.545079
Cu1   Cu    Cu3+1 0.500000 0.589220 0.500000 1.040740
Cu2   Cu    Cu3+1 0.500000 0.410780 0.500000 1.024031
F1    F     F_    0.085479 0.662202 0.499820 -0.544992
F2    F     F_    0.914520 0.337791 0.500197 -0.546331
F3    F     F_    0.914509 0.662199 0.499821 -0.546141
F4    F     F_    0.085491 0.337794 0.500195 -0.547035
H1    H     H_    0.530382 0.136098 0.681689 0.238085
H2    H     H_    0.622813 0.136088 0.624191 0.250289
H3    H     H_    0.455103 0.921792 0.289384 0.263239
H4    H     H_    0.362725 0.921797 0.346843 0.274492
H5    H     H_    0.377291 0.135929 0.376018 0.258140
H6    H     H_    0.469737 0.135923 0.318510 0.246837
H7    H     H_    0.530483 0.864116 0.681865 0.236027
H8    H     H_    0.622909 0.864136 0.624372 0.248237
N1    N     N_1   0.500000 0.276710 0.500000 -0.177254
N2    N     N_1   0.500000 0.723290 0.500000 -0.170760
N3    N     N_3   0.575361 0.094708 0.650478 -0.545876
N4    N     N_3   0.425481 0.902674 0.351199 -0.587411
N5    N     N_3   0.424762 0.094560 0.349760 -0.614036
N6    N     N_3   0.575435 0.905513 0.650615 -0.549573
O1    O     O_R   0.380310 0.575320 0.500020 -0.474054
O2    O     O_R   0.619690 0.424680 0.499980 -0.478085
O3    O     O_R   0.619690 0.575320 0.499980 -0.480366
O4    O     O_R   0.380310 0.424680 0.500020 -0.478913
O5    O     O_R   0.500000 0.575360 0.376050 -0.468293
O6    O     O_R   0.500000 0.424640 0.623950 -0.476003
O7    O     O_R   0.500000 0.575360 0.623950 -0.479728
O8    O     O_R   0.500000 0.424640 0.376050 -0.477430

loop_
_geom_bond_atom_site_label_1
_geom_bond_atom_site_label_2
_ccdc_geom_bond_type
C1    C28   S    
C19   C23   A    
C19   F4    S    
Cu1   Cu2   S    
C28   O4    A    
H6    N5    S    
C9    C11   S    
C3    O8    A    
C12   C24   T    
C28   O1    A    
C15   C27   A    
C6    C27   S    
C20   C23   A    
C15   N5    S    
C4    C8    S    
C2    C12   S    
Cu2   O6    S    
Cu2   O2    S    
H2    N3    S    
Cu1   N2    S    
Cu1   O1    S    
C21   C22   A    
C14   C26   A    
C1    C25   T    
C3    O5    A    
C14   C17   A    
H8    N6    S    
Cu1   O5    S    
H5    N5    S    
C19   C21   A    
C5    N2    T    
C17   N3    S    
C10   C13   S    
C3    C7    S    
C6    N1    T    
C23   C25   S    
C4    O7    A    
C16   C26   A    
C18   F3    S    
C22   C24   S    
Cu2   N1    S    
H4    N4    S    
C2    O3    A    
C15   C16   A    
C17   C27   A    
C21   F2    S    
C11   C13   T    
C18   C20   A    
C8    C10   T    
Cu1   O3    S    
C16   N4    S    
C7    C9    T    
Cu2   O4    S    
C14   N6    S    
C2    O2    A    
C4    O6    A    
H3    N4    S    
C18   C22   A    
Cu1   O7    S    
Cu2   O8    S    
H7    N6    S    
C5    C26   S    
C20   F1    S    
H1    N3    S    
