data_mof_unit_10898.cif
_audit_creation_date              2013-03-05T16:15:21-0500
_audit_creation_method            fapswitch 2.2
_symmetry_space_group_name_H-M    P1
_symmetry_Int_Tables_number       1
_space_group_crystal_system       triclinic
_cell_length_a                    27.771594
_cell_length_b                    10.605886
_cell_length_c                    9.450866
_cell_angle_alpha                 90.399674
_cell_angle_beta                  89.821962
_cell_angle_gamma                 90.079159
_cell_volume                      2783.59663708

loop_
_atom_site_label
_atom_site_type_symbol
_atom_site_description
_atom_site_fract_x
_atom_site_fract_y
_atom_site_fract_z
_atom_type_partial_charge
O1    O     O_R   0.500020 0.316850 0.620870 -0.590136
O2    O     O_R   0.499980 0.683150 0.379130 -0.590050
O3    O     O_R   0.500000 0.316860 0.379090 -0.580765
O4    O     O_R   0.500000 0.683140 0.620910 -0.581536
C1    C     C_R   0.499976 0.259523 0.499474 0.767740
C2    C     C_R   0.499974 0.740465 0.500541 0.766918
O5    O     O_R   0.430270 0.500020 0.620880 -0.511459
O6    O     O_R   0.569730 0.499980 0.379120 -0.512557
O7    O     O_R   0.430250 0.500030 0.379090 -0.600562
O8    O     O_R   0.569750 0.499970 0.620910 -0.600162
C3    C     C_R   0.407637 0.501601 0.500067 0.822579
C4    C     C_R   0.592313 0.498929 0.499895 0.822719
Cu1   Cu    Cu3+1 0.500010 0.499990 0.643150 0.962912
Cu2   Cu    Cu3+1 0.499990 0.500010 0.356850 0.962803
C5    C     C_R   0.177516 0.392412 0.502802 0.544182
C6    C     C_R   0.821717 0.603363 0.462424 0.546195
O9    O     O_2   0.202240 0.283079 0.507975 -0.539736
O10   O     O_2   0.796804 0.704390 0.416963 -0.537177
N1    N     N_R   0.201742 0.504841 0.496652 -0.452992
N2    N     N_R   0.797661 0.497816 0.505818 -0.455964
C7    C     C_R   0.177412 0.617081 0.493186 0.553486
C8    C     C_R   0.821822 0.393420 0.551273 0.555602
C9    C     C_R   0.278556 0.567983 0.605111 -0.191860
C10   C     C_R   0.721447 0.425212 0.402640 -0.190195
C11   C     C_R   0.328909 0.571427 0.604906 0.457648
C12   C     C_R   0.671059 0.422958 0.401293 0.461159
C13   C     C_R   0.329513 0.443372 0.390490 -0.302344
C14   C     C_R   0.670097 0.566658 0.603197 -0.300176
C15   C     C_R   0.279313 0.444122 0.388835 -0.095506
C16   C     C_R   0.720265 0.567094 0.604761 -0.099307
C17   C     C_R   0.253543 0.505319 0.496904 0.277854
C18   C     C_R   0.746056 0.496845 0.504250 0.289042
C19   C     C_R   0.101366 0.504735 0.505204 -0.049027
C20   C     C_R   0.897875 0.500410 0.511029 -0.047797
C21   C     C_R   0.126975 0.390247 0.506074 -0.009545
C22   C     C_R   0.872232 0.606782 0.464477 -0.013031
C23   C     C_R   0.101646 0.276299 0.508535 -0.166681
C24   C     C_R   0.897505 0.712926 0.418371 -0.166976
C25   C     C_R   0.126878 0.619075 0.498708 -0.047566
C26   C     C_R   0.872385 0.392679 0.554362 -0.049504
C27   C     C_R   0.354726 0.504933 0.499491 -0.141537
C28   C     C_R   0.645130 0.496557 0.500424 -0.138330
H1    H     H_    0.348676 0.393605 0.307208 0.171459
H2    H     H_    0.650738 0.622499 0.681081 0.169000
H3    H     H_    0.260395 0.396593 0.303782 0.163688
H4    H     H_    0.739182 0.622140 0.683957 0.155356
H5    H     H_    0.120316 0.186772 0.502714 0.185043
H6    H     H_    0.878779 0.793862 0.376163 0.187349
C29   C     C_R   0.974491 0.390519 0.548835 0.039329
C30   C     C_R   0.024789 0.619992 0.498274 0.039438
C31   C     C_R   0.973991 0.614716 0.480643 0.066333
C32   C     C_R   0.025236 0.388979 0.527929 0.068307
C33   C     C_R   0.948934 0.501842 0.513792 0.011293
C34   C     C_R   0.050316 0.504691 0.510660 0.010575
C35   C     C_R   0.948049 0.286678 0.604484 0.129381
C36   C     C_R   0.051316 0.734992 0.505522 0.134426
C37   C     C_R   0.897691 0.288216 0.603786 -0.196012
C38   C     C_R   0.101651 0.732947 0.502226 -0.194588
O11   O     O_2   0.796963 0.291051 0.594117 -0.542613
O12   O     O_2   0.202038 0.726508 0.483401 -0.546848
C39   C     C_R   0.051683 0.275632 0.517290 -0.163517
C40   C     C_R   0.947474 0.716312 0.424790 -0.162476
H7    H     H_    0.741467 0.370398 0.325342 0.159897
H8    H     H_    0.258862 0.616131 0.688490 0.167710
H9    H     H_    0.878500 0.207296 0.645054 0.190261
H10   H     H_    0.120904 0.821879 0.505838 0.189090
H11   H     H_    0.034375 0.184874 0.508620 0.169960
H12   H     H_    0.964743 0.797340 0.378579 0.173788
C41   C     C_3   0.539662 0.042884 0.565377 -0.173088
C42   C     C_3   0.460212 0.957047 0.434748 -0.171459
C43   C     C_3   0.539334 0.957445 0.432137 -0.178537
C44   C     C_3   0.460548 0.042519 0.567973 -0.176988
H13   H     H_    0.571587 0.919634 0.376711 0.128729
H14   H     H_    0.428302 0.080347 0.623417 0.128788
H15   H     H_    0.572114 0.080940 0.619132 0.124515
H16   H     H_    0.427729 0.918738 0.381348 0.125227
C45   C     C_3   0.499975 0.877452 0.501540 0.032754
C46   C     C_3   0.499913 0.122511 0.498551 0.032263
C47   C     C_3   0.500310 0.960621 0.634886 -0.137818
C48   C     C_3   0.499566 0.039323 0.365209 -0.138072
H17   H     H_    0.500810 0.926409 0.745555 0.120951
H18   H     H_    0.499076 0.073553 0.254543 0.121146
C49   C     C_3   0.512548 0.609933 0.051792 -0.139216
C50   C     C_3   0.487485 0.390013 0.948234 -0.138398
C51   C     C_3   0.470754 0.580854 0.952446 0.299615
C52   C     C_3   0.529284 0.419123 0.047641 0.295869
H19   H     H_    0.522291 0.702620 0.098973 0.128453
H20   H     H_    0.477732 0.297333 0.901058 0.128162
N3    N     N_3   0.500040 0.499970 0.858290 -0.163816
N4    N     N_3   0.499960 0.500030 0.141710 -0.163949
C53   C     C_3   0.542600 0.527059 0.949082 -0.074433
C54   C     C_3   0.457417 0.472911 0.050925 -0.073211
H21   H     H_    0.578472 0.547772 0.902552 0.133073
H22   H     H_    0.421538 0.452258 0.097432 0.131003
N5    N     N_3   0.437342 0.672625 0.895494 -0.497426
H23   H     H_    0.416876 0.707302 0.980139 0.193800
H24   H     H_    0.457697 0.748419 0.858479 0.196916
N6    N     N_3   0.562827 0.327700 0.104905 -0.495418
H25   H     H_    0.583391 0.293113 0.020424 0.195830
H26   H     H_    0.542574 0.251742 0.141977 0.198259
O13   O     O_3   0.647509 0.349911 0.301601 -0.552079
C55   C     C_3   0.640499 0.228624 0.358465 -0.276065
H27   H     H_    0.617373 0.232261 0.454775 0.133176
H28   H     H_    0.675446 0.182257 0.382502 0.168173
H29   H     H_    0.621700 0.169173 0.278928 0.185812
O14   O     O_3   0.352525 0.640451 0.707944 -0.552292
C56   C     C_3   0.357287 0.765534 0.659695 -0.271632
H30   H     H_    0.321533 0.809359 0.639836 0.172308
H31   H     H_    0.380127 0.769869 0.562789 0.135256
H32   H     H_    0.375297 0.822714 0.742779 0.184155
N7    N     N_3   0.971477 0.184757 0.675330 -0.607361
H33   H     H_    0.959553 0.183545 0.780377 0.233603
H34   H     H_    0.960703 0.100213 0.627260 0.222698
N8    N     N_3   0.028075 0.853660 0.531074 -0.615523
H35   H     H_    0.040466 0.889985 0.627480 0.233580
H36   H     H_    0.038540 0.916054 0.451417 0.208673

loop_
_geom_bond_atom_site_label_1
_geom_bond_atom_site_label_2
_geom_bond_distance
_ccdc_geom_bond_type
C49   H19   1.110077 S    
O13   C55   1.410584 S    
C13   C15   1.394288 A    
N5    H23   1.044942 S    
N1    C17   1.438616 S    
N8    H35   1.045792 S    
C5    N1    1.369805 A    
C30   C34   1.420074 A    
O1    C1    1.294692 A    
N1    C7    1.370254 A    
C10   C12   1.399636 A    
C44   C47   1.545458 S    
C52   C53   1.525265 S    
C12   O13   1.381260 S    
C46   C48   1.533350 S    
O14   C56   1.411705 S    
C55   H29   1.109096 S    
C14   C28   1.403443 A    
O4    Cu1   1.955264 S    
C41   C43   1.546285 S    
C39   H11   1.078037 S    
Cu2   N4    2.033265 S    
C4    C28   1.467068 S    
C38   H10   1.083951 S    
N7    H33   1.045744 S    
C44   C46   1.531710 S    
C56   H30   1.113944 S    
C41   H15   1.110052 S    
C23   H5    1.083471 S    
C24   H6    1.083388 S    
O6    C4    1.304218 A    
Cu1   N3    2.033265 S    
Cu1   Cu2   2.705785 S    
C42   C45   1.531288 S    
C56   H31   1.113611 S    
C41   C46   1.531344 S    
O2    C2    1.294761 A    
C31   C40   1.412285 A    
O2    Cu2   1.952281 S    
C5    C21   1.404017 A    
C43   C48   1.545507 S    
C51   C54   1.524983 S    
C32   C34   1.420405 A    
C11   O14   1.380961 S    
C45   C47   1.533261 S    
C42   C48   1.545558 S    
C7    O12   1.349852 S    
C48   H18   1.109621 S    
C52   N4    1.475365 S    
C11   C27   1.411063 A    
C8    O11   1.349699 S    
C43   H13   1.110245 S    
C51   N3    1.475128 S    
C2    C45   1.452836 S    
C29   C35   1.425553 A    
C25   C38   1.397192 A    
C14   H2    1.083498 S    
C30   C36   1.425378 A    
C15   H3    1.082816 S    
C31   C33   1.420238 A    
C9    C17   1.401332 A    
O5    C3    1.305306 A    
O7    Cu2   1.947513 S    
C10   C18   1.399612 A    
C53   H21   1.110009 S    
C13   C27   1.404148 A    
N4    C54   1.488853 S    
C7    C25   1.404384 A    
C6    N2    1.367563 A    
C29   C32   1.422567 A    
C8    C26   1.404635 A    
C54   H22   1.109974 S    
C30   C31   1.422044 A    
N7    H34   1.046107 S    
C19   C25   1.405244 A    
C55   H28   1.113379 S    
O7    C3    1.302763 A    
O3    Cu2   1.955263 S    
O8    C4    1.302384 A    
C44   H14   1.110241 S    
C9    H8    1.083209 S    
C49   C51   1.524999 S    
N2    C8    1.367906 A    
C10   H7    1.083144 S    
N6    H26   1.043819 S    
C35   C37   1.398671 A    
C42   H16   1.110192 S    
C56   H32   1.108803 S    
C20   C26   1.405996 A    
C41   C47   1.545316 S    
O4    C2    1.293599 A    
N3    C53   1.489212 S    
C50   N3    1.488297 S    
C43   C45   1.531527 S    
C23   C39   1.389752 A    
C12   C28   1.411638 A    
C47   H17   1.109597 S    
C35   N7    1.433471 S    
N2    C18   1.433317 S    
C19   C34   1.418531 A    
C5    O9    1.349681 S    
C49   N4    1.487921 S    
O6    Cu2   1.948844 S    
C26   C37   1.396781 A    
C21   C23   1.397793 A    
C16   H4    1.082838 S    
C50   H20   1.110071 S    
C50   C52   1.525502 S    
O3    C1    1.293784 A    
O8    Cu1   1.947513 S    
N8    H36   1.046035 S    
N5    H24   1.043824 S    
C49   C53   1.548039 S    
C40   H12   1.077993 S    
C32   C39   1.412450 A    
C22   C24   1.397344 A    
C15   C17   1.401473 A    
C6    C22   1.403503 A    
C16   C18   1.399220 A    
C51   N5    1.452922 S    
C29   C33   1.420089 A    
C14   C16   1.393368 A    
C19   C21   1.408118 A    
C36   C38   1.398334 A    
C3    C27   1.469905 S    
C20   C22   1.408739 A    
C9    C11   1.398800 A    
C55   H27   1.112840 S    
C52   N6    1.453889 S    
C13   H1    1.083392 S    
O5    Cu1   1.948844 S    
O1    Cu1   1.952283 S    
C20   C33   1.418381 A    
C6    O10   1.349683 S    
N6    H25   1.044910 S    
C36   N8    1.433867 S    
C42   C44   1.546374 S    
C50   C54   1.548312 S    
C24   C40   1.389622 A    
C1    C46   1.453098 S    
C37   H9    1.083894 S    
