data_mof_unit_40002.cif
_audit_creation_date              2012-10-26T20:48:46-0400
_audit_creation_method            fapswitch 2.2
_symmetry_space_group_name_H-M    P1
_symmetry_Int_Tables_number       1
_space_group_crystal_system       triclinic
_cell_length_a                    15.118849
_cell_length_b                    14.049507
_cell_length_c                    9.089852
_cell_angle_alpha                 90.05222
_cell_angle_beta                  94.269812
_cell_angle_gamma                 89.851413
_cell_volume                      1925.43114885

loop_
_atom_site_label
_atom_site_type_symbol
_atom_type_description
_atom_site_fract_x
_atom_site_fract_y
_atom_site_fract_z
_atom_type_partial_charge
C1    C     C_R   0.330443 0.500009 0.498747 0.534922
C2    C     C_R   0.579754 0.891309 0.523816 0.221226
C3    C     C_R   0.499600 0.499973 0.220865 0.548625
C4    C     C_R   0.500341 0.500022 0.779126 0.548135
C5    C     C_R   0.501295 0.054094 0.498921 0.018469
C6    C     C_R   0.501112 0.945343 0.499125 -0.001941
C7    C     C_1   0.499821 0.499937 0.065560 -0.069845
C8    C     C_1   0.500090 0.500007 0.934427 -0.070469
C9    C     C_R   0.092037 0.552772 0.389250 -0.117989
C10   C     C_R   0.906224 0.413372 0.520406 -0.121188
C11   C     C_R   0.903681 0.581253 0.458826 -0.121851
C12   C     C_R   0.669919 0.499770 0.498599 0.537624
C13   C     C_R   0.100504 0.441988 0.594720 -0.122153
C14   C     C_R   0.184114 0.554583 0.393004 -0.140077
C15   C     C_R   0.814392 0.414289 0.523426 -0.132876
C16   C     C_R   0.811774 0.581636 0.459012 -0.135361
C17   C     C_R   0.192545 0.442355 0.596178 -0.128025
C18   C     C_R   0.234404 0.499559 0.496587 0.020859
C19   C     C_R   0.766565 0.498731 0.494159 0.014526
C20   C     C_R   0.049336 0.497099 0.490990 0.032707
C21   C     C_R   0.951835 0.497157 0.489794 0.034104
C22   C     C_3   0.618037 0.254455 0.716085 -0.296490
C23   C     C_R   0.554101 0.207850 0.602111 0.120457
C24   C     C_3   0.348590 0.750135 0.361236 -0.304099
C25   C     C_3   0.382261 0.254327 0.283650 -0.291650
C26   C     C_3   0.647500 0.749833 0.651180 -0.296053
C27   C     C_3   0.562912 0.028495 0.828025 0.000426
C28   C     C_3   0.629691 0.994933 0.950729 -0.366377
C29   C     C_3   0.315037 0.951999 0.612646 -0.004432
C30   C     C_3   0.225928 0.002745 0.605863 -0.359796
C31   C     C_3   0.440673 0.028212 0.170280 -0.000907
C32   C     C_3   0.374932 0.990408 0.049426 -0.365008
C33   C     C_3   0.688656 0.948914 0.390800 -0.003429
C34   C     C_R   0.425983 0.793441 0.450010 0.113280
C35   C     C_3   0.778887 0.996899 0.400656 -0.360436
C36   C     C_R   0.446657 0.207793 0.397183 0.121181
C37   C     C_R   0.574045 0.792371 0.551571 0.113094
C38   C     C_R   0.552597 0.106778 0.606634 0.222217
C39   C     C_R   0.421842 0.892792 0.475771 0.223760
C40   C     C_R   0.449459 0.106763 0.391549 0.223819
Cu1   Cu    Cu3+1 0.500000 0.596430 0.500000 0.904066
Cu2   Cu    Cu3+1 0.500000 0.403570 0.500000 0.904391
H1    H     H_    0.054397 0.593997 0.305596 0.103582
H2    H     H_    0.596581 0.240273 0.828149 0.110311
H3    H     H_    0.685405 0.223905 0.708541 0.126215
H4    H     H_    0.369027 0.687964 0.297253 0.159518
H5    H     H_    0.295332 0.732706 0.434330 0.141814
H6    H     H_    0.320717 0.801490 0.277189 0.118523
H7    H     H_    0.373845 0.330905 0.293170 0.179232
H8    H     H_    0.403471 0.240019 0.171356 0.106830
H9    H     H_    0.315065 0.223804 0.291767 0.133906
H10   H     H_    0.627363 0.683882 0.704844 0.170330
H11   H     H_    0.707240 0.738800 0.590093 0.128735
H12   H     H_    0.941356 0.346926 0.541230 0.102028
H13   H     H_    0.665520 0.799613 0.743468 0.112297
H14   H     H_    0.520335 0.967124 0.792825 0.121782
H15   H     H_    0.521223 0.085853 0.872007 0.102058
H16   H     H_    0.666546 0.056752 0.000439 0.138842
H17   H     H_    0.595316 0.957828 0.037438 0.064336
H18   H     H_    0.677589 0.944469 0.906063 0.177050
H19   H     H_    0.364004 0.997324 0.677762 0.108404
H20   H     H_    0.308346 0.882649 0.670177 0.119614
H21   H     H_    0.174859 0.958964 0.543382 0.154364
H22   H     H_    0.205494 0.014486 0.719338 0.085775
H23   H     H_    0.936944 0.647141 0.435893 0.101394
H24   H     H_    0.231042 0.072744 0.550413 0.168855
H25   H     H_    0.485701 0.968969 0.207099 0.119805
H26   H     H_    0.479902 0.086514 0.123993 0.103819
H27   H     H_    0.334696 0.049883 0.999178 0.139419
H28   H     H_    0.410553 0.954547 0.962692 0.064606
H29   H     H_    0.330042 0.937805 0.096104 0.175266
H30   H     H_    0.641176 0.996101 0.325651 0.110224
H31   H     H_    0.694333 0.879738 0.332020 0.114903
H32   H     H_    0.828521 0.951119 0.463097 0.151963
H33   H     H_    0.800482 0.008849 0.288017 0.086557
H34   H     H_    0.069604 0.399674 0.676068 0.102681
H35   H     H_    0.774900 0.066622 0.457598 0.168596
H36   H     H_    0.215953 0.596914 0.312751 0.094999
H37   H     H_    0.781004 0.348923 0.549051 0.118848
H38   H     H_    0.776310 0.646640 0.430232 0.117775
H39   H     H_    0.231176 0.399506 0.676696 0.116060
H40   H     H_    0.626324 0.330964 0.706580 0.177227
N1    N     N_R   0.500000 0.258690 0.500000 -0.259201
N2    N     N_R   0.500000 0.741310 0.500000 -0.261323
O1    O     O_R   0.371460 0.581430 0.500010 -0.509838
O2    O     O_3   0.340083 0.937604 0.467774 -0.515281
O3    O     O_3   0.392920 0.060945 0.287611 -0.518328
O4    O     O_3   0.662067 0.934416 0.534615 -0.514386
O5    O     O_R   0.628540 0.418570 0.499990 -0.513739
O6    O     O_R   0.628540 0.581430 0.499990 -0.513838
O7    O     O_R   0.371460 0.418570 0.500010 -0.512386
O8    O     O_R   0.500000 0.581420 0.288390 -0.498236
O9    O     O_R   0.500000 0.418580 0.711610 -0.506872
O10   O     O_R   0.500000 0.581420 0.711610 -0.498994
O11   O     O_R   0.500000 0.418580 0.288390 -0.505494
O12   O     O_3   0.609822 0.061102 0.709867 -0.518062

loop_
_geom_bond_atom_site_label_1
_geom_bond_atom_site_label_2
_ccdc_geom_bond_type
C35   H32   S    
C30   H22   S    
Cu2   O9    S    
Cu1   Cu2   S    
C14   C18   A    
C4    C8    S    
C26   H13   S    
C7    C8    T    
C31   H25   S    
C35   H33   S    
C1    C18   S    
C23   N1    A    
C22   H40   S    
C40   O3    S    
C12   O6    A    
C33   O4    S    
C3    C7    S    
C10   C15   A    
C5    C6    S    
C36   N1    A    
Cu2   O7    S    
C25   H8    S    
C33   H30   S    
C15   H37   S    
Cu1   O10   S    
C37   N2    A    
C2    O4    S    
Cu1   O6    S    
C1    O7    A    
C5    C38   A    
C27   O12   S    
C2    C6    A    
C34   N2    A    
C32   H29   S    
C28   H18   S    
C10   C21   A    
C1    O1    A    
C31   H26   S    
C29   H19   S    
C9    H1    S    
C31   O3    S    
Cu2   O11   S    
C24   H6    S    
C12   O5    A    
C36   C40   A    
C27   H15   S    
C27   H14   S    
C32   H28   S    
Cu1   N2    S    
C35   H35   S    
C24   C34   S    
C34   C39   A    
C3    O8    A    
C16   H38   S    
C15   C19   A    
C9    C14   A    
C25   H9    S    
C29   C30   S    
C26   H10   S    
C11   C16   A    
C9    C20   A    
C31   C32   S    
C13   H34   S    
Cu1   O8    S    
C17   C18   A    
C29   O2    S    
C30   H24   S    
C4    O10   A    
C33   H31   S    
C26   H11   S    
C28   H17   S    
C29   H20   S    
C22   H2    S    
C13   C20   A    
C22   C23   S    
C24   H5    S    
Cu2   N1    S    
C26   C37   S    
C32   H27   S    
C28   H16   S    
C23   C38   A    
Cu1   O1    S    
C13   C17   A    
Cu2   O5    S    
C24   H4    S    
C2    C37   A    
C16   C19   A    
C12   C19   S    
C33   C35   S    
C11   C21   A    
C17   H39   S    
C14   H36   S    
C10   H12   S    
C25   H7    S    
C25   C36   S    
C4    O9    A    
C22   H3    S    
C20   C21   S    
C5    C40   A    
C38   O12   S    
C27   C28   S    
C6    C39   A    
C3    O11   A    
C39   O2    S    
C30   H21   S    
C11   H23   S    
