data_mof_unit_14393.cif
_audit_creation_date              2012-10-26T18:40:21-0400
_audit_creation_method            fapswitch 2.2
_symmetry_space_group_name_H-M    P1
_symmetry_Int_Tables_number       1
_space_group_crystal_system       triclinic
_cell_length_a                    8.749956
_cell_length_b                    15.161444
_cell_length_c                    13.933174
_cell_angle_alpha                 90.206122
_cell_angle_beta                  96.130281
_cell_angle_gamma                 91.487102
_cell_volume                      1837.17574748

loop_
_atom_site_label
_atom_site_type_symbol
_atom_type_description
_atom_site_fract_x
_atom_site_fract_y
_atom_site_fract_z
_atom_type_partial_charge
C1    C     C_R   0.502070 0.329809 0.499558 0.540627
C2    C     C_R   0.642851 0.524103 0.899280 -0.025264
C3    C     C_R   0.513832 0.489545 0.055482 0.023012
C4    C     C_R   0.516574 0.491167 0.946517 0.023137
C5    C     C_R   0.205026 0.497571 0.476848 0.570039
C6    C     C_R   0.795015 0.504113 0.523011 0.567554
C7    C     C_2   0.042617 0.480442 0.469211 -0.021242
C8    C     C_2   0.957364 0.523067 0.529550 -0.027478
C9    C     C_R   0.435694 0.095882 0.575511 -0.130556
C10   C     C_R   0.428771 0.902310 0.420051 -0.132643
C11   C     C_R   0.442768 0.187497 0.574534 -0.145957
C12   C     C_R   0.501994 0.670155 0.500840 0.540052
C13   C     C_R   0.435724 0.810936 0.420809 -0.153735
C14   C     C_R   0.500968 0.232717 0.497884 0.026720
C15   C     C_R   0.500183 0.767003 0.503286 0.026053
C16   C     C_R   0.554807 0.183815 0.421398 -0.008136
C17   C     C_R   0.558123 0.816694 0.586815 -0.003917
C18   C     C_R   0.545941 0.091766 0.423513 -0.098941
C19   C     C_R   0.549364 0.908544 0.584741 -0.097557
C20   C     C_R   0.486584 0.047816 0.499778 0.015840
C21   C     C_R   0.485575 0.951343 0.501963 0.016491
C22   C     C_3   0.981643 0.404024 0.404302 -0.392189
C23   C     C_R   0.568524 0.563812 0.109300 -0.138518
C24   C     C_3   0.016711 0.603257 0.589335 -0.396209
C25   C     C_3   0.624822 0.226364 0.338132 -0.383709
C26   C     C_3   0.632995 0.775029 0.677664 -0.386394
C27   C     C_3   0.659110 0.642580 0.261038 -0.335381
C28   C     C_3   0.250484 0.409279 0.732863 -0.338319
C29   C     C_3   0.401276 0.331303 0.060882 -0.433689
C30   C     C_3   0.798133 0.546565 0.952494 -0.431320
C31   C     C_R   0.384924 0.463572 0.887376 -0.139920
C32   C     C_R   0.571590 0.566120 0.210351 0.137626
C33   C     C_R   0.382163 0.461122 0.786327 0.136644
C34   C     C_R   0.436852 0.428827 0.207153 0.047556
C35   C     C_R   0.626991 0.532339 0.797342 0.047380
C36   C     C_R   0.449801 0.419035 0.107027 -0.024855
Cu1   Cu    Cu3+1 0.500000 0.499990 0.596430 0.908975
Cu2   Cu    Cu3+1 0.500000 0.500010 0.403570 0.908023
H1    H     H_    0.389616 0.062425 0.635117 0.107870
H2    H     H_    0.919135 0.355655 0.446354 0.118869
H3    H     H_    0.905332 0.427940 0.341577 0.158575
H4    H     H_    0.921274 0.637730 0.618555 0.110738
H5    H     H_    0.098397 0.585038 0.651699 0.151468
H6    H     H_    0.073951 0.651102 0.543686 0.129503
H7    H     H_    0.715216 0.275458 0.365038 0.145461
H8    H     H_    0.679364 0.177401 0.294044 0.105650
H9    H     H_    0.534280 0.258270 0.289841 0.139005
H10   H     H_    0.725105 0.730864 0.659951 0.130511
H11   H     H_    0.686711 0.825227 0.729891 0.104432
H12   H     H_    0.378462 0.934849 0.355599 0.107258
H13   H     H_    0.545836 0.737386 0.714372 0.157812
H14   H     H_    0.726359 0.621940 0.328329 0.181313
H15   H     H_    0.744767 0.671415 0.215828 0.071711
H16   H     H_    0.579228 0.695748 0.274114 0.133231
H17   H     H_    0.284516 0.374461 0.669407 0.180937
H18   H     H_    0.208606 0.356458 0.779423 0.072970
H19   H     H_    0.152483 0.452375 0.712717 0.128201
H20   H     H_    0.380816 0.377025 0.244622 0.122945
H21   H     H_    0.721335 0.561014 0.762884 0.127036
H22   H     H_    0.273901 0.325931 0.048902 0.122209
H23   H     H_    0.400833 0.223033 0.633574 0.117066
H24   H     H_    0.450502 0.321334 0.991695 0.145880
H25   H     H_    0.443607 0.276952 0.109056 0.116273
H26   H     H_    0.815114 0.619309 0.957561 0.119017
H27   H     H_    0.812437 0.517553 0.025717 0.146180
H28   H     H_    0.890051 0.519145 0.912890 0.123419
H29   H     H_    0.388486 0.774487 0.357001 0.120281
H30   H     H_    0.588160 0.053727 0.366278 0.104991
H31   H     H_    0.595524 0.947362 0.647189 0.105464
H32   H     H_    0.613002 0.620235 0.072588 0.104350
H33   H     H_    0.284600 0.440231 0.920044 0.105016
H34   H     H_    0.076375 0.368422 0.375268 0.123734
N1    N     N_R   0.500000 0.500020 0.258690 -0.221089
N2    N     N_R   0.500000 0.499980 0.741310 -0.221570
O1    O     O_R   0.500010 0.371450 0.581430 -0.511806
O2    O     O_R   0.499990 0.628550 0.418570 -0.517373
O3    O     O_R   0.500010 0.371460 0.418560 -0.516989
O4    O     O_R   0.499990 0.628540 0.581440 -0.504284
O5    O     O_R   0.274840 0.499990 0.562640 -0.516093
O6    O     O_R   0.725160 0.500010 0.437360 -0.515893
O7    O     O_R   0.274840 0.500000 0.399770 -0.493718
O8    O     O_R   0.725160 0.500000 0.600230 -0.510357

loop_
_geom_bond_atom_site_label_1
_geom_bond_atom_site_label_2
_ccdc_geom_bond_type
C2    C35   A    
Cu1   N2    S    
C29   H25   S    
C35   N2    A    
C6    O8    A    
C30   H26   S    
C1    O3    A    
C3    C23   A    
C28   H18   S    
C27   H16   S    
C7    C8    D    
Cu2   O2    S    
C28   H19   S    
Cu1   O5    S    
C29   C36   S    
C17   C26   S    
C19   C21   A    
C11   C14   A    
C22   H3    S    
C18   H30   S    
C9    H1    S    
C24   H4    S    
C35   H21   S    
C17   C19   A    
C12   O4    A    
C31   C33   A    
C5    O5    A    
C25   H9    S    
C34   C36   A    
C26   H10   S    
C4    C31   A    
C31   H33   S    
Cu1   O1    S    
C23   H32   S    
C22   H34   S    
C28   H17   S    
C10   C21   A    
C1    O1    A    
C26   H11   S    
C32   N1    A    
C5    C7    S    
C6    C8    S    
C2    C4    A    
Cu1   Cu2   S    
C5    O7    A    
C9    C20   A    
C6    O6    A    
C29   H22   S    
C22   H2    S    
C9    C11   A    
C30   H28   S    
C28   C33   S    
C12   C15   S    
C13   C15   A    
Cu2   O7    S    
C24   H6    S    
C14   C16   A    
Cu1   O8    S    
C19   H31   S    
C3    C4    S    
C10   H12   S    
C25   H7    S    
C27   H14   S    
C13   H29   S    
C16   C25   S    
C15   C17   A    
C29   H24   S    
C27   C32   S    
C11   H23   S    
C10   C13   A    
C27   H15   S    
Cu2   O3    S    
C7    C22   S    
Cu1   O4    S    
C2    C30   S    
C23   C32   A    
C12   O2    A    
C26   H13   S    
Cu2   O6    S    
C3    C36   A    
C8    C24   S    
C18   C20   A    
C30   H27   S    
C34   N1    A    
C33   N2    A    
C20   C21   S    
C16   C18   A    
C34   H20   S    
C24   H5    S    
C1    C14   S    
C25   H8    S    
Cu2   N1    S    
