data_mof_unit_19430.cif
_audit_creation_date              2012-12-11T14:21:18-0500
_audit_creation_method            fapswitch 2.2
_symmetry_space_group_name_H-M    P1
_symmetry_Int_Tables_number       1
_space_group_crystal_system       triclinic
_cell_length_a                    21.977885
_cell_length_b                    7.204529
_cell_length_c                    14.912834
_cell_angle_alpha                 90.000197
_cell_angle_beta                  107.222723
_cell_angle_gamma                 90.000274
_cell_volume                      2255.42432969

loop_
_atom_site_label
_atom_site_type_symbol
_atom_type_description
_atom_site_fract_x
_atom_site_fract_y
_atom_site_fract_z
_atom_type_partial_charge
O1    O     O_R   0.584770 0.505770 0.002090 -0.536071
O2    O     O_R   0.415230 0.005770 0.997910 -0.536071
O3    O     O_R   0.467060 0.173340 0.861950 -0.529464
O4    O     O_R   0.532940 0.673340 0.138050 -0.529459
C1    C     C_R   0.455120 0.344100 0.825813 0.676651
C2    C     C_R   0.544879 0.844101 0.174187 0.676657
O5    O     O_R   0.587510 0.175890 0.993210 -0.539569
O6    O     O_R   0.412490 0.675890 0.006790 -0.539566
O7    O     O_R   0.536540 0.008150 0.130100 -0.539485
O8    O     O_R   0.463460 0.508150 0.869900 -0.539482
C3    C     C_R   0.612294 0.345165 0.994599 0.680069
C4    C     C_R   0.387706 0.845164 0.005401 0.680068
O9    O     O_3   0.483140 0.340040 0.044760 -0.373602
O10   O     O_3   0.516860 0.840040 0.955240 -0.373603
V1    V     V_3+5 0.503130 0.064190 0.991700 1.484187
V2    V     V_3+5 0.496870 0.564190 0.008300 1.484197
C5    C     C_2   0.213549 0.731426 0.999236 -0.086141
C6    C     C_2   0.786448 0.231427 0.000747 -0.086152
C7    C     C_2   0.177962 0.886950 0.987875 -0.256010
C8    C     C_2   0.822040 0.386944 0.012129 -0.256021
H1    H     H_    0.192927 0.599595 0.010300 0.162898
H2    H     H_    0.807066 0.099604 0.989663 0.162929
H3    H     H_    0.196562 0.016327 0.969602 0.145822
H4    H     H_    0.803445 0.516312 0.030422 0.145838
C9    C     C_2   0.279231 0.726364 0.989622 -0.151968
C10   C     C_2   0.720765 0.226356 0.010360 -0.151962
C11   C     C_2   0.323750 0.860889 0.019040 -0.178563
C12   C     C_2   0.676251 0.360897 0.980964 -0.178572
H5    H     H_    0.291852 0.601197 0.958598 0.145684
H6    H     H_    0.708140 0.101167 0.041360 0.145698
C13   C     C_R   0.927953 0.882923 0.722689 -0.114097
C14   C     C_R   0.072047 0.382926 0.277311 -0.114093
C15   C     C_R   0.572314 0.847894 0.276483 -0.157487
C16   C     C_R   0.427685 0.347891 0.723516 -0.157489
C17   C     C_R   0.940546 0.823614 0.569608 -0.157952
C18   C     C_R   0.059453 0.323589 0.430389 -0.157951
C19   C     C_R   0.967063 0.839660 0.666459 -0.048103
C20   C     C_R   0.032938 0.339630 0.333538 -0.048105
C21   C     C_R   0.861838 0.903640 0.681394 -0.094846
C22   C     C_R   0.138160 0.403674 0.318610 -0.094859
C23   C     C_R   0.833450 0.855741 0.585075 0.032767
C24   C     C_R   0.166549 0.355766 0.414926 0.032766
C25   C     C_R   0.873921 0.831746 0.527418 0.029493
C26   C     C_R   0.126078 0.331750 0.472582 0.029507
C27   C     C_R   0.766584 0.829426 0.544653 -0.016984
C28   C     C_R   0.233414 0.329459 0.455346 -0.016990
C29   C     C_R   0.739127 0.829051 0.445211 0.032070
C30   C     C_R   0.260872 0.329073 0.554788 0.032073
C31   C     C_R   0.780390 0.811172 0.387797 0.292616
C32   C     C_R   0.219610 0.311179 0.612203 0.292637
C33   C     C_R   0.847401 0.810312 0.429339 -0.122076
C34   C     C_R   0.152598 0.310321 0.570661 -0.122083
C35   C     C_R   0.727365 0.782640 0.601064 -0.121362
C36   C     C_R   0.272632 0.282683 0.398932 -0.121353
C37   C     C_R   0.662104 0.762659 0.563305 -0.141368
C38   C     C_R   0.337893 0.262683 0.436691 -0.141361
C39   C     C_R   0.633170 0.791240 0.467939 0.030285
C40   C     C_R   0.366828 0.291250 0.532058 0.030276
C41   C     C_R   0.670811 0.831133 0.407738 0.110754
C42   C     C_R   0.329188 0.331151 0.592260 0.110756
C43   C     C_R   0.566737 0.775996 0.432216 -0.142397
C44   C     C_R   0.433260 0.275987 0.567782 -0.142397
C45   C     C_R   0.535908 0.799363 0.336781 0.356114
C46   C     C_R   0.464090 0.299343 0.663218 0.356116
C47   C     C_R   0.638251 0.873013 0.313002 -0.192202
C48   C     C_R   0.361749 0.373032 0.686995 -0.192186
H7    H     H_    0.662775 0.926116 0.265575 0.174293
H8    H     H_    0.337226 0.426150 0.734421 0.174300
H9    H     H_    0.634039 0.725504 0.609407 0.149359
H10   H     H_    0.365956 0.225525 0.390587 0.149366
H11   H     H_    0.972601 0.798677 0.527940 0.133743
H12   H     H_    0.027398 0.298627 0.472055 0.133746
H13   H     H_    0.746978 0.748610 0.674496 0.149071
H14   H     H_    0.253017 0.248673 0.325498 0.149071
H15   H     H_    0.538494 0.742125 0.478558 0.148359
H16   H     H_    0.461502 0.242106 0.521440 0.148361
O11   O     O_R   0.036450 0.233070 0.130130 -0.540339
O12   O     O_R   0.963550 0.733070 0.869870 -0.540340
O13   O     O_R   0.912470 0.560570 0.006790 -0.543206
O14   O     O_R   0.087530 0.060570 0.993210 -0.543210
C49   C     C_R   0.887530 0.391807 0.004385 0.747770
C50   C     C_R   0.112471 0.891807 0.995616 0.747771
O15   O     O_R   0.032920 0.562940 0.138050 -0.534626
O16   O     O_R   0.967080 0.062940 0.861950 -0.534627
O17   O     O_R   0.084790 0.730500 0.002090 -0.536361
O18   O     O_R   0.915210 0.230500 0.997910 -0.536361
C51   C     C_R   0.044772 0.394237 0.174638 0.694875
C52   C     C_R   0.955229 0.894235 0.825362 0.694878
O19   O     O_3   0.016820 0.396170 0.955260 -0.378772
O20   O     O_3   0.983180 0.896170 0.044740 -0.378767
V3    V     V_3+5 0.996880 0.672090 0.008300 1.494691
V4    V     V_3+5 0.003120 0.172090 0.991700 1.494682
C53   C     C_1   0.035059 0.816020 0.706592 0.323466
N1    N     N_1   0.089476 0.796918 0.738726 -0.344672
C54   C     C_1   0.964943 0.315950 0.293403 0.323471
N2    N     N_1   0.910528 0.296815 0.261265 -0.344671
C55   C     C_1   0.825774 0.995411 0.735975 0.288344
N3    N     N_1   0.797269 0.069192 0.779620 -0.341889
C56   C     C_1   0.174221 0.495500 0.264041 0.288359
N4    N     N_1   0.202723 0.569329 0.220408 -0.341876
O21   O     O_3   0.754567 0.766276 0.293943 -0.654082
H17   H     H_    0.784157 0.800307 0.257949 0.298971
O22   O     O_3   0.245438 0.266273 0.706056 -0.654096
H18   H     H_    0.215834 0.300157 0.742050 0.298989
C57   C     C_1   0.312830 0.020921 0.071276 0.337047
N5    N     N_1   0.304405 0.148678 0.113165 -0.351542
C58   C     C_1   0.687179 0.520967 0.928761 0.337054
N6    N     N_1   0.695612 0.648755 0.886899 -0.351542
C59   C     C_1   0.888983 0.783040 0.370707 0.312272
N7    N     N_1   0.922134 0.761812 0.324001 -0.347165
C60   C     C_1   0.111015 0.283079 0.629292 0.312219
N8    N     N_1   0.077862 0.261877 0.675998 -0.347166
O23   O     O_3   0.470643 0.774297 0.306212 -0.635308
H19   H     H_    0.453721 0.811865 0.239621 0.275985
O24   O     O_3   0.529354 0.274253 0.693786 -0.635312
H20   H     H_    0.546276 0.311782 0.760384 0.275989

loop_
_geom_bond_atom_site_label_1
_geom_bond_atom_site_label_2
_ccdc_geom_bond_type
C40   C44   A    
O15   C51   A    
O11   V4    S    
O4    V2    S    
C53   N1    T    
C48   H8    S    
C54   N2    T    
C6    C10   S    
O2    C4    A    
C16   C48   A    
C22   C56   S    
C55   N3    T    
O17   V3    S    
C15   C47   A    
C29   C31   A    
C43   H15   S    
O5    C3    A    
O21   H17   S    
C17   C19   A    
C31   O21   S    
C39   C41   A    
C11   C57   S    
C12   C58   S    
C40   C42   A    
O24   H20   S    
C24   C28   A    
C27   C29   A    
C43   C45   A    
C44   C46   A    
C36   H14   S    
C8    H4    S    
C38   C40   A    
C31   C33   A    
O1    C3    A    
C20   C54   S    
C32   C34   A    
C58   N6    T    
C14   C20   A    
C7    C50   S    
C17   C25   A    
O13   V3    S    
C49   O18   A    
O6    C4    A    
C26   C34   A    
C30   C32   A    
C42   C48   A    
C32   O22   S    
C33   C59   S    
C46   O24   S    
C8    C49   S    
C23   C25   A    
C44   H16   S    
C24   C26   A    
C2    O7    A    
C30   C42   A    
C28   C30   A    
C35   C37   A    
C9    H5    S    
C36   C38   A    
C4    C11   S    
C21   C23   A    
O13   C49   A    
C34   C60   S    
C47   H7    S    
C14   C51   S    
C27   C35   A    
C5    H1    S    
C13   C19   A    
O14   V4    S    
C7    H3    S    
C56   N4    T    
C15   C45   A    
C1    C16   S    
C28   C36   A    
C16   C46   A    
C19   C53   S    
O1    V2    S    
O19   V4    S    
O2    V1    S    
C37   H9    S    
O14   C50   A    
C10   H6    S    
C38   H10   S    
C37   C39   A    
C18   C26   A    
O4    C2    A    
O3    V1    S    
O23   H19   S    
O12   C52   A    
C13   C52   S    
C60   N8    T    
C6    H2    S    
C35   H13   S    
O16   C52   A    
C22   C24   A    
O3    C1    A    
C39   C43   A    
O12   V3    S    
C9    C11   D    
C50   O17   A    
O15   V3    S    
C57   N5    T    
C10   C12   D    
C2    C15   S    
C5    C9    S    
C18   C20   A    
O7    V1    S    
C1    O8    A    
C17   H11   S    
O8    V2    S    
C59   N7    T    
C41   C47   A    
C25   C33   A    
O20   V3    S    
C3    C12   S    
O5    V1    S    
C5    C7    D    
C13   C21   A    
C6    C8    D    
C14   C22   A    
C21   C55   S    
C29   C41   A    
C45   O23   S    
O11   C51   A    
O6    V2    S    
O9    V2    S    
O22   H18   S    
C23   C27   A    
O10   V1    S    
O18   V4    S    
O16   V4    S    
C18   H12   S    
