data_mof_unit_11739.cif
_audit_creation_date              2012-12-11T15:20:33-0500
_audit_creation_method            fapswitch 2.2
_symmetry_space_group_name_H-M    P1
_symmetry_Int_Tables_number       1
_space_group_crystal_system       triclinic
_cell_length_a                    12.90635
_cell_length_b                    13.119044
_cell_length_c                    15.349968
_cell_angle_alpha                 115.981304
_cell_angle_beta                  63.790192
_cell_angle_gamma                 97.286535
_cell_volume                      2088.98468561

loop_
_atom_site_label
_atom_site_type_symbol
_atom_type_description
_atom_site_fract_x
_atom_site_fract_y
_atom_site_fract_z
_atom_type_partial_charge
C1    C     C_R   0.064551 0.821751 0.995769 -0.114658
C2    C     C_R   0.296803 0.600946 0.795271 0.152108
C3    C     C_R   0.258002 0.413135 0.045126 -0.158817
C4    C     C_R   0.678125 0.473475 0.220232 -0.128642
C5    C     C_R   0.034469 0.280501 0.685249 0.016638
C6    C     C_R   0.361056 0.428480 0.970170 0.140300
C7    C     C_R   0.002970 0.175180 0.682068 -0.083376
C8    C     C_R   0.295739 0.572317 0.698094 -0.017411
C9    C     C_R   0.979305 0.167218 0.073340 0.045473
C10   C     C_R   0.981340 0.997800 0.431064 -0.175782
C11   C     C_R   0.961666 0.087156 0.527737 -0.150420
C12   C     C_R   0.671827 0.545881 0.321570 0.043758
C13   C     C_R   0.010252 0.078519 0.589305 0.163207
C14   C     C_R   0.070722 0.979488 0.560435 -0.164554
C15   C     C_R   0.087511 0.888220 0.464660 -0.186932
C16   C     C_R   0.755221 0.515994 0.891789 -0.176461
C17   C     C_R   0.044789 0.899759 0.400200 0.147351
C18   C     C_R   0.587130 0.599894 0.513633 -0.177648
C19   C     C_R   0.495365 0.603369 0.604587 -0.135398
C20   C     C_R   0.383881 0.594365 0.610692 0.177349
C21   C     C_R   0.364524 0.586195 0.524785 -0.177416
C22   C     C_R   0.458586 0.578744 0.430489 -0.179293
C23   C     C_R   0.660222 0.458842 0.927272 0.145906
C24   C     C_R   0.570589 0.580966 0.423732 0.147379
C25   C     C_2   0.474987 0.386836 0.942571 -0.212426
C26   C     C_2   0.568390 0.431910 0.892763 -0.216606
C27   C     C_2   0.070086 0.914893 0.879372 -0.210541
C28   C     C_R   0.005282 0.705231 0.306213 -0.141977
C29   C     C_2   0.163739 0.971799 0.878992 -0.112534
C30   C     C_R   0.673923 0.423987 0.993739 -0.125726
C31   C     C_R   0.081249 0.807112 0.210799 -0.122440
C32   C     C_R   0.783138 0.560539 0.312610 -0.131327
C33   C     C_R   0.966999 0.740411 0.897506 0.018816
C34   C     C_R   0.050890 0.805365 0.307355 0.037657
C35   C     C_R   0.026069 0.835853 0.930912 0.079958
C36   C     C_R   0.828852 0.128644 0.811049 0.127601
C37   C     C_R   0.735742 0.166534 0.805530 -0.138814
C38   C     C_R   0.630860 0.116083 0.829645 -0.134139
C39   C     C_R   0.617843 0.027678 0.859985 -0.091937
C40   C     C_R   0.711222 0.986957 0.861943 -0.093116
C41   C     C_R   0.817922 0.033917 0.832938 -0.165129
C42   C     C_R   0.075375 0.310349 0.594105 0.108199
C43   C     C_R   0.184164 0.264292 0.507035 -0.129565
C44   C     C_R   0.220513 0.285992 0.416860 -0.108036
C45   C     C_R   0.338087 0.510509 0.946222 -0.083218
C46   C     C_R   0.147259 0.350934 0.411799 -0.122506
C47   C     C_R   0.037665 0.394362 0.496970 -0.107126
C48   C     C_R   0.001999 0.375201 0.588455 -0.176721
C49   C     C_R   0.936418 0.710770 0.807687 0.123181
C50   C     C_R   0.820509 0.723351 0.828304 -0.209733
C51   C     C_R   0.791755 0.703763 0.744623 -0.127392
C52   C     C_R   0.879101 0.680072 0.641652 -0.077433
C53   C     C_R   0.995196 0.674887 0.622061 -0.122378
C54   C     C_R   0.023728 0.689936 0.704575 -0.161322
C55   C     C_R   0.938654 0.184088 0.784491 0.004591
C56   C     C_R   0.200528 0.512520 0.696747 -0.179017
C57   C     C_R   0.037333 0.263215 0.102602 -0.125157
C58   C     C_R   0.933996 0.181413 0.012203 -0.110298
H1    H     H_    0.125437 0.871707 0.024580 0.127708
H2    H     H_    0.133474 0.809775 0.440523 0.116911
H3    H     H_    0.671624 0.599123 0.511811 0.105818
H4    H     H_    0.515047 0.600848 0.665098 0.138558
H5    H     H_    0.278894 0.578036 0.527377 0.112846
H6    H     H_    0.444471 0.565030 0.361797 0.113753
H7    H     H_    0.477473 0.342474 0.986908 0.129033
H8    H     H_    0.567630 0.472075 0.844561 0.137289
H9    H     H_    0.030279 0.921529 0.833101 0.139579
H10   H     H_    0.212421 0.967413 0.919632 0.150779
H11   H     H_    0.781174 0.531476 0.822251 0.118642
H12   H     H_    0.165244 0.496337 0.640924 0.140709
H13   H     H_    0.983027 0.674131 0.366453 0.088019
H14   H     H_    0.626843 0.362302 0.022219 0.094934
H15   H     H_    0.126773 0.870241 0.183499 0.113405
H16   H     H_    0.810452 0.611304 0.374627 0.094173
H17   H     H_    0.398139 0.543516 0.891459 0.124718
H18   H     H_    0.745177 0.234348 0.781138 0.120291
H19   H     H_    0.559656 0.145699 0.825156 0.128499
H20   H     H_    0.535967 0.989936 0.880818 0.140822
H21   H     H_    0.700397 0.919282 0.886339 0.126576
H22   H     H_    0.890862 0.997692 0.829207 0.105871
H23   H     H_    0.070702 0.287149 0.161708 0.088603
H24   H     H_    0.240658 0.212021 0.509299 0.116342
H25   H     H_    0.304923 0.251437 0.350425 0.112900
H26   H     H_    0.174895 0.366593 0.341431 0.098450
H27   H     H_    0.980021 0.442130 0.491641 0.113846
H28   H     H_    0.916421 0.407791 0.653073 0.112867
H29   H     H_    0.752203 0.746568 0.908829 0.129134
H30   H     H_    0.701795 0.709793 0.760299 0.135539
H31   H     H_    0.856919 0.667315 0.577508 0.091990
H32   H     H_    0.063110 0.659322 0.542987 0.101931
H33   H     H_    0.113813 0.690047 0.689385 0.121061
H34   H     H_    0.867615 0.132489 0.993119 0.102880
H35   H     H_    0.245931 0.357735 0.083541 0.097658
H36   H     H_    0.944239 0.003415 0.382066 0.123429
H37   H     H_    0.910305 0.162996 0.553908 0.121527
H38   H     H_    0.105941 0.974153 0.610811 0.124501
H39   H     H_    0.606862 0.441796 0.199498 0.093895
I1    I     I_    0.368135 0.747357 0.876966 -0.593509
N1    N     N_R   0.037310 0.720000 0.995790 -0.047294
N2    N     N_R   0.824890 0.517960 0.936420 -0.042639
N3    N     N_R   0.003210 0.648190 0.211380 -0.039852
N4    N     N_R   0.774330 0.457010 0.995840 -0.044716
N5    N     N_R   0.053760 0.709140 0.151960 -0.033902
N6    N     N_R   0.853860 0.498840 0.211410 -0.041427
N7    N     N_R   0.974240 0.667310 0.936390 -0.060728
N8    N     N_R   0.225670 0.542990 0.004160 -0.037359
N9    N     N_R   0.946240 0.290860 0.848040 -0.063975
N10   N     N_R   0.146140 0.501160 0.788590 -0.047912
N11   N     N_R   0.025760 0.332690 0.063610 -0.040995
N12   N     N_R   0.962690 0.280000 0.004210 -0.043396
N13   N     N_R   0.209210 0.553840 0.847990 -0.053279
N14   N     N_R   0.175110 0.482040 0.063580 -0.044424
N15   N     N_R   0.996790 0.351810 0.788620 -0.065176
N16   N     N_R   0.790790 0.446160 0.152010 -0.040058
Ni1   Ni    Ni4+2 0.130310 0.630310 0.999970 0.240695
Ni2   Ni    Ni4+2 0.869690 0.369690 0.000030 0.211041
Ni3   Ni    Ni4+2 0.985640 0.509470 0.863740 0.212309
Ni4   Ni    Ni4+2 0.014360 0.490530 0.136260 0.205057

loop_
_geom_bond_atom_site_label_1
_geom_bond_atom_site_label_2
_ccdc_geom_bond_type
C5    C42   S    
C6    C45   A    
C27   C29   D    
C15   H2    S    
C19   C20   A    
C7    C55   A    
C3    C6    A    
N7    Ni3   S    
C8    C56   A    
C41   H22   S    
C52   H31   S    
N8    N14   A    
C53   C54   A    
C52   C53   A    
C8    C20   S    
C18   C24   A    
N3    Ni4   S    
C47   H27   S    
C4    N16   A    
C36   C37   A    
C18   C19   A    
C1    H1    S    
N1    Ni1   S    
C38   C39   A    
C31   H15   S    
C6    C25   S    
C10   H36   S    
C10   C17   A    
C33   C49   S    
C49   C54   A    
C9    C58   A    
C23   C26   S    
N9    N15   A    
C28   N3    A    
C57   N11   A    
C32   N6    A    
C4    C12   A    
C44   H25   S    
C28   C34   A    
N3    N5    A    
C4    H39   S    
C12   C32   A    
C1    N1    A    
C36   C41   A    
C14   H38   S    
C44   C46   A    
N11   Ni4   S    
N6    Ni4   S    
N1    N7    A    
C2    N13   A    
C40   H21   S    
C51   C52   A    
C26   H8    S    
C23   C30   A    
C33   N7    A    
C39   C40   A    
C5    C7    A    
C16   N2    A    
C48   H28   S    
C27   C35   S    
C25   C26   D    
C55   N9    A    
C31   N5    A    
N5    Ni1   S    
C43   C44   A    
C39   H20   S    
C37   C38   A    
C29   H10   S    
N16   Ni2   S    
C47   C48   A    
C3    N14   A    
C30   N4    A    
N2    N4    A    
C50   C51   A    
C31   C34   A    
C25   H7    S    
C3    H35   S    
C42   C48   A    
N6    N16   A    
C50   H29   S    
N15   Ni3   S    
C40   C41   A    
C37   H18   S    
C16   C23   A    
C56   H12   S    
C22   C24   A    
C28   H13   S    
C42   C43   A    
N12   Ni2   S    
C45   N8    A    
C1    C35   A    
C11   H37   S    
C15   C17   A    
C46   C47   A    
C32   H16   S    
C5    N15   A    
C58   N12   A    
N10   Ni3   S    
C2    C8    A    
C16   H11   S    
C51   H30   S    
C30   H14   S    
C18   H3    S    
C38   H19   S    
C12   C24   S    
N10   N13   A    
N8    Ni1   S    
C45   H17   S    
C21   C22   A    
C54   H33   S    
C36   C55   S    
N11   N12   A    
N14   Ni4   S    
C11   C13   A    
C33   C35   A    
C46   H26   S    
C9    C57   A    
N4    Ni2   S    
C57   H23   S    
N9    Ni2   S    
C21   H5    S    
C27   H9    S    
C10   C11   A    
C22   H6    S    
C7    C13   S    
C20   C21   A    
C2    I1    S    
C49   C50   A    
C17   C34   S    
C53   H32   S    
C43   H24   S    
C56   N10   A    
C14   C15   A    
N13   Ni1   S    
N2    Ni3   S    
C19   H4    S    
C13   C14   A    
C58   H34   S    
