data_mof_unit_33123.cif
_audit_creation_date              2012-12-10T21:07:00-0500
_audit_creation_method            fapswitch 2.2
_symmetry_space_group_name_H-M    P1
_symmetry_Int_Tables_number       1
_space_group_crystal_system       triclinic
_cell_length_a                    10.803967
_cell_length_b                    15.880645
_cell_length_c                    15.030741
_cell_angle_alpha                 89.789513
_cell_angle_beta                  92.46261
_cell_angle_gamma                 88.802549
_cell_volume                      2575.91250522

loop_
_atom_site_label
_atom_site_type_symbol
_atom_type_description
_atom_site_fract_x
_atom_site_fract_y
_atom_site_fract_z
_atom_type_partial_charge
C1    C     C_R   0.499309 0.338919 0.500218 0.914605
C2    C     C_R   0.500202 0.661038 0.499727 0.940279
C3    C     C_R   0.873972 0.509830 0.505621 -0.147749
C4    C     C_R   0.126795 0.486286 0.494769 -0.180324
C5    C     C_R   0.943493 0.477758 0.580657 -0.004921
C6    C     C_R   0.056623 0.515146 0.418944 -0.008862
C7    C     C_R   0.612985 0.954905 0.511763 -0.098685
C8    C     C_R   0.384514 0.044791 0.483226 -0.092940
C9    C     C_R   0.501849 0.912906 0.491419 -0.029622
C10   C     C_R   0.495327 0.086804 0.504657 -0.030825
C11   C     C_R   0.387830 0.956642 0.476342 -0.101504
C12   C     C_R   0.609479 0.043031 0.518933 -0.100773
C13   C     C_1   0.502317 0.823642 0.495142 0.045940
C14   C     C_1   0.494702 0.176194 0.502985 0.044468
C15   C     C_1   0.496401 0.250838 0.501200 -0.078089
C16   C     C_1   0.501562 0.749062 0.498291 -0.067363
C17   C     C_R   0.478860 0.425908 0.951235 -0.043284
C18   C     C_R   0.516189 0.575946 0.048638 0.038478
C19   C     C_R   0.496846 0.502160 0.904957 -0.095102
C20   C     C_R   0.498472 0.499393 0.094927 -0.071677
C21   C     C_R   0.512571 0.577963 0.953640 -0.017010
C22   C     C_R   0.482440 0.423544 0.046147 -0.043834
C23   C     C_R   0.259608 0.493941 0.498026 0.900942
C24   C     C_R   0.740713 0.504856 0.502052 0.921298
C25   C     C_1   0.498226 0.501357 0.806949 0.168912
C26   C     C_1   0.499992 0.499342 0.192980 0.147049
C27   C     C_R   0.148383 0.588188 0.190090 -0.240534
C28   C     C_R   0.854994 0.376163 0.797381 -0.243595
C29   C     C_R   0.128819 0.591811 0.281714 -0.030440
C30   C     C_R   0.876554 0.383742 0.706398 -0.025426
C31   C     C_R   0.107072 0.516280 0.328066 0.079635
C32   C     C_R   0.889350 0.464867 0.669317 0.064495
C33   C     C_R   0.110290 0.439442 0.282563 -0.131559
C34   C     C_R   0.877256 0.535929 0.723530 -0.130328
C35   C     C_R   0.128865 0.435597 0.190774 -0.053301
C36   C     C_R   0.859613 0.528503 0.815210 -0.035544
C37   C     C_R   0.146805 0.511695 0.143380 -0.056102
C38   C     C_R   0.845826 0.447048 0.852727 -0.049205
C39   C     C_R   0.931560 0.533931 0.427144 -0.059747
C40   C     C_R   0.069973 0.462364 0.573558 -0.160106
H1    H     H_    0.159240 0.646364 0.153648 0.217721
H2    H     H_    0.846237 0.313806 0.825586 0.213853
H3    H     H_    0.092637 0.382153 0.318978 0.178794
H4    H     H_    0.892874 0.597440 0.695012 0.183669
N1    N     N_1   0.499960 0.500020 0.270550 -0.070424
N2    N     N_1   0.500040 0.499980 0.729450 -0.062956
O1    O     O_R   0.500000 0.378020 0.573650 -0.598562
O2    O     O_R   0.500000 0.621980 0.426350 -0.606382
O3    O     O_R   0.500060 0.378020 0.426320 -0.600261
O4    O     O_R   0.499940 0.621980 0.573680 -0.598135
O5    O     O_R   0.316730 0.500010 0.573660 -0.597864
O6    O     O_R   0.683270 0.499990 0.426340 -0.599776
O7    O     O_R   0.316790 0.500010 0.426330 -0.622003
O8    O     O_R   0.683210 0.499990 0.573670 -0.623203
Zn1   Zn    Zn3+2 0.499960 0.500000 0.598370 1.053311
Zn2   Zn    Zn3+2 0.500040 0.500000 0.401630 1.042115
C41   C     C_2   0.155314 0.516131 0.045043 0.975123
O9    O     O_2   0.097551 0.467720 0.996793 -0.585797
O10   O     O_R   0.224138 0.579499 0.007083 -0.805348
H5    H     H_    0.221596 0.576980 0.939629 0.359786
C42   C     C_2   0.820811 0.432266 0.948178 0.979451
O11   O     O_2   0.769036 0.486242 0.991699 -0.640725
O12   O     O_R   0.853569 0.354720 0.987955 -0.766656
H6    H     H_    0.830878 0.351757 0.052642 0.367656
C43   C     C_R   0.446930 0.349953 0.898384 0.099981
C44   C     C_R   0.322345 0.329308 0.882270 -0.071356
C45   C     C_R   0.291285 0.261788 0.826769 -0.021597
C46   C     C_R   0.384361 0.214959 0.786498 -0.065998
C47   C     C_R   0.508644 0.235279 0.802187 -0.118746
C48   C     C_R   0.539867 0.302552 0.857969 -0.073249
H7    H     H_    0.249455 0.366489 0.911111 0.211057
H8    H     H_    0.194984 0.246507 0.814025 0.189316
H9    H     H_    0.360175 0.163222 0.742858 0.172347
H10   H     H_    0.580696 0.199251 0.770734 0.179920
H11   H     H_    0.635914 0.318140 0.869437 0.138124
C49   C     C_R   0.550194 0.652435 0.100636 0.121897
C50   C     C_R   0.668531 0.686421 0.094294 -0.160022
C51   C     C_R   0.703637 0.755178 0.146765 -0.102893
C52   C     C_R   0.620904 0.790607 0.205809 -0.045884
C53   C     C_R   0.502626 0.757706 0.211984 -0.102638
C54   C     C_R   0.467201 0.689110 0.159439 -0.075274
H12   H     H_    0.734123 0.658764 0.049892 0.197748
H13   H     H_    0.795378 0.780524 0.142185 0.176645
H14   H     H_    0.648476 0.843437 0.246858 0.168747
H15   H     H_    0.438638 0.785021 0.257851 0.181512
H16   H     H_    0.376029 0.663772 0.165427 0.140629
C55   C     C_2   0.121866 0.675581 0.325088 0.925601
O13   O     O_2   0.142730 0.682475 0.405311 -0.610167
O14   O     O_R   0.089695 0.746970 0.273697 -0.780558
H17   H     H_    0.079964 0.799593 0.310856 0.383245
C56   C     C_2   0.894783 0.305873 0.653706 0.928332
O15   O     O_2   0.872952 0.305988 0.573191 -0.629361
O16   O     O_R   0.939092 0.232224 0.696564 -0.767675
H18   H     H_    0.954960 0.184614 0.653557 0.372129
C57   C     C_2   0.125801 0.351139 0.148225 1.004257
O17   O     O_2   0.186337 0.335824 0.083211 -0.611415
O18   O     O_R   0.055637 0.287619 0.184740 -0.780318
H19   H     H_    0.061310 0.232778 0.150683 0.369257
C58   C     C_2   0.869622 0.606666 0.869011 0.950114
O19   O     O_2   0.917274 0.604729 0.944222 -0.594798
O20   O     O_R   0.831897 0.684035 0.831026 -0.758193
H20   H     H_    0.844665 0.732861 0.873486 0.357039
C59   C     C_2   0.861817 0.580785 0.353978 0.931798
O21   O     O_2   0.810789 0.648233 0.369761 -0.609578
O22   O     O_R   0.851569 0.546436 0.268510 -0.778429
H21   H     H_    0.800770 0.583656 0.225281 0.352671
C60   C     C_2   0.142314 0.417163 0.647354 0.960929
O23   O     O_2   0.145741 0.445913 0.722656 -0.584861
O24   O     O_R   0.209912 0.343327 0.630678 -0.761035
H22   H     H_    0.200800 0.324980 0.566323 0.301656
C61   C     C_2   0.725357 0.089939 0.538208 0.976113
O25   O     O_2   0.728178 0.143622 0.596275 -0.616262
O26   O     O_R   0.830539 0.072805 0.489721 -0.754462
H23   H     H_    0.903146 0.108996 0.508665 0.361913
C62   C     C_2   0.271987 0.909717 0.456189 0.969237
O27   O     O_2   0.271259 0.853842 0.400489 -0.625759
O28   O     O_R   0.164389 0.929257 0.501057 -0.753567
H24   H     H_    0.092119 0.893059 0.481304 0.366376
C63   C     C_2   0.731172 0.905938 0.528499 0.973330
O29   O     O_2   0.798470 0.921111 0.593738 -0.579645
O30   O     O_R   0.764553 0.842073 0.469767 -0.776904
H25   H     H_    0.846281 0.813212 0.488265 0.363977
C64   C     C_2   0.266825 0.093632 0.464924 0.976819
O31   O     O_2   0.203409 0.080255 0.397279 -0.582485
O32   O     O_R   0.229049 0.154890 0.525144 -0.799286
H26   H     H_    0.147054 0.182971 0.505857 0.344547
C65   C     C_2   0.476271 0.340963 0.093901 0.958856
O33   O     O_2   0.427426 0.336424 0.165608 -0.618797
O34   O     O_R   0.528799 0.268309 0.057583 -0.784189
H27   H     H_    0.518936 0.216556 0.096123 0.361693
C66   C     C_2   0.518473 0.660326 0.905800 0.898618
O35   O     O_2   0.570971 0.665323 0.835608 -0.595356
O36   O     O_R   0.461885 0.732267 0.940663 -0.767049
H28   H     H_    0.472160 0.784155 0.902405 0.360345

loop_
_geom_bond_atom_site_label_1
_geom_bond_atom_site_label_2
_ccdc_geom_bond_type
C24   O6    A    
C55   O13   D    
O16   H18   S    
C27   C29   A    
C18   C21   A    
C57   O17   D    
O18   H19   S    
C41   O9    D    
C64   O31   D    
C50   C51   A    
O20   H20   S    
C35   C37   A    
O34   H27   S    
C52   H14   S    
C53   C54   A    
C64   O32   S    
C24   O8    A    
C43   C48   A    
C18   C20   A    
O2    Zn2   S    
C45   H8    S    
C28   H2    S    
C42   O12   S    
C9    C13   S    
C21   C66   S    
C2    O4    A    
C26   N1    T    
C17   C19   A    
C51   H13   S    
C59   O22   S    
C58   O19   D    
N1    Zn2   S    
C46   C47   A    
C62   O28   S    
N2    Zn1   S    
C60   O23   D    
C31   C33   A    
C1    C15   S    
C11   C62   S    
C34   C36   A    
C54   H16   S    
C5    C32   S    
C6    C31   S    
C3    C39   A    
O10   H5    S    
C60   O24   S    
C3    C24   S    
C47   C48   A    
C23   O7    A    
C63   O30   S    
C7    C12   A    
C45   C46   A    
C33   H3    S    
C7    C63   S    
C34   H4    S    
C49   C50   A    
C4    C6    A    
C10   C14   S    
C56   O15   D    
C4    C23   S    
C51   C52   A    
C1    O1    A    
C66   O36   S    
C46   H9    S    
C52   C53   A    
C32   C34   A    
C65   O34   S    
C4    C40   A    
C53   H15   S    
C56   O16   S    
C27   H1    S    
C23   O5    A    
C44   H7    S    
C28   C38   A    
C47   H10   S    
C61   O26   S    
C9    C11   A    
O30   H25   S    
C10   C12   A    
C40   C60   S    
C58   O20   S    
C20   C22   A    
C55   O14   S    
O36   H28   S    
C5    C40   A    
C66   O35   D    
C48   H11   S    
C2    C16   S    
O1    Zn1   S    
O26   H23   S    
O7    Zn2   S    
C7    C9    A    
O8    Zn1   S    
C18   C49   S    
C61   O25   D    
C19   C21   A    
C14   C15   T    
O4    Zn1   S    
C30   C56   S    
C3    C5    A    
C49   C54   A    
C63   O29   D    
C57   O18   S    
C8    C64   S    
C39   C59   S    
C35   C57   S    
O3    Zn2   S    
O22   H21   S    
C17   C43   S    
C17   C22   A    
C2    O2    A    
C38   C42   S    
C28   C30   A    
C29   C31   A    
O24   H22   S    
C30   C32   A    
C22   C65   S    
O32   H26   S    
C20   C26   S    
C50   H12   S    
C27   C37   A    
C8    C11   A    
C36   C38   A    
C33   C35   A    
C44   C45   A    
C36   C58   S    
O5    Zn1   S    
C42   O11   D    
C19   C25   S    
C29   C55   S    
C41   O10   S    
O12   H6    S    
O6    Zn2   S    
C8    C10   A    
C43   C44   A    
C13   C16   T    
C59   O21   D    
C6    C39   A    
C62   O27   D    
O14   H17   S    
O28   H24   S    
C1    O3    A    
C25   N2    T    
C12   C61   S    
C37   C41   S    
C65   O33   D    
