data_mof_unit_64797.cif
_audit_creation_date              2012-10-26T18:37:56-0400
_audit_creation_method            fapswitch 2.2
_symmetry_space_group_name_H-M    P1
_symmetry_Int_Tables_number       1
_space_group_crystal_system       triclinic
_cell_length_a                    14.662283
_cell_length_b                    15.910291
_cell_length_c                    17.266699
_cell_angle_alpha                 90.026702
_cell_angle_beta                  86.749264
_cell_angle_gamma                 90.333003
_cell_volume                      4021.44683938

loop_
_atom_site_label
_atom_site_type_symbol
_atom_type_description
_atom_site_fract_x
_atom_site_fract_y
_atom_site_fract_z
_atom_type_partial_charge
Br1   Br    Br    0.403142 0.914440 0.354292 -0.337220
Br2   Br    Br    0.107774 0.558349 0.338523 -0.411731
Br3   Br    Br    0.096066 0.683563 0.474091 -0.263280
Br4   Br    Br    0.580456 0.621477 0.968933 -0.367908
Br5   Br    Br    0.287542 0.521304 0.917114 -0.306418
Br6   Br    Br    0.424412 0.367467 0.028971 -0.358505
Br7   Br    Br    0.589138 0.093182 0.344362 -0.397422
Br8   Br    Br    0.413864 0.909070 0.661946 -0.254627
Br9   Br    Br    0.620711 0.917928 0.627982 -0.380826
Br10  Br    Br    0.294778 0.896220 0.507953 -0.182033
Br11  Br    Br    0.297145 0.098501 0.519378 -0.291185
Br12  Br    Br    0.101118 0.315644 0.521101 -0.375338
Br13  Br    Br    0.880693 0.453606 0.665848 -0.406993
Br14  Br    Br    0.103568 0.595714 0.648316 -0.312267
C1    C     C_R   0.500205 0.660133 0.499993 0.562013
C2    C     C_R   0.515034 0.509000 0.264943 0.015857
C3    C     C_3   0.406847 0.949797 0.463176 0.284088
C4    C     C_R   0.488871 0.498015 0.650406 0.552240
C5    C     C_3   0.579867 0.951593 0.449595 -0.237190
C6    C     C_3   0.580378 0.049036 0.450301 0.007487
C7    C     C_1   0.498864 0.250421 0.499939 0.060601
C8    C     C_3   0.496446 0.916962 0.500268 0.001758
C9    C     C_3   0.406015 0.048807 0.465927 0.081012
C10   C     C_3   0.495822 0.082861 0.499405 -0.049450
C11   C     C_3   0.501481 0.050040 0.583558 -0.201354
C12   C     C_R   0.402736 0.504329 0.778645 -0.066976
C13   C     C_3   0.505443 0.952347 0.585166 0.269477
C14   C     C_1   0.497633 0.175045 0.499750 0.026969
C15   C     C_1   0.499142 0.824874 0.500089 0.068780
C16   C     C_R   0.499727 0.339853 0.500024 0.555504
C17   C     C_1   0.500376 0.749531 0.500007 0.081411
C18   C     C_3   0.946658 0.413816 0.475135 -0.209342
C19   C     C_3   0.942252 0.521287 0.583782 0.050446
C20   C     C_3   0.048133 0.510076 0.584447 0.047352
C21   C     C_3   0.907783 0.500605 0.501959 -0.083101
C22   C     C_3   0.053677 0.414316 0.469310 -0.022527
C23   C     C_R   0.436506 0.529908 0.147008 -0.046640
C24   C     C_3   0.092098 0.499800 0.499744 -0.007162
C25   C     C_3   0.056431 0.570897 0.445213 0.260272
C26   C     C_3   0.949329 0.568019 0.445037 -0.216409
C27   C     C_1   0.195296 0.498897 0.498800 0.282893
C28   C     C_R   0.511081 0.501801 0.349521 0.547493
C29   C     C_1   0.804703 0.501230 0.501818 0.184010
C30   C     C_R   0.484452 0.489274 0.734747 -0.014944
C31   C     C_R   0.562230 0.463162 0.771689 -0.099995
C32   C     C_R   0.558721 0.453031 0.851548 -0.088430
C33   C     C_R   0.477973 0.470091 0.895511 0.077269
C34   C     C_R   0.434009 0.522038 0.227067 -0.084208
C35   C     C_R   0.399286 0.495304 0.859085 0.208940
C36   C     C_R   0.598865 0.505429 0.221550 -0.102630
C37   C     C_R   0.601139 0.512944 0.141054 -0.063427
C38   C     C_R   0.519745 0.523772 0.103808 0.070986
C39   C     C_2   0.478883 0.465734 0.979773 0.163449
C40   C     C_2   0.520818 0.526376 0.019376 0.141954
Cu1   Cu    Cu3+1 0.410070 0.500090 0.500100 1.127328
Cu2   Cu    Cu3+1 0.589930 0.499910 0.499900 1.058569
H1    H     H_    0.625734 0.450095 0.738876 0.182723
H2    H     H_    0.920098 0.630470 0.460857 0.169010
H3    H     H_    0.921254 0.397511 0.417460 0.143727
H4    H     H_    0.619499 0.433535 0.879452 0.168912
H5    H     H_    0.442127 0.073062 0.620262 0.204865
H6    H     H_    0.920427 0.364334 0.516127 0.219091
H7    H     H_    0.924757 0.587697 0.597894 0.199495
H8    H     H_    0.927188 0.554148 0.385793 0.166804
H9    H     H_    0.662237 0.496204 0.249636 0.151236
H10   H     H_    0.076928 0.405263 0.407608 0.198312
H11   H     H_    0.373437 0.539404 0.118451 0.185902
H12   H     H_    0.665810 0.508622 0.107743 0.163668
H13   H     H_    0.342173 0.524294 0.750740 0.188622
H14   H     H_    0.403052 0.073477 0.405967 0.211420
H15   H     H_    0.645310 0.928416 0.470667 0.173574
H16   H     H_    0.579858 0.927325 0.389383 0.211589
H17   H     H_    0.643560 0.070833 0.477253 0.179229
H18   H     H_    0.368564 0.526269 0.259188 0.179654
H19   H     H_    0.562768 0.077610 0.609296 0.162332
H20   H     H_    0.061862 0.451755 0.616903 0.220129
N1    N     N_1   0.275150 0.498610 0.498410 -0.143972
N2    N     N_1   0.724850 0.501380 0.501620 -0.169033
O1    O     O_R   0.424030 0.620640 0.500090 -0.463704
O2    O     O_R   0.575910 0.620490 0.499920 -0.494870
O3    O     O_R   0.415250 0.500090 0.613690 -0.492812
O4    O     O_R   0.567140 0.499950 0.613520 -0.489720
O5    O     O_R   0.424090 0.379510 0.500080 -0.475110
O6    O     O_R   0.575970 0.379360 0.499910 -0.494883
O7    O     O_R   0.432860 0.500050 0.386480 -0.497376
O8    O     O_R   0.584750 0.499910 0.386310 -0.507429

loop_
_geom_bond_atom_site_label_1
_geom_bond_atom_site_label_2
_ccdc_geom_bond_type
Cu1   Cu2   S    
C8    C15   S    
C5    H15   S    
C5    C6    S    
C2    C34   A    
C12   C30   A    
C33   C35   A    
C39   C40   D    
C29   N2    T    
C31   H1    S    
C3    C9    S    
C18   C22   S    
C2    C36   A    
C27   N1    T    
C24   C25   S    
Cu1   N1    S    
C22   H10   S    
Br10  C3    S    
C4    O3    A    
Cu2   N2    S    
C16   O5    A    
C4    O4    A    
Br2   C25   S    
C1    O1    A    
C6    C10   S    
C9    C10   S    
C28   O8    A    
Br12  C22   S    
C21   C29   S    
C33   C39   S    
C32   H4    S    
Br3   C25   S    
C9    H14   S    
Br5   C35   S    
C5    H16   S    
C38   C40   S    
Cu2   O6    S    
C26   H2    S    
C37   C38   A    
C18   C21   S    
C34   H18   S    
C5    C8    S    
C10   C11   S    
C24   C27   S    
C12   C35   A    
C25   C26   S    
C23   C38   A    
C31   C32   A    
C11   H19   S    
Cu1   O7    S    
Br13  C19   S    
C4    C30   S    
Cu1   O1    S    
Cu2   O8    S    
C1    O2    A    
C19   H7    S    
C36   C37   A    
C28   O7    A    
C11   H5    S    
C23   C34   A    
Cu2   O4    S    
C7    C14   T    
C8    C13   S    
Cu1   O3    S    
Br6   C39   S    
Cu1   O5    S    
C2    C28   S    
C30   C31   A    
Br9   C13   S    
Br8   C13   S    
C32   C33   A    
Br4   C40   S    
C20   C24   S    
C10   C14   S    
Cu2   O2    S    
Br14  C20   S    
C1    C17   S    
C11   C13   S    
C7    C16   S    
Br1   C3    S    
C3    C8    S    
C26   H8    S    
C22   C24   S    
C21   C26   S    
C18   H6    S    
C15   C17   T    
C23   H11   S    
Br11  C9    S    
C19   C21   S    
C19   C20   S    
C6    H17   S    
C37   H12   S    
C16   O6    A    
C36   H9    S    
Br7   C6    S    
C12   H13   S    
C18   H3    S    
C20   H20   S    
