data_mof_unit_23544.cif
_audit_creation_date              2012-12-11T15:14:50-0500
_audit_creation_method            fapswitch 2.2
_symmetry_space_group_name_H-M    P1
_symmetry_Int_Tables_number       1
_space_group_crystal_system       triclinic
_cell_length_a                    22.150512
_cell_length_b                    7.288768
_cell_length_c                    19.417831
_cell_angle_alpha                 89.99981
_cell_angle_beta                  98.768236
_cell_angle_gamma                 90.0
_cell_volume                      3098.36900829

loop_
_atom_site_label
_atom_site_type_symbol
_atom_type_description
_atom_site_fract_x
_atom_site_fract_y
_atom_site_fract_z
_atom_type_partial_charge
O1    O     O_R   0.448470 0.506130 0.415700 -0.535235
O2    O     O_R   0.551530 0.006130 0.584300 -0.535234
O3    O     O_R   0.436320 0.174490 0.555800 -0.528631
O4    O     O_R   0.563680 0.674490 0.444200 -0.528631
C1    C     C_R   0.421317 0.343257 0.575199 0.770588
C2    C     C_R   0.578683 0.843257 0.424801 0.770584
O5    O     O_R   0.441350 0.176340 0.414480 -0.531185
O6    O     O_R   0.558650 0.676340 0.585520 -0.531183
O7    O     O_R   0.556600 0.007100 0.441970 -0.512626
O8    O     O_R   0.443400 0.507100 0.558030 -0.512625
C3    C     C_R   0.426690 0.345842 0.389922 0.871723
C4    C     C_R   0.573310 0.845841 0.610078 0.871720
O9    O     O_3   0.537810 0.339550 0.509190 -0.400889
O10   O     O_3   0.462190 0.839550 0.490810 -0.400887
V1    V     V_3+5 0.492990 0.064280 0.498300 1.603784
V2    V     V_3+5 0.507010 0.564280 0.501700 1.603786
C5    C     C_R   0.871834 0.974595 0.695974 0.428239
C6    C     C_R   0.128164 0.474582 0.304027 0.428238
C7    C     C_R   0.884668 0.941761 0.822508 -0.321854
C8    C     C_R   0.115331 0.441759 0.177492 -0.321849
C9    C     C_R   0.589950 0.865933 0.739272 0.317258
C10   C     C_R   0.410049 0.365946 0.260728 0.317232
C11   C     C_R   0.623914 0.937334 0.799706 -0.260265
C12   C     C_R   0.376085 0.437350 0.200295 -0.260255
C13   C     C_R   0.684508 0.991376 0.801236 0.491594
C14   C     C_R   0.315491 0.491386 0.198765 0.491567
C15   C     C_R   0.716007 0.937693 0.746115 -0.032389
C16   C     C_R   0.283992 0.437692 0.253886 -0.032421
C17   C     C_R   0.679717 0.902548 0.680189 -0.169086
C18   C     C_R   0.320282 0.402543 0.319812 -0.169085
C19   C     C_R   0.781401 0.937043 0.752621 -0.045760
C20   C     C_R   0.218598 0.437038 0.247380 -0.045758
C21   C     C_R   0.808640 0.939811 0.691454 -0.238994
C22   C     C_R   0.191359 0.439798 0.308546 -0.238990
C23   C     C_R   0.772826 0.910391 0.625895 0.421075
C24   C     C_R   0.227172 0.410374 0.374106 0.421074
C25   C     C_R   0.708486 0.912561 0.619953 0.341605
C26   C     C_R   0.291513 0.412548 0.380047 0.341607
C27   C     C_R   0.819823 0.913075 0.818069 0.466308
C28   C     C_R   0.180177 0.413073 0.181931 0.466302
C29   C     C_R   0.909961 0.975145 0.760960 0.296557
C30   C     C_R   0.090038 0.475141 0.239040 0.296565
C31   C     C_R   0.615676 0.863405 0.676987 -0.186529
C32   C     C_R   0.384324 0.363407 0.323013 -0.186535
H1    H     H_    0.601136 0.969740 0.843728 0.203247
H2    H     H_    0.398863 0.469764 0.156273 0.203264
C33   C     C_3   0.773578 0.784310 0.298077 0.214160
C34   C     C_3   0.226420 0.284309 0.701923 0.214118
C35   C     C_3   0.803824 0.972512 0.287153 0.261886
C36   C     C_3   0.196176 0.472514 0.712847 0.261899
C37   C     C_1   0.874604 0.949892 0.120192 -0.109493
C38   C     C_1   0.125396 0.449894 0.879808 -0.109488
C39   C     C_1   0.625455 0.847235 0.379872 -0.027668
C40   C     C_1   0.374544 0.347232 0.620128 -0.027672
C41   C     C_3   0.759640 0.755818 0.218041 0.374237
C42   C     C_3   0.240357 0.255819 0.781958 0.374357
C43   C     C_3   0.790127 0.941958 0.206559 -0.227002
C44   C     C_3   0.209872 0.441961 0.793441 -0.226995
C45   C     C_3   0.698202 0.855085 0.215587 0.468696
C46   C     C_3   0.301796 0.355074 0.784411 0.468697
C47   C     C_3   0.710791 0.880243 0.294898 -0.149558
C48   C     C_3   0.289208 0.380234 0.705101 -0.149582
C49   C     C_3   0.727540 0.042106 0.203272 -0.384037
C50   C     C_3   0.272461 0.542099 0.796728 -0.384142
C51   C     C_3   0.740447 0.067528 0.283781 0.341379
C52   C     C_3   0.259554 0.567524 0.716218 0.341399
C53   C     C_1   0.835940 0.951827 0.158326 0.148298
C54   C     C_1   0.164060 0.451830 0.841674 0.148299
C55   C     C_1   0.664302 0.854501 0.341911 0.252006
C56   C     C_1   0.335697 0.354496 0.658088 0.251974
H3    H     H_    0.709525 0.149369 0.165021 0.215220
H4    H     H_    0.290481 0.649351 0.834981 0.215223
O11   O     O_R   0.056650 0.288730 0.942060 -0.535202
O12   O     O_R   0.943350 0.788730 0.057940 -0.535215
O13   O     O_R   0.058660 0.616870 0.085540 -0.522347
O14   O     O_R   0.941340 0.116870 0.914460 -0.522348
C57   C     C_R   0.073254 0.448380 0.110217 0.776831
C58   C     C_R   0.926746 0.948380 0.889783 0.776822
O15   O     O_R   0.063700 0.618520 0.944220 -0.536563
O16   O     O_R   0.936300 0.118520 0.055780 -0.536550
O17   O     O_R   0.948460 0.787610 0.915680 -0.520894
O18   O     O_R   0.051540 0.287610 0.084320 -0.520889
C59   C     C_R   0.078639 0.451386 0.924596 0.720248
C60   C     C_R   0.921361 0.951386 0.075403 0.720249
O19   O     O_3   0.962230 0.453430 0.990860 -0.383793
O20   O     O_3   0.037770 0.953430 0.009140 -0.383790
V3    V     V_3+5 0.007010 0.728750 0.001700 1.548386
V4    V     V_3+5 0.992990 0.228750 0.998300 1.548408
S1    S     S_3+6 0.990170 0.013134 0.764507 0.049313
O21   O     O_2   0.009612 0.997148 0.693940 -0.257709
O22   O     O_2   0.004847 0.203280 0.792047 -0.353007
O23   O     O_3   0.030042 0.858621 0.817569 -0.478730
H5    H     H_    0.056858 0.931283 0.852942 0.331331
S2    S     S_3+6 0.009831 0.513150 0.235492 0.049320
O24   O     O_2   0.990387 0.497144 0.306057 -0.257706
O25   O     O_2   0.995162 0.703312 0.207962 -0.353001
O26   O     O_3   0.969953 0.358669 0.182418 -0.478736
H6    H     H_    0.943139 0.431353 0.147051 0.331326
O27   O     O_3   0.790285 0.651746 0.350632 -0.535281
C61   C     C_3   0.853799 0.623028 0.363089 0.051495
H7    H     H_    0.876076 0.724669 0.400954 0.158686
H8    H     H_    0.874812 0.623612 0.314921 0.178093
H9    H     H_    0.863071 0.486884 0.387681 0.226843
O28   O     O_3   0.209711 0.151745 0.649368 -0.535284
C62   C     C_3   0.146197 0.123025 0.636916 0.051510
H10   H     H_    0.123918 0.224666 0.599051 0.158693
H11   H     H_    0.125186 0.123611 0.685085 0.178090
H12   H     H_    0.136924 0.986882 0.612324 0.226848
S3    S     S_3+6 0.716122 0.264724 0.327223 0.064169
O29   O     O_2   0.711358 0.424052 0.278280 -0.267614
O30   O     O_2   0.653883 0.234715 0.346935 -0.315035
O31   O     O_3   0.765784 0.307255 0.399805 -0.492738
H13   H     H_    0.742909 0.382875 0.429472 0.354610
S4    S     S_3+6 0.283878 0.764722 0.672776 0.064172
O32   O     O_2   0.288640 0.924049 0.721719 -0.267606
O33   O     O_2   0.346116 0.734716 0.653065 -0.315038
O34   O     O_3   0.234215 0.807254 0.600195 -0.492733
H14   H     H_    0.257090 0.882882 0.570530 0.354613
O35   O     O_3   0.641795 0.785144 0.182218 -0.495926
C63   C     C_3   0.635016 0.822729 0.110299 -0.009630
H15   H     H_    0.675337 0.777380 0.086822 0.134995
H16   H     H_    0.626153 0.971160 0.100309 0.127542
H17   H     H_    0.594751 0.746205 0.083877 0.167608
O36   O     O_3   0.358193 0.285078 0.817786 -0.495915
C64   C     C_3   0.365014 0.322915 0.889686 -0.009590
H18   H     H_    0.324651 0.278104 0.913190 0.134761
H19   H     H_    0.374030 0.471291 0.899596 0.127700
H20   H     H_    0.405198 0.246112 0.916145 0.167606
O37   O     O_3   0.760510 0.603103 0.173371 -0.538474
C65   C     C_3   0.815252 0.505781 0.189515 -0.067017
H21   H     H_    0.813888 0.427142 0.237573 0.233610
H22   H     H_    0.856129 0.595750 0.193985 0.136346
H23   H     H_    0.818493 0.405714 0.147200 0.144693
O38   O     O_3   0.239490 0.103111 0.826633 -0.538396
C66   C     C_3   0.184750 0.005780 0.810492 -0.066984
H24   H     H_    0.186113 0.927137 0.762436 0.233593
H25   H     H_    0.143871 0.095744 0.806021 0.136327
H26   H     H_    0.181511 0.905717 0.852809 0.144690
O39   O     O_3   0.801119 0.828326 0.574469 -0.543454
C67   C     C_3   0.791750 0.925543 0.511143 0.009726
H27   H     H_    0.796712 0.076017 0.518363 0.131010
H28   H     H_    0.747701 0.887767 0.479243 0.145750
H29   H     H_    0.827616 0.881961 0.480994 0.193385
O40   O     O_3   0.198880 0.328304 0.425531 -0.543454
C68   C     C_3   0.208251 0.425510 0.488859 0.009721
H30   H     H_    0.203290 0.575986 0.481642 0.131015
H31   H     H_    0.252300 0.387728 0.520757 0.145751
H32   H     H_    0.172385 0.381925 0.519008 0.193383
O41   O     O_3   0.896029 0.015424 0.636142 -0.496023
C69   C     C_3   0.891229 0.206626 0.624557 -0.043816
H33   H     H_    0.842994 0.254399 0.619097 0.074128
H34   H     H_    0.919638 0.284379 0.666954 0.165514
H35   H     H_    0.908400 0.238725 0.575163 0.183108
O42   O     O_3   0.103969 0.515402 0.363859 -0.496021
C70   C     C_3   0.108771 0.706601 0.375450 -0.043808
H36   H     H_    0.157006 0.754374 0.380905 0.074121
H37   H     H_    0.091606 0.738687 0.424847 0.183108
H38   H     H_    0.080359 0.784364 0.333059 0.165525
O43   O     O_3   0.792957 0.821407 0.868924 -0.545002
C71   C     C_3   0.812215 0.880742 0.937674 -0.100377
H39   H     H_    0.825802 0.027705 0.941537 0.145690
H40   H     H_    0.848692 0.788980 0.962925 0.105916
H41   H     H_    0.773724 0.863152 0.967486 0.179286
O44   O     O_3   0.207043 0.321410 0.131076 -0.545016
C72   C     C_3   0.187786 0.380754 0.062327 -0.100381
H42   H     H_    0.174199 0.527716 0.058465 0.145696
H43   H     H_    0.151309 0.288993 0.037073 0.105916
H44   H     H_    0.226277 0.363169 0.032516 0.179301
S5    S     S_3+6 0.512333 0.808706 0.740955 0.085760
O45   O     O_2   0.472045 0.950494 0.700897 -0.272081
O46   O     O_2   0.498229 0.624436 0.707635 -0.319888
O47   O     O_3   0.497277 0.802609 0.823260 -0.460497
H45   H     H_    0.519549 0.693704 0.844497 0.343857
S6    S     S_3+6 0.487667 0.308729 0.259044 0.085781
O48   O     O_2   0.527953 0.450521 0.299102 -0.272083
O49   O     O_2   0.501774 0.124459 0.292364 -0.319876
O50   O     O_3   0.502722 0.302637 0.176739 -0.460481
H46   H     H_    0.480455 0.193724 0.155504 0.343891
S7    S     S_3+6 0.706827 0.186230 0.854065 -0.007878
O51   O     O_2   0.705323 0.141135 0.929276 -0.355719
O52   O     O_2   0.768905 0.256763 0.845092 -0.348618
O53   O     O_3   0.655341 0.352872 0.830121 -0.488197
H47   H     H_    0.670270 0.460343 0.859041 0.374564
S8    S     S_3+6 0.293170 0.686246 0.145941 -0.007864
O54   O     O_2   0.294674 0.641166 0.070728 -0.355660
O55   O     O_2   0.231090 0.756769 0.154915 -0.348655
O56   O     O_3   0.344654 0.852890 0.169887 -0.488216
H48   H     H_    0.329689 0.960421 0.141033 0.374594
O57   O     O_3   0.674571 0.949034 0.555804 -0.595169
C73   C     C_3   0.671981 0.142487 0.547456 -0.243822
H49   H     H_    0.717574 0.209258 0.557978 0.099631
H50   H     H_    0.642601 0.205842 0.582433 0.171588
H51   H     H_    0.652845 0.175636 0.492856 0.200731
O58   O     O_3   0.325427 0.449020 0.444196 -0.595170
C74   C     C_3   0.328016 0.642473 0.452545 -0.243834
H52   H     H_    0.282423 0.709241 0.442022 0.099637
H53   H     H_    0.357397 0.705831 0.417570 0.171588
H54   H     H_    0.347150 0.675621 0.507145 0.200732
S9    S     S_3+6 0.876835 0.060190 0.327334 0.029124
O59   O     O_2   0.890184 0.237894 0.294174 -0.305437
O60   O     O_2   0.876863 0.090999 0.403751 -0.342578
O61   O     O_3   0.932919 0.913022 0.316058 -0.481489
H55   H     H_    0.970884 0.970312 0.340199 0.389702
S10   S     S_3+6 0.123166 0.560194 0.672664 0.029125
O62   O     O_2   0.109820 0.737908 0.705818 -0.305448
O63   O     O_2   0.123136 0.590985 0.596246 -0.342577
O64   O     O_3   0.067081 0.413035 0.683947 -0.481492
H56   H     H_    0.029115 0.470333 0.659811 0.389704

loop_
_geom_bond_atom_site_label_1
_geom_bond_atom_site_label_2
_ccdc_geom_bond_type
C66   H26   S    
C25   O57   S    
C49   C51   S    
C73   H49   S    
C11   H1    S    
C41   C45   S    
C15   C17   A    
S5    O45   D    
C29   S1    S    
O1    C3    A    
C67   H29   S    
O16   C60   A    
C39   C55   T    
C68   H32   S    
C2    O7    A    
O15   V3    S    
S4    O32   D    
S10   O63   D    
C35   C43   S    
C66   H24   S    
C33   C35   S    
C63   H15   S    
O5    C3    A    
C42   O38   S    
C62   H11   S    
C18   C26   A    
C72   H42   S    
C35   C51   S    
C8    C57   S    
O44   C72   S    
C23   C25   A    
O14   C58   A    
C28   O44   S    
C4    C31   S    
C6    C30   A    
C68   H30   S    
C8    C28   A    
C9    S5    S    
C70   H37   S    
C34   O28   S    
O26   H6    S    
C33   O27   S    
S8    O54   D    
C48   C56   S    
C46   C48   S    
C46   O36   S    
S6    O48   D    
O31   H13   S    
C73   H51   S    
C10   S6    S    
C9    C31   A    
O41   C69   S    
C10   C32   A    
O43   C71   S    
S8    O55   D    
C41   O37   S    
C69   H35   S    
S9    O61   S    
C45   O35   S    
C19   C21   A    
O12   V3    S    
S1    O22   D    
O14   V4    S    
C22   C24   A    
C6    O42   S    
C63   H17   S    
S7    O53   S    
C23   O39   S    
O5    V1    S    
O58   C74   S    
O2    C4    A    
S9    O59   D    
C72   H43   S    
C66   H25   S    
C17   C31   A    
C70   H38   S    
S5    O46   D    
C18   C32   A    
O57   C73   S    
C5    C21   A    
C43   C53   S    
O28   C62   S    
C68   H31   S    
C63   H16   S    
C43   C49   S    
C5    C29   A    
C44   C50   S    
C62   H12   S    
C45   C47   S    
O61   H55   S    
C48   C52   S    
C15   C19   A    
O64   H56   S    
C36   C44   S    
C71   H41   S    
C1    C40   S    
C16   C20   A    
C67   H27   S    
O4    C2    A    
S3    O31   S    
O12   C60   A    
O20   V3    S    
S2    O26   S    
C20   C22   A    
C61   H9    S    
C26   O58   S    
C71   H40   S    
O4    V2    S    
C38   C59   S    
C65   H22   S    
O11   V4    S    
C13   S7    S    
C64   H19   S    
C64   H20   S    
C6    C22   A    
C34   C48   S    
O27   C61   S    
C40   C56   T    
S10   O64   S    
O6    C4    A    
C61   H8    S    
C8    C30   A    
C3    C32   S    
O1    V2    S    
C37   C53   T    
S1    O23   S    
S2    O25   D    
O2    V1    S    
O13   C57   A    
S6    O50   S    
C51   S3    S    
O42   C70   S    
O17   V3    S    
C7    C27   A    
O13   V3    S    
C49   H3    S    
C72   H44   S    
C41   C43   S    
C64   H18   S    
S5    O47   S    
C69   H34   S    
C65   H23   S    
C2    C39   S    
C24   C26   A    
C20   C28   A    
O3    V1    S    
O47   H45   S    
O39   C67   S    
C33   C41   S    
O37   C65   S    
C35   S9    S    
O19   V4    S    
C47   C55   S    
C34   C42   S    
C73   H50   S    
C52   S4    S    
C27   O43   S    
C30   S2    S    
C45   C49   S    
C5    O41   S    
C12   C14   A    
C67   H28   S    
O40   C68   S    
O3    C1    A    
C38   C54   T    
C33   C47   S    
S4    O33   D    
O35   C63   S    
C36   C52   S    
O38   C66   S    
C36   S10   S    
S7    O51   D    
C13   C15   A    
C62   H10   S    
C14   C16   A    
C69   H33   S    
S8    O56   S    
C46   C50   S    
C7    C58   S    
C12   H2    S    
C71   H39   S    
C74   H54   S    
C9    C11   A    
C65   H21   S    
C24   O40   S    
C16   C18   A    
O16   V4    S    
O8    V2    S    
O34   H14   S    
O15   C59   A    
C58   O17   A    
C44   C54   S    
C57   O18   A    
C19   C27   A    
O18   V4    S    
S3    O30   D    
C34   C36   S    
O23   H5    S    
C21   C23   A    
C42   C44   S    
C10   C12   A    
C50   H4    S    
O7    V1    S    
S2    O24   D    
S6    O49   D    
S4    O34   S    
C7    C29   A    
C74   H52   S    
C47   C51   S    
C1    O8    A    
C11   C13   A    
C42   C46   S    
S10   O62   D    
O56   H48   S    
O6    V2    S    
O50   H46   S    
O9    V2    S    
C17   C25   A    
C70   H36   S    
S9    O60   D    
O10   V1    S    
C61   H7    S    
S7    O52   D    
S1    O21   D    
S3    O29   D    
C37   C60   S    
O11   C59   A    
O53   H47   S    
C50   C52   S    
O36   C64   S    
C74   H53   S    
C14   S8    S    
