data_mof_unit_66151.cif
_audit_creation_date              2012-12-10T17:06:38-0500
_audit_creation_method            fapswitch 2.2
_symmetry_space_group_name_H-M    P1
_symmetry_Int_Tables_number       1
_space_group_crystal_system       triclinic
_cell_length_a                    14.158231
_cell_length_b                    10.70743
_cell_length_c                    10.023222
_cell_angle_alpha                 88.958168
_cell_angle_beta                  89.973614
_cell_angle_gamma                 90.077975
_cell_volume                      1519.2503084

loop_
_atom_site_label
_atom_site_type_symbol
_atom_type_description
_atom_site_fract_x
_atom_site_fract_y
_atom_site_fract_z
_atom_type_partial_charge
C1    C     C_R   0.495472 0.262521 0.501307 0.945000
C2    C     C_R   0.497438 0.737514 0.498433 0.949945
C3    C     C_R   0.670833 0.500031 0.499956 0.885747
C4    C     C_1   0.227703 0.500282 0.500004 -0.171818
C5    C     C_1   0.142477 0.500409 0.499947 0.008756
C6    C     C_1   0.042617 0.500463 0.499895 0.021053
C7    C     C_1   0.957393 0.500429 0.499877 0.018017
C8    C     C_1   0.857530 0.500317 0.499886 -0.002913
C9    C     C_1   0.772301 0.500186 0.499912 -0.196081
C10   C     C_2   0.448458 0.934933 0.401334 0.205340
C11   C     C_2   0.498023 0.869820 0.493249 -0.380375
C12   C     C_2   0.458263 0.069411 0.395850 -0.177149
C13   C     C_2   0.477976 0.131644 0.506414 -0.377929
C14   C     C_2   0.546177 0.581098 0.923407 -0.112598
C15   C     C_2   0.541270 0.585601 0.073317 -0.093807
C16   C     C_R   0.329159 0.500081 0.500027 0.897373
H1    H     H_    0.544852 0.913756 0.564079 0.131136
H2    H     H_    0.449735 0.116987 0.299935 0.189724
H3    H     H_    0.476987 0.087109 0.604627 0.164392
H4    H     H_    0.589274 0.650914 0.872460 0.161697
H5    H     H_    0.455869 0.439613 0.899079 0.166666
H6    H     H_    0.575343 0.663649 0.121338 0.167606
H7    H     H_    0.473272 0.423774 0.103651 0.163629
I1    I     I_    0.354478 0.856500 0.259015 -0.350363
N1    N     N_2   0.500930 0.501330 0.852150 -0.183238
N2    N     N_2   0.500950 0.501360 0.147810 -0.179492
O1    O     O_R   0.499990 0.319060 0.613040 -0.611405
O2    O     O_R   0.500010 0.319100 0.386900 -0.611606
O3    O     O_R   0.373700 0.499980 0.613090 -0.594876
O4    O     O_R   0.373730 0.500020 0.386960 -0.578946
O5    O     O_R   0.499990 0.680900 0.613100 -0.608977
O6    O     O_R   0.500010 0.680940 0.386960 -0.580678
O7    O     O_R   0.626270 0.499980 0.613040 -0.592533
O8    O     O_R   0.626300 0.500020 0.386910 -0.592399
Zn1   Zn    Zn3+2 0.499980 0.499970 0.650990 0.953771
Zn2   Zn    Zn3+2 0.500020 0.500030 0.349010 0.967332

loop_
_geom_bond_atom_site_label_1
_geom_bond_atom_site_label_2
_ccdc_geom_bond_type
C4    C16   S    
C1    O2    A    
C6    C7    T    
C3    C9    S    
O3    Zn1   S    
O4    Zn2   S    
O1    Zn1   S    
C8    C9    T    
C7    C8    S    
C10   C12   S    
N1    Zn1   S    
C2    C11   S    
O6    Zn2   S    
N2    Zn2   S    
O7    Zn1   S    
O8    Zn2   S    
C14   N1    D    
C5    C6    S    
O5    Zn1   S    
C1    C13   S    
C10   C11   D    
C3    O7    A    
C16   O4    A    
C14   H4    S    
C12   C13   D    
O2    Zn2   S    
C2    O6    A    
H7    N2    S    
C12   H2    S    
C1    O1    A    
C13   H3    S    
C14   C15   S    
C4    C5    T    
C15   N2    D    
H5    N1    S    
C3    O8    A    
C10   I1    S    
C16   O3    A    
C15   H6    S    
C11   H1    S    
C2    O5    A    
