data_mof_unit_32091.cif
_audit_creation_date              2012-12-11T15:08:37-0500
_audit_creation_method            fapswitch 2.2
_symmetry_space_group_name_H-M    P1
_symmetry_Int_Tables_number       1
_space_group_crystal_system       triclinic
_cell_length_a                    26.98117
_cell_length_b                    7.073087
_cell_length_c                    12.122205
_cell_angle_alpha                 90.003719
_cell_angle_beta                  104.235394
_cell_angle_gamma                 89.993956
_cell_volume                      2242.36733098

loop_
_atom_site_label
_atom_site_type_symbol
_atom_type_description
_atom_site_fract_x
_atom_site_fract_y
_atom_site_fract_z
_atom_type_partial_charge
O1    O     O_R   0.437360 0.505910 0.042120 -0.547647
O2    O     O_R   0.562640 0.005910 0.957880 -0.547602
O3    O     O_R   0.542480 0.176660 0.157100 -0.541532
O4    O     O_R   0.457520 0.676660 0.842900 -0.541574
C1    C     C_R   0.555890 0.344922 0.198468 0.709507
C2    C     C_R   0.444113 0.844926 0.801528 0.709547
O5    O     O_R   0.436520 0.176250 0.054800 -0.530069
O6    O     O_R   0.563480 0.676250 0.945200 -0.530098
O7    O     O_R   0.455920 0.005040 0.854840 -0.534377
O8    O     O_R   0.544080 0.505040 0.145160 -0.534392
C3    C     C_R   0.417644 0.345313 0.062713 0.706489
C4    C     C_R   0.582353 0.845295 0.937279 0.706442
O9    O     O_3   0.506490 0.338900 0.934520 -0.373369
O10   O     O_3   0.493510 0.838900 0.065480 -0.373416
V1    V     V_3+5 0.498800 0.064400 0.012150 1.504048
V2    V     V_3+5 0.501200 0.564400 0.987850 1.503974
C5    C     C_R   0.678674 0.941701 0.769830 -0.164540
C6    C     C_R   0.321310 0.442130 0.230114 -0.164655
H1    H     H_    0.597182 0.948377 0.736573 0.124480
H2    H     H_    0.402800 0.449062 0.263321 0.124596
H3    H     H_    0.677177 0.981811 0.682870 0.141292
H4    H     H_    0.322800 0.482483 0.317036 0.141270
C7    C     C_R   0.631828 0.858625 0.907933 -0.062288
C8    C     C_R   0.368167 0.358699 0.092071 -0.062299
C9    C     C_R   0.868986 0.816572 0.208377 -0.099277
C10   C     C_R   0.131013 0.316405 0.791609 -0.099312
C11   C     C_R   0.824193 0.836287 0.245766 -0.051862
C12   C     C_R   0.175817 0.335902 0.754240 -0.051861
C13   C     C_R   0.777937 0.874141 0.167784 -0.201620
C14   C     C_R   0.222074 0.373689 0.832231 -0.201611
C15   C     C_R   0.774088 0.872373 0.049413 0.064334
C16   C     C_R   0.225911 0.372135 0.950596 0.064384
C17   C     C_R   0.820512 0.879652 0.013481 0.051259
C18   C     C_R   0.179483 0.379562 0.986507 0.051269
C19   C     C_R   0.725883 0.872987 0.966102 0.028122
C20   C     C_R   0.274111 0.372868 0.033918 0.028154
C21   C     C_R   0.725571 0.914891 0.850818 0.076343
C22   C     C_R   0.274417 0.415044 0.149165 0.076322
C23   C     C_R   0.771981 0.926000 0.817651 -0.069317
C24   C     C_R   0.228005 0.426154 0.182328 -0.069327
C25   C     C_R   0.818461 0.905357 0.897583 -0.238618
C26   C     C_R   0.181528 0.405405 0.102396 -0.238606
C27   C     C_R   0.677969 0.826319 0.990395 -0.106320
C28   C     C_R   0.322028 0.326093 0.009667 -0.106460
C29   C     C_R   0.632598 0.920913 0.799569 -0.157409
C30   C     C_R   0.367388 0.421349 0.200368 -0.157226
C31   C     C_R   0.868192 0.856636 0.094319 -0.122204
C32   C     C_R   0.131805 0.356557 0.905663 -0.122202
H5    H     H_    0.745640 0.907648 0.201799 0.140313
H6    H     H_    0.254387 0.406993 0.798225 0.140241
C33   C     C_R   0.093159 0.861369 0.309440 -0.046786
C34   C     C_R   0.906857 0.361401 0.690546 -0.046756
C35   C     C_R   0.410302 0.856218 0.687029 -0.043312
C36   C     C_R   0.589715 0.356172 0.312953 -0.043276
C37   C     C_R   0.108462 0.831695 0.513399 -0.126868
C38   C     C_R   0.891570 0.332548 0.486545 -0.126866
C39   C     C_R   0.074711 0.847370 0.406882 -0.130939
C40   C     C_R   0.925315 0.348027 0.593084 -0.130786
C41   C     C_R   0.145905 0.872511 0.319304 -0.202166
C42   C     C_R   0.854108 0.372164 0.680693 -0.202210
C43   C     C_R   0.181183 0.866528 0.427415 0.128119
C44   C     C_R   0.818834 0.366498 0.572568 0.128047
C45   C     C_R   0.161347 0.838030 0.524290 0.145423
C46   C     C_R   0.838681 0.338566 0.475655 0.145309
C47   C     C_R   0.235280 0.884467 0.442478 0.090850
C48   C     C_R   0.764735 0.384254 0.557524 0.090907
C49   C     C_R   0.268705 0.855701 0.552610 0.089270
C50   C     C_R   0.731318 0.355830 0.447347 0.089290
C51   C     C_R   0.246747 0.823672 0.645636 -0.157849
C52   C     C_R   0.753285 0.324291 0.354276 -0.157924
C53   C     C_R   0.194249 0.817890 0.631634 -0.200569
C54   C     C_R   0.805786 0.318711 0.368279 -0.200642
C55   C     C_R   0.256904 0.932400 0.351440 -0.179755
C56   C     C_R   0.743102 0.431696 0.648632 -0.179807
C57   C     C_R   0.309382 0.948159 0.366380 -0.196981
C58   C     C_R   0.690621 0.447234 0.633721 -0.196996
C59   C     C_R   0.343075 0.915575 0.472674 0.075660
C60   C     C_R   0.656935 0.414951 0.527382 0.075702
C61   C     C_R   0.322932 0.864987 0.566761 0.081642
C62   C     C_R   0.677088 0.364939 0.433208 0.081717
C63   C     C_R   0.396666 0.935611 0.487596 -0.024289
C64   C     C_R   0.603338 0.434713 0.512508 -0.024334
C65   C     C_R   0.429583 0.909890 0.595134 -0.200366
C66   C     C_R   0.570421 0.409237 0.404945 -0.200376
C67   C     C_R   0.357952 0.827997 0.672303 -0.161943
C68   C     C_R   0.642075 0.328297 0.327607 -0.161891
H7    H     H_    0.179241 0.796293 0.705876 0.129269
H8    H     H_    0.820801 0.297525 0.294004 0.129275
H9    H     H_    0.345984 0.780868 0.746164 0.109401
H10   H     H_    0.654052 0.281642 0.253658 0.109346
H11   H     H_    0.470395 0.931696 0.607556 0.117729
H12   H     H_    0.529600 0.430761 0.392581 0.117846
H13   H     H_    0.034228 0.848298 0.400641 0.156546
H14   H     H_    0.965801 0.349298 0.599328 0.156426
H15   H     H_    0.234080 0.964284 0.267356 0.127402
H16   H     H_    0.765918 0.463337 0.732766 0.127373
O11   O     O_R   0.955980 0.206520 0.854760 -0.536323
O12   O     O_R   0.044020 0.706520 0.145240 -0.536332
O13   O     O_R   0.063490 0.536770 0.945200 -0.544317
O14   O     O_R   0.936510 0.036770 0.054800 -0.544315
C69   C     C_R   0.082989 0.367884 0.939588 0.694491
C70   C     C_R   0.917007 0.867904 0.060395 0.694536
O15   O     O_R   0.957530 0.536190 0.842880 -0.541320
O16   O     O_R   0.042470 0.036190 0.157120 -0.541293
O17   O     O_R   0.937350 0.707210 0.042130 -0.539373
O18   O     O_R   0.062650 0.207210 0.957870 -0.539379
C71   C     C_R   0.942531 0.368118 0.803208 0.702287
C72   C     C_R   0.057478 0.868116 0.196784 0.702292
O19   O     O_3   0.993540 0.373870 0.065440 -0.374188
O20   O     O_3   0.006460 0.873870 0.934560 -0.374196
V3    V     V_3+5 0.001200 0.648440 0.987860 1.464346
V4    V     V_3+5 0.998800 0.148440 0.012140 1.464391
H17   H     H_    0.323349 0.987872 0.293170 0.149130
H18   H     H_    0.676646 0.486527 0.706998 0.149112
H19   H     H_    0.093173 0.815382 0.587607 0.133307
H20   H     H_    0.906865 0.316693 0.412311 0.133493
H21   H     H_    0.158048 0.881895 0.241130 0.093239
H22   H     H_    0.841961 0.381084 0.758881 0.093243
H23   H     H_    0.268917 0.807604 0.731907 0.135205
H24   H     H_    0.731121 0.308461 0.267977 0.135179
C73   C     C_1   0.419092 0.986339 0.394879 0.268340
N1    N     N_1   0.437127 0.026678 0.320804 -0.365111
C74   C     C_1   0.580908 0.484903 0.605313 0.268160
N2    N     N_1   0.562871 0.524823 0.679466 -0.364773
C75   C     C_1   0.772648 0.944311 0.699595 0.300395
N3    N     N_1   0.772319 0.957583 0.604472 -0.319406
C76   C     C_1   0.227331 0.444519 0.300380 0.300333
N4    N     N_1   0.227647 0.457810 0.395496 -0.319479
C77   C     C_1   0.674545 0.726340 0.092527 0.267042
N5    N     N_1   0.671458 0.646643 0.173901 -0.373242
C78   C     C_1   0.325450 0.225628 0.907684 0.267309
N6    N     N_1   0.328531 0.145521 0.826441 -0.373369
C79   C     C_1   0.914886 0.746600 0.286209 0.283831
N7    N     N_1   0.950855 0.686540 0.348770 -0.382121
C80   C     C_1   0.085099 0.246580 0.713761 0.283843
N8    N     N_1   0.049116 0.186645 0.651202 -0.381899
C81   C     C_1   0.825224 0.815404 0.364614 0.338796
N9    N     N_1   0.826907 0.797354 0.460175 -0.306695
C82   C     C_1   0.174803 0.314907 0.635402 0.338702
N10   N     N_1   0.173141 0.296787 0.539853 -0.306775
H25   H     H_    0.853229 0.909543 0.867982 0.126366
H26   H     H_    0.146759 0.409634 0.131991 0.126383

loop_
_geom_bond_atom_site_label_1
_geom_bond_atom_site_label_2
_ccdc_geom_bond_type
C50   C62   A    
C48   C50   A    
C7    C29   A    
C11   C13   A    
O1    C3    A    
O16   C72   A    
O2    C4    A    
C2    O7    A    
C36   C66   A    
C7    C27   A    
C74   N2    T    
C23   C25   A    
C13   H5    S    
C28   C78   S    
O5    C3    A    
C4    C7    S    
C11   C81   S    
C56   C58   A    
C23   C75   S    
C16   C20   A    
O15   V3    S    
C19   C21   A    
C58   C60   A    
O19   V3    S    
C60   C62   A    
C48   C56   A    
C3    C8    S    
C47   C55   A    
C70   O17   A    
C42   C44   A    
O6    V2    S    
C51   C53   A    
O20   V3    S    
C62   C68   A    
C10   C80   S    
C34   C42   A    
C63   C65   A    
C34   C71   S    
C52   H24   S    
C33   C72   S    
C47   C49   A    
C18   C26   A    
C26   H26   S    
C44   C46   A    
C38   C46   A    
C42   H22   S    
C57   H17   S    
C38   C40   A    
C19   C27   A    
C9    C31   A    
C10   C32   A    
O5    V1    S    
O17   V3    S    
C41   H21   S    
C31   C70   S    
C39   H13   S    
C13   C15   A    
C55   C57   A    
C12   C82   S    
C6    C30   A    
O14   C70   A    
C54   H8    S    
C59   C61   A    
C14   H6    S    
C41   C43   A    
C44   C48   A    
C56   H16   S    
C1    C36   S    
C27   C77   S    
C49   C61   A    
O4    C2    A    
C68   H10   S    
O19   V4    S    
C36   C68   A    
O11   V4    S    
C67   H9    S    
O18   V4    S    
C6    C22   A    
C24   C76   S    
C51   H23   S    
C5    H3    S    
C37   C45   A    
C49   C51   A    
C16   C18   A    
O4    V2    S    
C25   H25   S    
C60   C64   A    
C58   H18   S    
C59   C63   A    
O6    C4    A    
O13   V3    S    
C15   C17   A    
C38   H20   S    
O1    V2    S    
C5    C21   A    
O2    V1    S    
C57   C59   A    
C73   N1    T    
C34   C40   A    
C33   C39   A    
O13   C69   A    
C45   C53   A    
O14   V4    S    
C64   C66   A    
C37   C39   A    
C75   N3    T    
C17   C31   A    
C53   H7    S    
C20   C28   A    
C18   C32   A    
C55   H15   S    
C2    C35   S    
C76   N4    T    
C64   C74   S    
C61   C67   A    
C9    C79   S    
O16   V4    S    
C77   N5    T    
C69   O18   A    
O12   V3    S    
C6    H4    S    
O12   C72   A    
C43   C45   A    
C5    C29   A    
O3    C1    A    
C52   C54   A    
C82   N10   T    
H1    C29   S    
C9    C11   A    
C65   H11   S    
C81   N9    T    
C10   C12   A    
C35   C65   A    
O15   C71   A    
C8    C30   A    
C20   C22   A    
O7    V1    S    
C17   C25   A    
C1    O8    A    
C21   C23   A    
O8    V2    S    
C14   C16   A    
C37   H19   S    
C79   N7    T    
C22   C24   A    
C8    C28   A    
C32   C69   S    
C24   C26   A    
C12   C14   A    
C15   C19   A    
C46   C54   A    
C40   H14   S    
O20   V4    S    
C80   N8    T    
O11   C71   A    
C43   C47   A    
C33   C41   A    
C50   C52   A    
O9    V2    S    
C63   C73   S    
O10   V1    S    
O3    V1    S    
C35   C67   A    
C66   H12   S    
H2    C30   S    
C78   N6    T    
