data_mof_unit_17700.cif
_audit_creation_date              2012-10-26T19:35:38-0400
_audit_creation_method            fapswitch 2.2
_symmetry_space_group_name_H-M    P1
_symmetry_Int_Tables_number       1
_space_group_crystal_system       triclinic
_cell_length_a                    15.837557
_cell_length_b                    10.855323
_cell_length_c                    9.634076
_cell_angle_alpha                 92.863966
_cell_angle_beta                  90.162849
_cell_angle_gamma                 90.94362
_cell_volume                      1654.00341134

loop_
_atom_site_label
_atom_site_type_symbol
_atom_type_description
_atom_site_fract_x
_atom_site_fract_y
_atom_site_fract_z
_atom_type_partial_charge
C1    C     C_R   0.499859 0.262817 0.496656 0.530883
C2    C     C_R   0.497024 0.129522 0.488663 -0.003384
C3    C     C_R   0.549594 0.061047 0.398112 -0.181687
C4    C     C_R   0.339989 0.499108 0.499798 0.541938
C5    C     C_R   0.553393 0.932656 0.406663 -0.163149
C6    C     C_R   0.503303 0.871369 0.503145 0.012619
C7    C     C_R   0.446320 0.939688 0.583476 -0.040607
C8    C     C_3   0.432659 0.941886 0.736260 -0.252183
C9    C     C_3   0.436584 0.082115 0.735440 0.136056
C10   C     C_R   0.536353 0.592317 0.078785 0.075621
C11   C     C_R   0.457184 0.411791 0.069047 -0.011093
C12   C     C_3   0.082584 0.491570 0.500976 0.012512
C13   C     C_R   0.457580 0.411419 0.920447 -0.000804
C14   C     C_R   0.529760 0.600029 0.935014 0.208010
C15   C     C_3   0.611505 0.674917 0.939080 0.500044
C16   C     C_R   0.502038 0.737563 0.502304 0.545615
C17   C     C_3   0.622587 0.643631 0.092856 -0.219182
C18   C     C_R   0.659917 0.498507 0.500114 0.540618
C19   C     C_3   0.970829 0.379739 0.471870 0.305256
C20   C     C_3   0.026815 0.453179 0.374013 -0.095003
C21   C     C_1   0.250099 0.496228 0.499582 -0.036750
C22   C     C_1   0.749615 0.495230 0.500495 -0.029822
C23   C     C_3   0.972757 0.531237 0.628499 -0.136273
C24   C     C_3   0.027384 0.415679 0.598332 -0.103511
C25   C     C_3   0.587423 0.118232 0.774477 0.032167
C26   C     C_3   0.647409 0.185600 0.879031 -0.259960
C27   C     C_3   0.738848 0.148611 0.854590 -0.492136
C28   C     C_3   0.750478 0.689972 0.859569 0.039497
C29   C     C_3   0.758429 0.775421 0.737804 -0.235818
C30   C     C_3   0.845105 0.838781 0.735563 -0.506560
C31   C     C_3   0.570866 0.882471 0.019582 -0.052850
C32   C     C_3   0.479810 0.861285 0.072621 -0.282785
C33   C     C_3   0.432932 0.981497 0.105768 -0.451690
C34   C     C_3   0.916928 0.492965 0.502258 0.074186
C35   C     C_3   0.994986 0.171694 0.436385 0.006087
C36   C     C_3   0.954513 0.048890 0.385351 -0.251777
C37   C     C_3   0.017120 0.943794 0.389466 -0.492743
C38   C     C_3   0.029603 0.607054 0.532141 -0.117913
C39   C     C_3   0.972337 0.568559 0.405940 -0.136406
C40   C     C_1   0.174401 0.493642 0.500070 -0.068287
C41   C     C_1   0.825207 0.493544 0.501456 -0.031877
C42   C     C_R   0.447468 0.066822 0.581352 0.007609
Cu1   Cu    Cu3+1 0.500000 0.499980 0.640670 0.999860
Cu2   Cu    Cu3+1 0.500000 0.500020 0.359330 0.922804
H1    H     H_    0.484974 0.898713 0.788385 0.208382
H2    H     H_    0.597149 0.881530 0.341221 0.106189
H3    H     H_    0.050061 0.419891 0.270435 0.096699
H4    H     H_    0.602448 0.157188 0.674185 0.157533
H5    H     H_    0.601032 0.018394 0.764842 0.142875
H6    H     H_    0.642190 0.286794 0.868568 0.196926
H7    H     H_    0.629543 0.166184 0.987232 0.157449
H8    H     H_    0.746306 0.049522 0.874138 0.147848
H9    H     H_    0.780865 0.203751 0.927194 0.154474
H10   H     H_    0.758011 0.165619 0.746265 0.161065
H11   H     H_    0.423544 0.339241 0.119878 0.120866
H12   H     H_    0.374622 0.123601 0.761896 0.106453
H13   H     H_    0.802745 0.622961 0.852789 0.128605
H14   H     H_    0.759042 0.744260 0.960245 0.110968
H15   H     H_    0.748358 0.721742 0.638110 0.166311
H16   H     H_    0.709608 0.847404 0.745448 0.191558
H17   H     H_    0.847116 0.904206 0.650669 0.143691
H18   H     H_    0.895153 0.769753 0.716773 0.147773
H19   H     H_    0.857842 0.890893 0.835766 0.141523
H20   H     H_    0.573063 0.974925 0.980036 0.186941
H21   H     H_    0.619089 0.891638 0.102735 0.097704
H22   H     H_    0.441752 0.805329 0.995014 0.161395
H23   H     H_    0.423129 0.339874 0.861460 0.157295
H24   H     H_    0.482234 0.810015 0.168741 0.180470
H25   H     H_    0.475465 0.053711 0.153461 0.167195
H26   H     H_    0.380162 0.964302 0.178337 0.143969
H27   H     H_    0.405932 0.017246 0.009992 0.167656
H28   H     H_    0.668750 0.568899 0.106000 0.123735
H29   H     H_    0.020322 0.161657 0.543052 0.126988
H30   H     H_    0.047681 0.194336 0.365032 0.123157
H31   H     H_    0.899513 0.027667 0.451977 0.167493
H32   H     H_    0.931520 0.056185 0.276982 0.164089
H33   H     H_    0.072399 0.962339 0.322479 0.145714
H34   H     H_    0.627932 0.716331 0.176398 0.090277
H35   H     H_    0.985877 0.856465 0.350707 0.140703
H36   H     H_    0.039042 0.932720 0.497691 0.141109
H37   H     H_    0.369159 0.904830 0.762540 0.092741
H38   H     H_    0.948097 0.631078 0.327874 0.097431
H39   H     H_    0.055504 0.701155 0.557387 0.110169
H40   H     H_    0.949354 0.562670 0.732567 0.095654
H41   H     H_    0.051373 0.353462 0.676942 0.087551
H42   H     H_    0.590620 0.106954 0.326435 0.121441
N1    N     N_R   0.500530 0.500930 0.147930 -0.242470
N2    N     N_R   0.500530 0.500890 0.852020 -0.242951
O1    O     O_R   0.500000 0.319640 0.618810 -0.483701
O2    O     O_3   0.673481 0.621351 0.850686 -0.534552
O3    O     O_3   0.594636 0.799724 0.907263 -0.600980
O4    O     O_3   0.932994 0.263444 0.438388 -0.572218
O5    O     O_R   0.500010 0.319680 0.381230 -0.512621
O6    O     O_R   0.379070 0.499970 0.618770 -0.508678
O7    O     O_R   0.379080 0.500010 0.381190 -0.495415
O8    O     O_R   0.499990 0.680320 0.618770 -0.474715
O9    O     O_R   0.500000 0.680360 0.381190 -0.519157
O10   O     O_R   0.620920 0.499990 0.618810 -0.439924
O11   O     O_R   0.620930 0.500030 0.381230 -0.507468
O12   O     O_3   0.502970 0.140797 0.817306 -0.580347

loop_
_geom_bond_atom_site_label_1
_geom_bond_atom_site_label_2
_ccdc_geom_bond_type
C35   H30   S    
C38   H39   S    
C19   C20   S    
Cu1   O10   S    
C27   H10   S    
C7    C8    S    
C28   H13   S    
C37   H35   S    
C9    C42   S    
Cu1   O1    S    
Cu1   N2    S    
C36   C37   S    
C26   H6    S    
C38   C39   S    
Cu2   O11   S    
C16   O9    A    
C22   C41   T    
C10   C17   S    
Cu1   O6    S    
C31   H21   S    
C1    C2    S    
C7    C42   A    
C8    H1    S    
Cu2   O5    S    
C36   H32   S    
C35   H29   S    
C29   H15   S    
C11   N1    A    
C8    C9    S    
C23   C24   S    
C19   O4    S    
Cu2   N1    S    
C24   H41   S    
C33   H25   S    
C32   H24   S    
C35   O4    S    
C30   H19   S    
C3    H42   S    
C34   C41   S    
C37   H36   S    
C10   N1    A    
C16   O8    A    
C23   H40   S    
C34   C39   S    
C10   C14   A    
C20   C39   S    
C25   C26   S    
C37   H33   S    
C8    H37   S    
C35   C36   S    
C12   C40   S    
Cu1   Cu2   S    
C29   C30   S    
C36   H31   S    
C4    O7    A    
Cu2   O9    S    
C25   O12   S    
C31   C32   S    
C29   H16   S    
C23   C34   S    
C12   C20   S    
Cu1   O8    S    
C26   C27   S    
C9    H12   S    
C25   H4    S    
C33   H26   S    
C4    O6    A    
C9    O12   S    
C31   O3    S    
C30   H18   S    
C18   O11   A    
C11   H11   S    
C27   H8    S    
C32   H22   S    
C13   H23   S    
C15   C17   S    
C28   C29   S    
C1    O1    A    
C18   C22   S    
C31   H20   S    
C39   H38   S    
C3    C5    A    
C19   C34   S    
C27   H9    S    
C6    C7    A    
C28   H14   S    
C23   C38   S    
C5    H2    S    
C12   C24   S    
C32   C33   S    
C2    C3    A    
C14   N2    A    
Cu2   O7    S    
C26   H7    S    
C15   O2    S    
C4    C21   S    
C11   C13   A    
C5    C6    A    
C21   C40   T    
C2    C42   A    
C13   N2    A    
C17   H34   S    
C19   C24   S    
C12   C38   S    
C25   H5    S    
C20   H3    S    
C33   H27   S    
C15   O3    S    
C17   H28   S    
C1    O5    A    
C30   H17   S    
C14   C15   S    
C28   O2    S    
C18   O10   A    
C6    C16   S    
