data_mof_unit_60285.cif
_audit_creation_date              2013-03-05T15:40:11-0500
_audit_creation_method            fapswitch 2.2
_symmetry_space_group_name_H-M    P1
_symmetry_Int_Tables_number       1
_space_group_crystal_system       triclinic
_cell_length_a                    16.402456
_cell_length_b                    16.588774
_cell_length_c                    28.764941
_cell_angle_alpha                 90.122339
_cell_angle_beta                  91.600729
_cell_angle_gamma                 90.130535
_cell_volume                      7823.75008691

loop_
_atom_site_label
_atom_site_type_symbol
_atom_site_description
_atom_site_fract_x
_atom_site_fract_y
_atom_site_fract_z
_atom_type_partial_charge
O1    O     O_R   0.589050 0.066000 0.546390 -0.575530
O2    O     O_R   0.585350 0.934000 0.453610 -0.586773
O3    O     O_R   0.586750 0.068930 0.454890 -0.565116
O4    O     O_R   0.587650 0.931070 0.545110 -0.594918
C1    C     C_R   0.617439 0.998052 0.560852 0.868488
C2    C     C_R   0.613488 0.001720 0.439643 0.982677
O5    O     O_R   0.413250 0.931070 0.545110 -0.611659
O6    O     O_R   0.412350 0.068930 0.454890 -0.577747
O7    O     O_R   0.410950 0.934000 0.453610 -0.604122
O8    O     O_R   0.414650 0.066000 0.546390 -0.580843
Zn1   Zn    Zn3+2 0.500940 0.090730 0.500860 1.165720
Zn2   Zn    Zn3+2 0.499060 0.909270 0.499140 1.121582
C3    C     C_R   0.386043 0.998353 0.560350 0.864579
C4    C     C_R   0.384601 0.002034 0.438096 0.941817
C5    C     C_R   0.248167 0.061659 0.335810 0.247826
C6    C     C_R   0.313672 0.062957 0.368224 0.225048
C7    C     C_R   0.723334 0.976471 0.328216 0.263307
C8    C     C_R   0.661246 0.975370 0.360621 0.177680
C9    C     C_R   0.043193 0.199902 0.131472 0.315237
C10   C     C_R   0.043126 0.262888 0.099179 0.189485
C11   C     C_R   0.939894 0.827399 0.121128 0.271048
C12   C     C_R   0.942345 0.763718 0.089211 0.161737
C13   C     C_R   0.023509 0.748942 0.176594 0.252450
C14   C     C_R   0.025119 0.685026 0.144799 0.179870
C15   C     C_R   0.950094 0.275682 0.179373 -0.177445
C16   C     C_R   0.949934 0.338793 0.147745 0.263015
C17   C     C_R   0.197630 0.936560 0.370470 0.317738
C18   C     C_R   0.262611 0.939319 0.402628 -0.240569
H1    H     H_    0.267763 0.892717 0.428890 0.221357
C19   C     C_R   0.817877 0.032386 0.387684 0.238030
C20   C     C_R   0.755717 0.030794 0.420019 0.188468
C21   C     C_3   0.988196 0.009707 0.253266 -0.138235
C22   C     C_R   0.190148 0.998974 0.337407 -0.168264
C23   C     C_R   0.319365 0.002426 0.402488 -0.209639
C24   C     C_R   0.801005 0.005516 0.341953 -0.219634
C25   C     C_R   0.677734 0.002679 0.406205 -0.309044
C26   C     C_R   0.995867 0.206784 0.171105 -0.063971
C27   C     C_R   0.996007 0.332412 0.107331 -0.234113
C28   C     C_R   0.980972 0.819668 0.164452 -0.217307
C29   C     C_R   0.985028 0.692876 0.101137 -0.276598
H2    H     H_    0.913978 0.280098 0.210265 0.205358
C30   C     C_1   0.061777 0.005052 0.281621 0.112941
C31   C     C_1   0.988804 0.082837 0.226436 0.066918
C32   C     C_1   0.919213 0.008779 0.283031 0.090862
C33   C     C_1   0.984017 0.941568 0.222208 0.112139
C34   C     C_1   0.121193 0.001584 0.306381 0.207761
C35   C     C_1   0.981816 0.885700 0.196066 0.203778
C36   C     C_1   0.991181 0.141100 0.202337 0.143463
C37   C     C_1   0.864225 0.007365 0.309213 0.206292
C38   C     C_R   0.990455 0.086526 0.816067 0.265673
C39   C     C_R   0.013549 0.144288 0.850440 0.232472
C40   C     C_R   0.070366 0.904772 0.818033 -0.234223
C41   C     C_R   0.063575 0.844891 0.851284 -0.098490
H3    H     H_    0.111129 0.838481 0.877940 0.176105
C42   C     C_R   0.908515 0.069358 0.704319 0.304111
C43   C     C_R   0.836014 0.066246 0.676582 0.264744
C44   C     C_R   0.154973 0.897701 0.726693 -0.205474
C45   C     C_R   0.233288 0.887122 0.709588 0.309008
C46   C     C_R   0.141735 0.025825 0.686951 0.284529
C47   C     C_R   0.221719 0.017011 0.671030 0.185547
C48   C     C_R   0.947226 0.938166 0.673359 0.209393
C49   C     C_R   0.876278 0.937684 0.644582 0.257856
C50   C     C_R   0.126183 0.096280 0.785347 -0.207756
C51   C     C_R   0.148089 0.153228 0.818807 0.288650
C52   C     C_R   0.941006 0.862966 0.781565 0.384462
C53   C     C_R   0.936454 0.802328 0.815599 -0.142536
H4    H     H_    0.884166 0.762199 0.815456 0.192620
C54   C     C_3   0.029819 0.987698 0.746933 0.037862
C55   C     C_R   0.046629 0.061684 0.781206 -0.020835
C56   C     C_R   0.092516 0.176917 0.851756 -0.084271
C57   C     C_R   0.011156 0.916183 0.781394 -0.009611
C58   C     C_R   0.997015 0.793374 0.850032 0.075364
C59   C     C_R   0.960219 0.999561 0.708419 -0.120880
C60   C     C_R   0.818982 0.999603 0.647938 -0.138289
C61   C     C_R   0.109917 0.969708 0.719532 -0.125191
C62   C     C_R   0.268596 0.949412 0.683816 -0.127906
H5    H     H_    0.124690 0.941860 0.820383 0.179545
H6    H     H_    0.129535 0.847527 0.745143 0.225111
H7    H     H_    0.176191 0.077171 0.764825 0.184570
C63   C     C_1   0.991867 0.730801 0.884256 0.027924
C64   C     C_1   0.990457 0.678781 0.913316 -0.092805
C65   C     C_1   0.118992 0.231450 0.888319 0.060468
C66   C     C_1   0.143226 0.276215 0.918722 0.202922
C67   C     C_1   0.746256 0.998332 0.618158 0.188084
C68   C     C_1   0.686725 0.997528 0.592514 -0.038487
C69   C     C_1   0.354174 0.946495 0.673176 0.085150
C70   C     C_1   0.425928 0.943964 0.665181 0.133564
O9    O     O_R   0.056930 0.600420 0.055130 -0.590323
O10   O     O_R   0.924600 0.421430 0.056650 -0.583573
O11   O     O_R   0.061270 0.426220 0.059090 -0.570986
O12   O     O_R   0.920260 0.595630 0.052680 -0.571555
C71   C     C_R   0.987516 0.626713 0.068096 0.987680
C72   C     C_R   0.993788 0.397142 0.073351 0.969566
O13   O     O_R   0.924170 0.588160 0.962540 -0.588889
O14   O     O_R   0.065180 0.418740 0.968950 -0.612607
O15   O     O_R   0.928510 0.413960 0.966510 -0.588833
O16   O     O_R   0.060840 0.592940 0.964990 -0.609296
Zn3   Zn    Zn3+2 0.084620 0.510410 0.012460 1.106279
Zn4   Zn    Zn3+2 0.900820 0.503970 0.009170 1.130794
C73   C     C_R   0.991744 0.617254 0.948099 0.888822
C74   C     C_R   0.997853 0.387158 0.953655 0.865410
Br1   Br    Br    0.399000 0.142230 0.361560 -0.263249
N1    N     N_R   0.707510 0.948596 0.281478 0.247089
O17   O     O_R   0.678969 0.876348 0.273990 -0.260019
O18   O     O_R   0.724641 0.994023 0.246226 -0.321956
Br2   Br    Br    0.106263 0.103575 0.121222 -0.271905
N2    N     N_R   0.896591 0.900100 0.109355 0.248981
O19   O     O_R   0.819536 0.897161 0.097449 -0.253008
O20   O     O_R   0.933326 0.969646 0.111787 -0.331408
N3    N     N_R   0.065037 0.742149 0.221087 0.245063
O21   O     O_R   0.142464 0.725307 0.223537 -0.266591
O22   O     O_R   0.026600 0.756583 0.259176 -0.295778
N4    N     N_R   0.140572 0.870274 0.372207 0.250777
O23   O     O_R   0.164002 0.801034 0.389000 -0.279504
O24   O     O_R   0.063831 0.879937 0.361007 -0.292727
N5    N     N_R   0.897356 0.062833 0.401164 0.246319
O25   O     O_R   0.904570 0.130594 0.423798 -0.256718
O26   O     O_R   0.962586 0.021640 0.392436 -0.319937
Br3   Br    Br    0.938072 0.178230 0.897060 -0.348006
Br4   Br    Br    0.759185 0.154646 0.676655 -0.263497
Br5   Br    Br    0.552191 0.942752 0.341597 -0.300121
N6    N     N_R   0.276561 0.813393 0.719714 0.238203
O27   O     O_R   0.260874 0.772396 0.756961 -0.333245
O28   O     O_R   0.325713 0.782629 0.689724 -0.310517
Br6   Br    Br    0.267823 0.100875 0.633527 -0.336423
N7    N     N_R   0.861684 0.872255 0.612552 0.256797
O29   O     O_R   0.912490 0.857941 0.579631 -0.225436
O30   O     O_R   0.795567 0.829143 0.614913 -0.291428
Br7   Br    Br    0.258093 0.193838 0.819631 -0.348633
Br8   Br    Br    0.881474 0.044483 0.819215 -0.292531
Br9   Br    Br    0.938948 0.176321 0.725783 -0.255964
N8    N     N_R   0.096065 0.095271 0.672592 0.229439
O31   O     O_R   0.050774 0.090896 0.634819 -0.296611
O32   O     O_R   0.117981 0.165982 0.688182 -0.270129
Br10  Br    Br    0.103107 0.250681 0.042790 -0.366844
N9    N     N_R   0.005637 0.875381 0.666164 0.221098
O33   O     O_R   0.996033 0.804905 0.684921 -0.302859
O34   O     O_R   0.056848 0.882860 0.632684 -0.293189
N10   N     N_R   0.873050 0.866865 0.749089 0.180053
O35   O     O_R   0.820100 0.924528 0.752438 -0.347303
O36   O     O_R   0.849640 0.801093 0.727811 -0.289119
Br11  Br    Br    0.893968 0.777174 0.027726 -0.328964
Br12  Br    Br    0.076389 0.584646 0.162812 -0.281705
Br13  Br    Br    0.887468 0.433107 0.161990 -0.338748
N11   N     N_R   0.773182 0.053156 0.467511 0.222573
O37   O     O_R   0.828446 0.014263 0.491733 -0.287696
O38   O     O_R   0.740991 0.117805 0.484819 -0.305485
N12   N     N_R   0.240409 0.124028 0.301343 0.236400
O39   O     O_R   0.238319 0.199364 0.313909 -0.270663
O40   O     O_R   0.231553 0.105597 0.257493 -0.321485

loop_
_geom_bond_atom_site_label_1
_geom_bond_atom_site_label_2
_geom_bond_distance
_ccdc_geom_bond_type
C32   C37   1.191290 T    
O5    C3    1.283822 A    
C42   C43   1.414213 A    
N7    O29   1.300627 A    
C62   C69   1.445888 S    
N2    O20   1.301186 A    
C21   C33   1.439593 S    
C9    C10   1.399520 A    
O1    Zn1   1.967599 S    
O3    C2    1.280091 A    
O2    Zn2   1.997497 S    
O16   Zn3   1.967653 S    
O14   Zn3   1.986948 S    
C45   C62   1.406153 A    
C50   H7    1.072030 S    
C41   H3    1.083948 S    
C17   C22   1.410621 A    
C54   C61   1.579574 S    
C19   C24   1.407932 A    
O10   Zn4   1.967970 S    
O1    C1    1.286075 A    
C47   Br6   1.928263 S    
O11   Zn3   1.982570 S    
C38   C55   1.440804 A    
N12   O40   1.301343 A    
C54   C57   1.582414 S    
C19   C20   1.399385 A    
C14   Br12  1.932417 S    
C5    C6    1.402884 A    
O15   Zn4   1.991986 S    
N5    O25   1.301291 A    
C30   C34   1.192477 T    
N3    O21   1.301003 A    
C9    C26   1.401645 A    
C6    C23   1.409924 A    
N1    O18   1.301246 A    
C53   C58   1.391477 A    
C50   C55   1.426132 A    
C2    C25   1.446551 S    
C54   C55   1.591352 S    
C24   C37   1.420470 S    
C39   Br3   1.934098 S    
N2    O19   1.300973 A    
C39   C56   1.402175 A    
C51   C56   1.389917 A    
O4    Zn2   1.969523 S    
C38   Br8   1.921882 S    
C31   C36   1.191805 T    
C15   C26   1.392582 A    
C53   H4    1.084390 S    
C18   C23   1.399405 A    
C46   C47   1.409421 A    
O15   C74   1.285753 A    
O10   C72   1.285873 A    
C22   C34   1.421816 S    
C43   Br4   1.935732 S    
O2    C2    1.283101 A    
C16   Br13  1.921870 S    
N11   O38   1.300695 A    
N11   O37   1.301045 A    
C33   C35   1.192080 T    
O5    Zn2   1.991137 S    
C46   N8    1.430935 S    
C45   N6    1.441697 S    
C43   C60   1.400349 A    
O9    C71   1.284890 A    
C67   C68   1.207249 T    
N9    O34   1.301399 A    
C15   H2    1.084089 S    
O12   C71   1.283970 A    
C49   N7    1.437520 S    
C69   C70   1.206297 T    
C63   C64   1.203346 T    
C19   N5    1.439739 S    
C48   C59   1.443048 A    
C15   C16   1.388424 A    
C52   C57   1.448800 A    
C47   C62   1.404938 A    
C20   N11   1.435773 S    
O7    C4    1.285796 A    
C10   C27   1.412612 A    
C11   C28   1.406292 A    
O13   C73   1.287692 A    
C13   C14   1.399524 A    
C12   C29   1.407448 A    
C12   Br11  1.931723 S    
C7    C8    1.399759 A    
C21   C32   1.437931 S    
C38   C39   1.418678 A    
C29   C71   1.451745 S    
C26   C36   1.417017 S    
C11   N2    1.437317 S    
C17   N4    1.444187 S    
C6    Br1   1.931995 S    
C52   C53   1.408475 A    
C42   Br9   1.937231 S    
O6    C4    1.286523 A    
N6    O28   1.301335 A    
C40   H5    1.082135 S    
C46   C61   1.430440 A    
N1    O17   1.301034 A    
O16   C73   1.286616 A    
C40   C41   1.386910 A    
O11   C72   1.284496 A    
C28   C35   1.421967 S    
N4    O23   1.301667 A    
C13   N3    1.437701 S    
C18   H1    1.083834 S    
N7    O30   1.301141 A    
C44   H6    1.077602 S    
C16   C27   1.408041 A    
C60   C67   1.449102 S    
N9    O33   1.299758 A    
O8    C3    1.284821 A    
C4    C23   1.460466 S    
N10   O35   1.298709 A    
C64   C73   1.430560 S    
C44   C61   1.418439 A    
C54   C59   1.581340 S    
C1    C68   1.436426 S    
C58   C63   1.436075 S    
C40   C57   1.426282 A    
N10   O36   1.301774 A    
C44   C45   1.399613 A    
C5    N12   1.437901 S    
O13   Zn4   1.982569 S    
O6    Zn1   1.969522 S    
C13   C28   1.406131 A    
C27   C72   1.453410 S    
C14   C29   1.407736 A    
C21   C31   1.439371 S    
N5    O26   1.300909 A    
N8    O31   1.300772 A    
N12   O39   1.301010 A    
C10   Br10  1.930938 S    
C7    N1    1.437357 S    
C48   C49   1.409127 A    
C56   C65   1.442819 S    
O7    Zn2   1.967595 S    
N3    O22   1.301300 A    
O3    Zn1   1.991133 S    
O8    Zn1   1.997501 S    
C8    Br5   1.931731 S    
C50   C51   1.386790 A    
C42   C59   1.439859 A    
C9    Br2   1.932139 S    
O14   C74   1.287174 A    
O4    C1    1.288970 A    
C51   Br7   1.924062 S    
N8    O32   1.301191 A    
C65   C66   1.204480 T    
C17   C18   1.392214 A    
C21   C30   1.439974 S    
C20   C25   1.406992 A    
C49   C60   1.398797 A    
C7    C24   1.406979 A    
O12   Zn4   1.986818 S    
N6    O27   1.301676 A    
C11   C12   1.399489 A    
C41   C58   1.384546 A    
C8    C25   1.405260 A    
C5    C22   1.409691 A    
O9    Zn3   1.992164 S    
C52   N10   1.435869 S    
C48   N9    1.435365 S    
N4    O24   1.300929 A    
