data_mof_unit_8427.cif
_audit_creation_date              2012-10-26T21:00:42-0400
_audit_creation_method            fapswitch 2.2
_symmetry_space_group_name_H-M    P1
_symmetry_Int_Tables_number       1
_space_group_crystal_system       triclinic
_cell_length_a                    10.858415
_cell_length_b                    9.515656
_cell_length_c                    10.782538
_cell_angle_alpha                 89.905268
_cell_angle_beta                  89.89963
_cell_angle_gamma                 89.108667
_cell_volume                      1113.96711934

loop_
_atom_site_label
_atom_site_type_symbol
_atom_type_description
_atom_site_fract_x
_atom_site_fract_y
_atom_site_fract_z
_atom_type_partial_charge
C1    C     C_R   0.261667 0.502161 0.504754 0.540698
C2    C     C_R   0.499898 0.499772 0.737400 0.522960
C3    C     C_R   0.282310 0.593470 0.129241 -0.098416
C4    C     C_R   0.280917 0.586042 0.870771 -0.075767
C5    C     C_R   0.176965 0.634934 0.064210 -0.096568
C6    C     C_R   0.176150 0.630905 0.935275 -0.094766
C7    C     C_R   0.389382 0.545314 0.934686 -0.008874
C8    C     C_R   0.389703 0.547698 0.065464 -0.027825
C9    C     C_R   0.496007 0.500031 0.129012 0.015832
C10   C     C_R   0.496402 0.498804 0.871228 -0.004257
C11   C     C_R   0.599872 0.448562 0.065139 0.120226
C12   C     C_R   0.737577 0.499462 0.492430 0.594959
C13   C     C_R   0.600922 0.449400 0.935953 0.069603
C14   C     C_R   0.064619 0.381395 0.522648 -0.176218
C15   C     C_R   0.937597 0.379206 0.518201 -0.177101
C16   C     C_R   0.871375 0.500371 0.484575 -0.032201
C17   C     C_R   0.126782 0.508253 0.507652 -0.052502
C18   C     C_R   0.933984 0.624822 0.453650 0.241042
C19   C     C_R   0.058210 0.635335 0.487270 0.232913
C20   C     C_R   0.449380 0.075427 0.403911 0.044531
C21   C     C_R   0.551863 0.073258 0.595457 0.032422
C22   C     C_R   0.450813 0.926761 0.403218 0.074787
C23   C     C_R   0.551349 0.924551 0.595743 0.053133
C24   C     C_R   0.499236 0.500085 0.262672 0.587912
Cu1   Cu    Cu3+1 0.500000 0.640660 0.500000 1.046843
Cu2   Cu    Cu3+1 0.500000 0.359340 0.500000 0.970146
H1    H     H_    0.277976 0.595898 0.229445 0.138811
H2    H     H_    0.593232 0.867978 0.672213 0.124966
H3    H     H_    0.782015 0.453318 0.105822 0.279125
H4    H     H_    0.720072 0.291223 0.108017 0.253238
H5    H     H_    0.688179 0.315147 0.817488 0.244404
H6    H     H_    0.740206 0.482576 0.813916 0.234341
H7    H     H_    0.723922 0.757141 0.213184 0.360028
H8    H     H_    0.251728 0.895752 0.642365 0.358957
H9    H     H_    0.275421 0.581217 0.770868 0.166308
H10   H     H_    0.095208 0.668676 0.114078 0.178947
H11   H     H_    0.093766 0.661565 0.885004 0.153130
H12   H     H_    0.113935 0.283999 0.542098 0.186996
H13   H     H_    0.891411 0.281934 0.539432 0.185365
H14   H     H_    0.407864 0.131905 0.327187 0.128607
H15   H     H_    0.594139 0.128025 0.671687 0.111116
H16   H     H_    0.411646 0.871985 0.325290 0.143280
N1    N     N_R   0.500000 0.852070 0.500000 -0.216999
N2    N     N_R   0.500000 0.147940 0.500000 -0.234331
N3    N     N_3   0.704885 0.396274 0.132753 -0.558921
N4    N     N_3   0.709999 0.401940 0.871960 -0.636325
O1    O     O_R   0.319640 0.618740 0.499990 -0.433988
O2    O     O_2   0.960908 0.826991 0.278416 -0.246422
O3    O     O_3   0.765093 0.678401 0.257738 -0.538494
O4    O     O_2   0.185145 0.857253 0.406573 -0.287249
O5    O     O_2   0.014640 0.908476 0.548485 -0.226046
O6    O     O_3   0.212534 0.802442 0.641790 -0.545011
O7    O     O_R   0.680360 0.618740 0.500010 -0.435802
O8    O     O_R   0.319620 0.381170 0.499990 -0.517041
O9    O     O_R   0.680380 0.381170 0.500010 -0.504179
O10   O     O_R   0.500000 0.618810 0.319650 -0.505954
O11   O     O_R   0.500000 0.618810 0.680350 -0.514942
O12   O     O_R   0.499970 0.381240 0.319640 -0.495142
O13   O     O_R   0.500030 0.381240 0.680360 -0.521520
O14   O     O_2   0.796436 0.862734 0.431310 -0.242813
S1    S     S_3+6 0.864659 0.754936 0.354748 0.060980
S2    S     S_3+6 0.117271 0.806206 0.518951 0.049065

loop_
_geom_bond_atom_site_label_1
_geom_bond_atom_site_label_2
_ccdc_geom_bond_type
C8    C9    A    
C7    C10   A    
C1    O8    A    
C18   S1    S    
C24   O10   A    
C21   N2    A    
Cu2   O12   S    
Cu2   O13   S    
Cu1   O1    S    
H4    N3    S    
H8    O6    S    
C12   O7    A    
Cu1   O10   S    
H6    N4    S    
Cu2   O9    S    
Cu1   N1    S    
C3    H1    S    
C2    O11   A    
Cu2   N2    S    
C7    C8    A    
C9    C24   S    
O6    S2    S    
C23   H2    S    
C9    C11   A    
C14   C17   A    
C15   H13   S    
O2    S1    D    
C22   H16   S    
O5    S2    D    
Cu1   O11   S    
C4    C7    A    
C21   H15   S    
Cu2   O8    S    
C16   C18   A    
C17   C19   A    
Cu1   O7    S    
C3    C8    A    
C21   C23   A    
C5    C6    A    
C20   H14   S    
C11   N3    S    
C12   O9    A    
O3    S1    S    
C15   C16   A    
C20   C22   A    
C19   S2    S    
H7    O3    S    
C14   H12   S    
C2    C10   S    
C5    H10   S    
C2    O13   A    
C11   C13   A    
C23   N1    A    
O4    S2    D    
C24   O12   A    
C18   C19   A    
H3    N3    S    
C4    H9    S    
C13   N4    S    
C1    O1    A    
C20   N2    A    
Cu1   Cu2   S    
C14   C15   A    
C4    C6    A    
C1    C17   S    
C10   C13   A    
C22   N1    A    
C12   C16   S    
C6    H11   S    
O14   S1    D    
C3    C5    A    
H5    N4    S    
