data_mof_unit_32392.cif
_audit_creation_date              2012-10-26T19:59:11-0400
_audit_creation_method            fapswitch 2.2
_symmetry_space_group_name_H-M    P1
_symmetry_Int_Tables_number       1
_space_group_crystal_system       triclinic
_cell_length_a                    7.482126
_cell_length_b                    8.791783
_cell_length_c                    15.752705
_cell_angle_alpha                 95.480737
_cell_angle_beta                  76.36816
_cell_angle_gamma                 101.497366
_cell_volume                      985.551985647

loop_
_atom_site_label
_atom_site_type_symbol
_atom_type_description
_atom_site_fract_x
_atom_site_fract_y
_atom_site_fract_z
_atom_type_partial_charge
C1    C     C_R   0.543344 0.799021 0.502617 0.532049
C2    C     C_R   0.614137 0.520503 0.334640 0.595342
C3    C     C_R   0.308497 0.473612 0.764183 -0.033116
C4    C     C_R   0.678131 0.569983 0.243500 0.040930
C5    C     C_R   0.064686 0.370816 0.889306 -0.139965
C6    C     C_R   0.806989 0.789028 0.150542 -0.143182
C7    C     C_R   0.125573 0.388159 0.799016 0.013336
C8    C     C_R   0.802488 0.713673 0.225152 -0.024526
C9    C     C_R   0.419159 0.545951 0.824394 -0.033830
C10   C     C_R   0.573156 0.498436 0.181381 -0.008653
C11   C     C_R   0.349975 0.534277 0.916303 0.035008
C12   C     C_R   0.456894 0.201619 0.499406 0.601612
C13   C     C_R   0.557745 0.587544 0.113272 0.004436
C14   C     C_R   0.178727 0.434643 0.946822 0.017922
C15   C     C_R   0.684801 0.729671 0.095918 0.038801
C16   C     C_R   0.453076 0.608555 0.979180 0.070926
C17   C     C_R   0.423045 0.540964 0.060481 0.017825
C18   C     C_2   0.508519 0.325995 0.179219 0.174780
C19   C     C_2   0.616677 0.613854 0.791542 0.230686
C20   C     C_2   0.925684 0.795108 0.282758 0.253301
C21   C     C_2   0.993436 0.303222 0.746106 0.268283
C22   C     C_3   0.864826 0.055198 0.522232 -0.052569
C23   C     C_R   0.250449 0.442184 0.089409 -0.138895
C24   C     C_3   0.298937 0.008018 0.661145 -0.135449
C25   C     C_3   0.995405 0.689601 0.639522 -0.017022
C26   C     C_3   0.049498 0.305085 0.354743 0.003050
C27   C     C_R   0.575648 0.752462 0.965931 -0.083002
C28   C     C_R   0.125996 0.395467 0.034497 -0.130562
C29   C     C_R   0.687923 0.813070 0.024228 -0.107214
C30   C     C_2   0.573786 0.964486 0.494673 0.235121
C31   C     C_2   0.429622 0.040911 0.517585 0.268029
C32   C     C_R   0.384340 0.486416 0.666938 0.505945
Cu1   Cu    Cu3+1 0.322120 0.483240 0.490330 1.107365
Cu2   Cu    Cu3+1 0.677880 0.516760 0.509670 1.099667
H1    H     H_    0.993052 0.321171 0.059322 0.118153
H2    H     H_    0.843942 0.292161 0.772364 0.142759
H3    H     H_    0.978861 0.987837 0.497590 0.198012
H4    H     H_    0.788454 0.017683 0.588972 0.104010
H5    H     H_    0.928764 0.178662 0.530327 0.203707
H6    H     H_    0.360818 0.131366 0.675205 0.152940
H7    H     H_    0.390605 0.930248 0.672448 0.061077
H8    H     H_    0.163588 0.980861 0.709019 0.146652
H9    H     H_    0.143154 0.728314 0.612328 0.188785
H10   H     H_    0.908685 0.768298 0.624552 0.115118
H11   H     H_    0.986958 0.694433 0.710462 0.133725
H12   H     H_    0.780881 0.924078 0.011947 0.100183
H13   H     H_    0.129743 0.310974 0.286444 0.111892
H14   H     H_    0.904565 0.246789 0.353276 0.162512
H15   H     H_    0.116202 0.233535 0.387763 0.141724
H16   H     H_    0.929856 0.299144 0.914703 0.096490
H17   H     H_    0.902879 0.898402 0.136506 0.101263
H18   H     H_    0.206818 0.406584 0.155706 0.127074
H19   H     H_    0.581267 0.821750 0.911876 0.091714
H20   H     H_    0.461054 0.265720 0.123033 0.110025
H21   H     H_    0.653714 0.707043 0.746774 0.085108
H22   H     H_    0.942620 0.920523 0.293357 0.114034
N1    N     N_2   0.945180 0.542040 0.524240 0.105328
N2    N     N_2   0.054820 0.457960 0.475760 0.080172
O1    O     O_R   0.384450 0.714270 0.493720 -0.514425
O2    O     O_2   0.737806 0.566506 0.816090 -0.539625
O3    O     O_2   0.020434 0.726037 0.313073 -0.433828
O4    O     O_2   0.046767 0.234719 0.676698 -0.516081
O5    O     O_3   0.753305 0.040548 0.459543 -0.643830
O6    O     O_3   0.266445 0.981623 0.575321 -0.618799
O7    O     O_3   0.944553 0.536316 0.609106 -0.448936
O8    O     O_3   0.047640 0.457206 0.391275 -0.416558
O9    O     O_R   0.615550 0.285730 0.506280 -0.504294
O10   O     O_R   0.684880 0.742590 0.510050 -0.525408
O11   O     O_R   0.315120 0.257410 0.489950 -0.508642
O12   O     O_R   0.265540 0.477900 0.617090 -0.448490
O13   O     O_R   0.734460 0.522100 0.382910 -0.434393
O14   O     O_R   0.565970 0.506210 0.633420 -0.502344
O15   O     O_R   0.434030 0.493790 0.366580 -0.473299
O16   O     O_2   0.516711 0.247361 0.237560 -0.529933

loop_
_geom_bond_atom_site_label_1
_geom_bond_atom_site_label_2
_ccdc_geom_bond_type
Cu2   O9    S    
Cu2   N1    S    
C2    C4    S    
C12   O11   A    
C27   H19   S    
Cu1   N2    S    
C3    C9    A    
Cu1   O11   S    
C6    H17   S    
C27   C29   A    
C24   H8    S    
C11   C16   A    
C18   O16   D    
C13   C17   A    
C29   H12   S    
C4    C8    A    
C14   C28   A    
C25   H9    S    
C16   C27   A    
C13   C15   A    
Cu1   Cu2   S    
C23   H18   S    
Cu1   O1    S    
C21   H2    S    
C17   C23   A    
C30   O5    S    
C7    C21   S    
C24   H7    S    
C9    C11   A    
C30   C31   D    
N1    N2    D    
C8    C20   S    
C2    O15   A    
Cu1   O12   S    
C10   C18   S    
C22   H5    S    
C26   H13   S    
C25   H10   S    
Cu1   O15   S    
C1    C30   S    
C11   C14   A    
C9    C19   S    
C15   C29   A    
C3    C7    A    
C20   H22   S    
C1    O1    A    
C12   C31   S    
C3    C32   S    
C19   O2    D    
C12   O9    A    
C5    H16   S    
C16   C17   A    
C18   H20   S    
Cu2   O14   S    
C4    C10   A    
C2    O13   A    
C22   H4    S    
C25   H11   S    
C1    O10   A    
C25   O7    S    
C26   H14   S    
Cu2   O13   S    
C24   O6    S    
C26   H15   S    
C19   H21   S    
C20   O3    D    
C5    C7    A    
C32   O12   A    
C24   H6    S    
C6    C8    A    
C21   O4    D    
C6    C15   A    
C23   C28   A    
C22   H3    S    
C5    C14   A    
C31   O6    S    
N2    O8    S    
C22   O5    S    
C28   H1    S    
N1    O7    S    
Cu2   O10   S    
C32   O14   A    
C10   C13   A    
C26   O8    S    
