data_mof_unit_50484.cif
_audit_creation_date              2012-12-10T17:21:08-0500
_audit_creation_method            fapswitch 2.2
_symmetry_space_group_name_H-M    P1
_symmetry_Int_Tables_number       1
_space_group_crystal_system       triclinic
_cell_length_a                    10.150871
_cell_length_b                    10.67794
_cell_length_c                    10.578656
_cell_angle_alpha                 90.172998
_cell_angle_beta                  94.736967
_cell_angle_gamma                 80.895504
_cell_volume                      1128.2528

loop_
_atom_site_label
_atom_site_type_symbol
_atom_type_description
_atom_site_fract_x
_atom_site_fract_y
_atom_site_fract_z
_atom_type_partial_charge
C1    C     C_R   0.445062 0.514120 0.265607 0.790529
C2    C     C_3   0.494518 0.880295 0.495970 -0.118039
C3    C     C_3   0.453222 0.934586 0.631901 0.882599
C4    C     C_3   0.391136 0.947342 0.383468 0.422480
C5    C     C_2   0.417097 0.534979 0.129151 -0.297892
C6    C     C_2   0.496837 0.601467 0.066510 -0.052229
C7    C     C_2   0.586222 0.513928 0.868898 -0.175438
C8    C     C_2   0.496262 0.594611 0.928844 0.001386
C9    C     C_2   0.074630 0.488231 0.490634 -0.084206
C10   C     C_2   0.926553 0.514183 0.505428 0.077011
C11   C     C_R   0.500294 0.257979 0.500051 0.872642
C12   C     C_R   0.555429 0.495635 0.734338 0.842379
C13   C     C_R   0.498430 0.742722 0.496308 0.885635
C14   C     C_3   0.639639 0.049909 0.472730 -0.389758
C15   C     C_3   0.635670 0.909084 0.464948 -0.443088
C16   C     C_3   0.461277 0.080325 0.632790 -0.293235
C17   C     C_3   0.395206 0.092909 0.394490 -0.416749
C18   C     C_3   0.500418 0.121871 0.501315 -0.113248
H1    H     H_    0.718849 0.068041 0.546315 0.188964
H2    H     H_    0.358749 0.133166 0.642223 0.189384
H3    H     H_    0.408822 0.647105 0.875901 0.174642
H4    H     H_    0.887366 0.594659 0.561627 0.073773
H5    H     H_    0.114303 0.415714 0.425708 0.204079
H6    H     H_    0.668092 0.082782 0.380451 0.214193
H7    H     H_    0.117307 0.621363 0.611207 0.178091
H8    H     H_    0.657836 0.877024 0.367780 0.252684
H9    H     H_    0.721974 0.856158 0.522633 0.173448
H10   H     H_    0.295816 0.147804 0.410974 0.207016
H11   H     H_    0.421956 0.130843 0.303714 0.181886
N1    N     N_2   0.157300 0.551950 0.551120 -0.207334
N2    N     N_2   0.842730 0.448000 0.448950 0.076124
O1    O     O_R   0.568940 0.489540 0.307530 -0.636384
O2    O     O_R   0.348880 0.522880 0.340350 -0.613469
O3    O     O_R   0.610030 0.298130 0.483570 -0.611012
O4    O     O_R   0.389960 0.331470 0.516390 -0.613748
O5    O     O_R   0.651120 0.477120 0.659650 -0.620991
O6    O     O_R   0.431060 0.510460 0.692470 -0.560000
O7    O     O_R   0.610040 0.668530 0.483610 -0.653184
O8    O     O_R   0.389970 0.701870 0.516430 -0.600515
Zn1   Zn    Zn3+2 0.646940 0.477740 0.478080 0.965036
Zn2   Zn    Zn3+2 0.353060 0.522260 0.521920 0.981485
C19   C     C_2   0.248400 0.916095 0.388459 0.455267
H12   H     H_    0.228548 0.822258 0.361895 0.086316
O9    O     O_2   0.154405 0.994907 0.415897 -0.573132
O10   O     O_3   0.315249 0.923061 0.636667 -0.630567
C20   C     C_3   0.268389 0.938196 0.759150 -0.156401
H13   H     H_    0.299999 0.020646 0.810226 0.185605
H14   H     H_    0.300912 0.850561 0.816742 0.176293
H15   H     H_    0.157371 0.954292 0.748741 0.164639
C21   C     C_2   0.585867 0.684566 0.131897 0.562286
H16   H     H_    0.592135 0.695527 0.233589 0.099259
O11   O     O_2   0.651760 0.745266 0.071205 -0.551173
C22   C     C_2   0.713576 0.444824 0.929703 0.401931
H17   H     H_    0.756427 0.354174 0.892012 0.063464
O12   O     O_2   0.776119 0.491532 0.015800 -0.571388
C23   C     C_2   0.310633 0.469123 0.066051 0.443928
H18   H     H_    0.267035 0.402516 0.120621 0.066241
O13   O     O_2   0.268173 0.489491 0.955487 -0.561217
O14   O     O_3   0.900171 0.337119 0.401253 -0.548778
C24   C     C_3   0.828566 0.317980 0.285548 -0.058964
H19   H     H_    0.738684 0.275358 0.300447 0.167371
H20   H     H_    0.893527 0.250273 0.228755 0.144036
H21   H     H_    0.801011 0.407168 0.229579 0.193782
C25   C     C_2   0.545463 0.124320 0.744649 0.404594
H22   H     H_    0.639175 0.157234 0.731357 0.049613
O15   O     O_2   0.508875 0.123261 0.851636 -0.569552
O16   O     O_3   0.524130 0.864753 0.740071 -0.619303
C26   C     C_3   0.665127 0.843637 0.748605 -0.280476
H23   H     H_    0.709639 0.924418 0.716145 0.129296
H24   H     H_    0.702458 0.754046 0.700881 0.168514
H25   H     H_    0.701245 0.829353 0.849956 0.257100
O17   O     O_3   0.439867 0.903709 0.265398 -0.662753
C27   C     C_3   0.351095 0.942637 0.156788 -0.346774
H26   H     H_    0.289963 0.867313 0.131473 0.161847
H27   H     H_    0.411168 0.954532 0.075942 0.245882
H28   H     H_    0.283399 0.033771 0.168516 0.168262

loop_
_geom_bond_atom_site_label_1
_geom_bond_atom_site_label_2
_ccdc_geom_bond_type
C3    O16   S    
C21   O11   D    
N1    Zn2   S    
C26   H25   S    
C12   O5    A    
C17   H11   S    
C27   H26   S    
C14   C18   S    
C5    C23   S    
C15   H9    S    
C14   C15   S    
C4    O17   S    
C16   H2    S    
O2    Zn2   S    
C25   H22   S    
C4    C19   S    
C11   O4    A    
C17   C18   S    
C1    O2    A    
O14   C24   S    
C11   C18   S    
C16   C18   S    
C26   H23   S    
C22   H17   S    
C6    C21   S    
C11   O3    A    
O7    Zn1   S    
C2    C15   S    
C27   H27   S    
C20   H15   S    
C13   O7    A    
C5    C6    D    
C19   O9    D    
C9    N1    D    
C24   H21   S    
C1    C5    S    
C4    C17   S    
C10   N2    D    
C24   H20   S    
C23   O13   D    
C8    H3    S    
C2    C3    S    
O1    Zn1   S    
O6    Zn2   S    
C7    C12   S    
O4    Zn2   S    
C27   H28   S    
O3    Zn1   S    
C13   O8    A    
C7    C8    D    
C19   H12   S    
C7    C22   S    
C22   O12   D    
N2    O14   S    
O16   C26   S    
C2    C4    S    
C20   H14   S    
C10   H4    S    
O5    Zn1   S    
C23   H18   S    
O8    Zn2   S    
O17   C27   S    
C26   H24   S    
C9    C10   S    
C14   H6    S    
C12   O6    A    
C2    C13   S    
C20   H13   S    
H7    N1    S    
C15   H8    S    
C6    C8    S    
C16   C25   S    
C21   H16   S    
N2    Zn1   S    
O10   C20   S    
C17   H10   S    
C14   H1    S    
C3    O10   S    
C1    O1    A    
C9    H5    S    
C3    C16   S    
C24   H19   S    
C25   O15   D    
