data_mof_unit_20023.cif
_audit_creation_date              2012-12-11T14:42:14-0500
_audit_creation_method            fapswitch 2.2
_symmetry_space_group_name_H-M    P1
_symmetry_Int_Tables_number       1
_space_group_crystal_system       triclinic
_cell_length_a                    18.869766
_cell_length_b                    10.994417
_cell_length_c                    18.636455
_cell_angle_alpha                 90.173176
_cell_angle_beta                  91.200151
_cell_angle_gamma                 90.188441
_cell_volume                      3865.47009053

loop_
_atom_site_label
_atom_site_type_symbol
_atom_type_description
_atom_site_fract_x
_atom_site_fract_y
_atom_site_fract_z
_atom_type_partial_charge
C1    C     C_R   0.730462 0.947485 0.849973 0.580739
C2    C     C_R   0.258703 0.376755 0.912219 -0.018187
C3    C     C_2   0.646062 0.753644 0.571697 0.606357
C4    C     C_2   0.824055 0.200437 0.105238 0.645841
C5    C     C_2   0.174659 0.200908 0.894548 0.645566
C6    C     C_2   0.324055 0.700437 0.105238 0.645843
C7    C     C_2   0.674658 0.700908 0.894548 0.645563
C8    C     C_R   0.240916 0.876364 0.087747 -0.017802
C9    C     C_R   0.758703 0.876755 0.912219 -0.018187
C10   C     C_R   0.785023 0.288138 0.057248 0.027242
C11   C     C_R   0.214097 0.288918 0.942619 0.027352
C12   C     C_R   0.285023 0.788138 0.057248 0.027242
C13   C     C_R   0.714097 0.788918 0.942619 0.027355
C14   C     C_R   0.786076 0.279797 0.982127 0.204310
C15   C     C_R   0.213108 0.280838 0.017728 0.204285
C16   C     C_R   0.286076 0.779797 0.982127 0.204311
C17   C     C_R   0.269505 0.947435 0.150011 0.582264
C18   C     C_R   0.713108 0.780838 0.017728 0.204284
C19   C     C_R   0.729162 0.329705 0.940187 -0.063354
C20   C     C_R   0.270499 0.330123 0.059691 -0.063627
C21   C     C_R   0.229162 0.829705 0.940187 -0.063354
C22   C     C_R   0.770499 0.830123 0.059691 -0.063627
C23   C     C_R   0.459824 0.276503 0.550634 -0.121762
C24   C     C_R   0.443269 0.279092 0.478704 -0.136915
C25   C     C_R   0.959812 0.776497 0.550639 -0.121759
C26   C     C_R   0.943255 0.779087 0.478708 -0.136904
C27   C     C_R   0.444047 0.172094 0.438630 0.002107
C28   C     C_R   0.230462 0.447485 0.849973 0.580743
C29   C     C_R   0.483292 0.167757 0.581941 0.020011
C30   C     C_R   0.944043 0.672091 0.438630 0.002116
C31   C     C_R   0.983290 0.667752 0.581942 0.020029
C32   C     C_R   0.456243 0.059800 0.472457 -0.086822
C33   C     C_R   0.477513 0.057960 0.544096 -0.080926
C34   C     C_R   0.956248 0.559796 0.472455 -0.086820
C35   C     C_R   0.977521 0.557955 0.544092 -0.080923
C36   C     C_R   0.805080 0.335645 0.530630 0.191443
C37   C     C_R   0.186827 0.364518 0.462361 0.205625
C38   C     C_R   0.305081 0.835654 0.530633 0.191457
C39   C     C_R   0.769505 0.447435 0.150011 0.582262
C40   C     C_R   0.686794 0.864592 0.462338 0.205561
C41   C     C_R   0.798821 0.325683 0.456217 0.051443
C42   C     C_R   0.192224 0.345396 0.536238 0.050085
C43   C     C_R   0.298820 0.825689 0.456220 0.051454
C44   C     C_R   0.692178 0.845496 0.536215 0.050108
C45   C     C_R   0.528805 0.176985 0.850239 0.566293
C46   C     C_R   0.471183 0.176967 0.149746 0.580799
C47   C     C_R   0.028805 0.676985 0.850239 0.566290
C48   C     C_R   0.971184 0.676967 0.149746 0.580799
C49   C     C_R   0.750253 0.402425 0.419936 -0.022478
C50   C     C_R   0.678261 0.407236 0.050443 0.225279
C51   C     C_R   0.244963 0.410828 0.575766 -0.028667
C52   C     C_R   0.250254 0.902435 0.419940 -0.022491
C53   C     C_R   0.744937 0.910873 0.575748 -0.028678
C54   C     C_R   0.696041 0.459327 0.457505 -0.161473
C55   C     C_R   0.300418 0.467368 0.539812 -0.171725
C56   C     C_R   0.196047 0.959349 0.457510 -0.161475
C57   C     C_R   0.800402 0.967390 0.539799 -0.171721
C58   C     C_R   0.693233 0.447245 0.531354 -0.155958
C59   C     C_R   0.302873 0.460834 0.465675 -0.168707
C60   C     C_R   0.193241 0.947271 0.531360 -0.155989
C61   C     C_R   0.321655 0.407116 0.949475 0.227471
C62   C     C_R   0.802858 0.960864 0.465663 -0.168692
C63   C     C_R   0.748754 0.390133 0.569131 0.017114
C64   C     C_R   0.246907 0.408455 0.426164 0.028899
C65   C     C_R   0.248757 0.890147 0.569135 0.017122
C66   C     C_R   0.746889 0.908496 0.426147 0.028914
C67   C     C_R   0.724760 0.312261 0.860810 0.574671
C68   C     C_R   0.275098 0.312276 0.139006 0.576867
C69   C     C_R   0.224760 0.812261 0.860810 0.574673
C70   C     C_R   0.775098 0.812276 0.139006 0.576865
C71   C     C_R   0.728345 0.952358 0.648075 0.571624
C72   C     C_R   0.178261 0.907236 0.050443 0.225279
C73   C     C_R   0.270759 0.951131 0.350666 0.560141
C74   C     C_R   0.228350 0.452350 0.648080 0.571679
C75   C     C_R   0.770759 0.451129 0.350665 0.560149
C76   C     C_R   0.526579 0.176079 0.646618 0.553083
C77   C     C_R   0.434510 0.180624 0.361700 0.554288
C78   C     C_R   0.026578 0.676079 0.646618 0.553077
C79   C     C_R   0.934509 0.680624 0.361699 0.554299
C80   C     C_R   0.739148 0.359231 0.644637 0.601011
C81   C     C_R   0.259639 0.364624 0.353337 0.598894
C82   C     C_R   0.239150 0.859236 0.644639 0.601034
C83   C     C_R   0.821654 0.907116 0.949475 0.227469
C84   C     C_R   0.759635 0.864634 0.353330 0.598892
C85   C     C_2   0.496082 0.165427 0.920979 -0.125359
C86   C     C_2   0.503848 0.165274 0.078969 -0.126070
C87   C     C_2   0.996083 0.665426 0.920980 -0.125362
C88   C     C_2   0.003848 0.665274 0.078970 -0.126069
C89   C     C_2   0.499679 0.060485 0.040099 -0.037959
C90   C     C_2   0.499659 0.060551 0.959429 -0.035428
C91   C     C_2   0.999680 0.560485 0.040100 -0.037959
C92   C     C_2   0.999660 0.560550 0.959430 -0.035430
C93   C     C_R   0.672153 0.382233 0.976694 -0.146103
C94   C     C_R   0.740916 0.376364 0.087747 -0.017802
C95   C     C_R   0.327780 0.382079 0.023160 -0.145206
C96   C     C_R   0.172153 0.882233 0.976694 -0.146103
C97   C     C_R   0.827780 0.882080 0.023160 -0.145207
C98   C     C_2   0.496834 0.941307 0.077775 0.683531
C99   C     C_2   0.501744 0.941380 0.921264 0.684559
C100  C     C_2   0.996834 0.441307 0.077775 0.683531
C101  C     C_2   0.001747 0.441379 0.921265 0.684559
C102  C     C_2   0.842578 0.237246 0.415279 0.609690
C103  C     C_2   0.146151 0.253473 0.571719 0.606229
C104  C     C_2   0.342574 0.737246 0.415283 0.609717
Cl1   Cl    Cl    0.603107 0.452843 0.097649 -0.486977
Cl2   Cl    Cl    0.104949 0.336605 0.416177 -0.508044
Cl3   Cl    Cl    0.384350 0.781524 0.573004 -0.565917
Cl4   Cl    Cl    0.604931 0.836552 0.416139 -0.508119
Cl5   Cl    Cl    0.397074 0.451455 0.902150 -0.493005
Cl6   Cl    Cl    0.103107 0.952843 0.097649 -0.486977
Cl7   Cl    Cl    0.897073 0.951456 0.902150 -0.493002
Cl8   Cl    Cl    0.862343 0.218132 0.943469 -0.378507
Cl9   Cl    Cl    0.136385 0.220318 0.056363 -0.377485
Cl10  Cl    Cl    0.362343 0.718131 0.943469 -0.378510
Cl11  Cl    Cl    0.636384 0.720319 0.056363 -0.377484
Cl12  Cl    Cl    0.884349 0.281514 0.573002 -0.565765
Cr1   Cr    Cr6+3 0.769270 0.163730 0.750710 1.145915
Cr2   Cr    Cr6+3 0.385840 0.322500 0.252290 1.075802
Cr3   Cr    Cr6+3 0.114160 0.822500 0.747710 1.081479
Cr4   Cr    Cr6+3 0.885840 0.822500 0.252290 1.075805
Cr5   Cr    Cr6+3 0.230730 0.163730 0.249290 1.140879
Cr6   Cr    Cr6+3 0.269270 0.663730 0.750710 1.145901
Cr7   Cr    Cr6+3 0.730730 0.663730 0.249290 1.140884
Cr8   Cr    Cr6+3 0.612620 0.009790 0.748780 1.107175
Cr9   Cr    Cr6+3 0.387380 0.009790 0.251220 1.112136
Cr10  Cr    Cr6+3 0.112620 0.509790 0.748780 1.107200
Cr11  Cr    Cr6+3 0.887380 0.509790 0.251220 1.112131
Cr12  Cr    Cr6+3 0.614160 0.322500 0.747710 1.081484
H1    H     H_    0.657119 0.515762 0.430132 0.185237
H2    H     H_    0.482593 0.250518 0.946308 0.143125
H3    H     H_    0.017779 0.750311 0.053959 0.142461
H4    H     H_    0.982591 0.750516 0.946309 0.143126
H5    H     H_    0.623506 0.404906 0.948095 0.194152
H6    H     H_    0.376700 0.404139 0.051686 0.193094
H7    H     H_    0.123506 0.904906 0.948095 0.194152
H8    H     H_    0.876700 0.904140 0.051686 0.193093
H9    H     H_    0.462009 0.362358 0.579331 0.151973
H10   H     H_    0.435269 0.366075 0.453435 0.137235
H11   H     H_    0.961990 0.862351 0.579339 0.151955
H12   H     H_    0.341612 0.516807 0.568939 0.193829
H13   H     H_    0.935248 0.866070 0.453441 0.137228
H14   H     H_    0.454872 0.975110 0.442659 0.220449
H15   H     H_    0.494711 0.973013 0.567855 0.218467
H16   H     H_    0.954884 0.475106 0.442653 0.220434
H17   H     H_    0.994733 0.473008 0.567846 0.218352
H18   H     H_    0.534702 0.836239 0.158375 0.371209
H19   H     H_    0.462988 0.836523 0.840407 0.368839
H20   H     H_    0.034703 0.336238 0.158376 0.371206
H21   H     H_    0.962992 0.336519 0.840409 0.368845
H22   H     H_    0.937991 0.161323 0.397684 0.347214
H23   H     H_    0.157129 0.015791 0.430139 0.185290
H24   H     H_    0.050403 0.172899 0.580006 0.353280
H25   H     H_    0.437988 0.661327 0.397680 0.347207
H26   H     H_    0.550218 0.673430 0.580108 0.353456
H27   H     H_    0.907627 0.089620 0.123154 0.351337
H28   H     H_    0.090929 0.089212 0.876827 0.351838
H29   H     H_    0.407628 0.589621 0.123154 0.351337
H30   H     H_    0.590928 0.589213 0.876827 0.351836
H31   H     H_    0.841607 0.016797 0.568930 0.193823
H32   H     H_    0.648161 0.484027 0.558927 0.183090
H33   H     H_    0.348773 0.495846 0.439120 0.170564
H34   H     H_    0.148174 0.984068 0.558935 0.182994
H35   H     H_    0.848765 0.995853 0.439112 0.170563
H36   H     H_    0.517778 0.250312 0.053959 0.142460
O1    O     O_R   0.784320 0.290430 0.830510 -0.411803
O2    O     O_R   0.456080 0.282180 0.333210 -0.494921
O3    O     O_R   0.043920 0.782180 0.666790 -0.517812
O4    O     O_R   0.956080 0.782180 0.333210 -0.494910
O5    O     O_R   0.679040 0.374160 0.674430 -0.486466
O6    O     O_R   0.320960 0.374160 0.325570 -0.512485
O7    O     O_R   0.179040 0.874160 0.674430 -0.486472
O8    O     O_R   0.820960 0.874160 0.325570 -0.512492
O9    O     O_3   0.665350 0.165340 0.749070 -0.322604
O10   O     O_3   0.334650 0.165340 0.250930 -0.349818
O11   O     O_3   0.165350 0.665340 0.749070 -0.322602
O12   O     O_R   0.215680 0.290430 0.169490 -0.405858
O13   O     O_3   0.834650 0.665340 0.250930 -0.349815
O14   O     O_R   0.762640 0.040960 0.825200 -0.460097
O15   O     O_R   0.237360 0.040960 0.174800 -0.457956
O16   O     O_R   0.262640 0.540960 0.825200 -0.460101
O17   O     O_R   0.737360 0.540960 0.174800 -0.457956
O18   O     O_R   0.667400 0.923970 0.829950 -0.486228
O19   O     O_R   0.332600 0.923970 0.170050 -0.485532
O20   O     O_R   0.167400 0.423970 0.829950 -0.486220
O21   O     O_R   0.832600 0.423970 0.170050 -0.485533
O22   O     O_R   0.553960 0.081340 0.821780 -0.481339
O23   O     O_R   0.284320 0.790430 0.830510 -0.411805
O24   O     O_R   0.446040 0.081340 0.178220 -0.473128
O25   O     O_R   0.053960 0.581340 0.821780 -0.481338
O26   O     O_R   0.946040 0.581340 0.178220 -0.473129
O27   O     O_R   0.543180 0.283240 0.826740 -0.493242
O28   O     O_R   0.456820 0.283240 0.173260 -0.487826
O29   O     O_R   0.043180 0.783240 0.826740 -0.493241
O30   O     O_R   0.956820 0.783240 0.173260 -0.487825
O31   O     O_R   0.678360 0.375140 0.822710 -0.482992
O32   O     O_R   0.321640 0.375140 0.177290 -0.481929
O33   O     O_R   0.178360 0.875140 0.822710 -0.482987
O34   O     O_R   0.715680 0.790430 0.169490 -0.405858
O35   O     O_R   0.821640 0.875140 0.177290 -0.481933
O36   O     O_R   0.785050 0.289380 0.670560 -0.444601
O37   O     O_R   0.214950 0.289380 0.329440 -0.450335
O38   O     O_R   0.285050 0.789380 0.670560 -0.444601
O39   O     O_R   0.714950 0.789380 0.329440 -0.450332
O40   O     O_R   0.763320 0.039990 0.676930 -0.498057
O41   O     O_R   0.236680 0.039990 0.323070 -0.504868
O42   O     O_R   0.263320 0.539990 0.676930 -0.498072
O43   O     O_R   0.736680 0.539990 0.323070 -0.504857
O44   O     O_R   0.668130 0.922920 0.670000 -0.472064
O45   O     O_R   0.554640 0.080370 0.673500 -0.494369
O46   O     O_R   0.331870 0.922920 0.330000 -0.489164
O47   O     O_R   0.168130 0.422920 0.670000 -0.472033
O48   O     O_R   0.831870 0.422920 0.330000 -0.489168
O49   O     O_2   0.453456 0.864514 0.058942 -0.407249
O50   O     O_R   0.543254 0.918544 0.135674 -0.614028
O51   O     O_2   0.544691 0.864285 0.939717 -0.405587
O52   O     O_R   0.455073 0.918957 0.863369 -0.624003
O53   O     O_2   0.953457 0.364513 0.058942 -0.407248
O54   O     O_R   0.043255 0.418544 0.135674 -0.614030
O55   O     O_2   0.044695 0.364286 0.939719 -0.405590
O56   O     O_R   0.445360 0.080370 0.326500 -0.471738
O57   O     O_R   0.955077 0.418954 0.863369 -0.623999
O58   O     O_2   0.815211 0.181974 0.364707 -0.492125
O59   O     O_R   0.914812 0.221892 0.430866 -0.616281
O60   O     O_2   0.171147 0.191753 0.620504 -0.507936
O61   O     O_R   0.075005 0.238099 0.551204 -0.610328
O62   O     O_2   0.315204 0.681972 0.364716 -0.492122
O63   O     O_R   0.414809 0.721894 0.430865 -0.616296
O64   O     O_2   0.671067 0.691748 0.620398 -0.508065
O65   O     O_R   0.574852 0.738600 0.551311 -0.610325
O66   O     O_2   0.799931 0.176366 0.163997 -0.473042
O67   O     O_R   0.054640 0.580370 0.673500 -0.494380
O68   O     O_R   0.886738 0.144290 0.084488 -0.563127
O69   O     O_2   0.198457 0.176810 0.835605 -0.481977
O70   O     O_R   0.112045 0.144261 0.915499 -0.562236
O71   O     O_2   0.299933 0.676367 0.163997 -0.473041
O72   O     O_R   0.386737 0.644290 0.084488 -0.563128
O73   O     O_2   0.698457 0.676809 0.835606 -0.482017
O74   O     O_R   0.612044 0.644261 0.915499 -0.562234
O75   O     O_R   0.945360 0.580370 0.326500 -0.471747
O76   O     O_R   0.543920 0.282180 0.666790 -0.517808

loop_
_geom_bond_atom_site_label_1
_geom_bond_atom_site_label_2
_ccdc_geom_bond_type
C76   O45   A    
C25   C31   A    
C6    O71   D    
Cr11  O75   S    
C16   C21   A    
C55   C59   A    
Cr9   O19   S    
H22   O59   S    
Cr6   O42   S    
Cr7   O34   S    
Cr10  O20   S    
C24   C27   A    
Cr5   O41   S    
Cr7   O13   S    
C61   Cl5   S    
C42   C103  S    
C3    O65   S    
C76   O76   A    
C68   O12   A    
C57   C62   A    
Cr5   O15   S    
C29   C76   S    
Cr12  O31   S    
C33   H15   S    
C14   Cl8   S    
C34   H16   S    
C78   O3    A    
C70   O35   A    
H21   O57   S    
C13   C18   A    
C104  O63   S    
Cr9   O24   S    
C4    O68   S    
C25   H11   S    
C5    C11   S    
C93   H5    S    
Cr10  O47   S    
C6    C12   S    
C103  O60   D    
C72   C96   A    
C43   C52   A    
Cr5   O12   S    
Cr8   O45   S    
C10   C94   A    
Cr1   O9    S    
C49   C54   A    
C80   O36   A    
C29   C33   A    
H27   O68   S    
C37   C42   A    
Cr4   O35   S    
C41   C102  S    
C34   C35   A    
C35   H17   S    
C38   Cl3   S    
C9    C13   A    
C43   C104  S    
C73   O41   A    
Cr3   O11   S    
C52   C56   A    
C11   C15   A    
C44   C53   A    
C45   O27   A    
C7    O73   D    
Cr1   O1    S    
C50   Cl1   S    
C60   H34   S    
C23   C24   A    
C48   C88   S    
C19   C67   S    
C79   O75   A    
C91   C100  S    
C26   H13   S    
Cr2   O32   S    
C69   O23   A    
C98   O49   D    
C32   H14   S    
C19   C93   A    
C2    C61   A    
C42   C51   A    
C40   Cl4   S    
C67   O1    A    
C57   H31   S    
C100  O54   S    
Cr12  O5    S    
C70   O34   A    
C22   C97   A    
C5    O69   D    
C87   C92   D    
Cr8   O44   S    
C69   O33   A    
C36   C41   A    
C15   C20   A    
Cr2   O28   S    
C80   O5    A    
C67   O31   A    
Cr9   O10   S    
C41   C49   A    
C20   C68   S    
C102  O59   S    
C96   H7    S    
C75   O43   A    
C63   C80   S    
C71   O40   A    
C3    C44   S    
C85   C90   D    
C72   Cl6   S    
C75   O48   A    
C8    C72   A    
Cr11  O26   S    
C30   C34   A    
C23   H9    S    
Cr11  O13   S    
C36   Cl12  S    
C12   C16   A    
C73   O46   A    
C1    C9    S    
C52   C73   S    
C10   C14   A    
H28   O70   S    
C91   C92   S    
C82   O38   A    
C62   C66   A    
C50   C94   A    
C81   O37   A    
Cr8   O9    S    
C24   H10   S    
C25   C26   A    
Cr2   O2    S    
C95   H6    S    
Cr4   O30   S    
C55   H12   S    
C56   C60   A    
C51   C74   S    
C21   C69   S    
Cr3   O29   S    
C4    O66   D    
C87   H4    S    
C47   O25   A    
Cr10  O25   S    
C45   C85   S    
Cr4   O13   S    
C39   C94   S    
Cr8   O18   S    
C59   H33   S    
C85   H2    S    
C1    O14   A    
C17   O19   A    
C62   H35   S    
C7    O74   S    
C7    C13   S    
C8    C12   A    
C65   C82   S    
C15   Cl9   S    
Cr12  O9    S    
Cr7   O43   S    
C68   O32   A    
C39   O17   A    
C81   O6    A    
C2    C11   A    
C104  O62   D    
C28   O16   A    
C98   O50   S    
C49   C75   S    
H18   O50   S    
Cr1   O36   S    
C92   C101  S    
H30   O74   S    
C50   C93   A    
C30   C79   S    
C84   O39   A    
C71   O44   A    
C20   C95   A    
C9    C83   A    
C60   C65   A    
H19   O52   S    
C5    O70   S    
C37   Cl2   S    
H26   O65   S    
C99   O52   S    
C79   O4    A    
C83   Cl7   S    
C101  O55   D    
Cr1   O40   S    
C86   H36   S    
C4    C10   S    
Cr5   O10   S    
C36   C63   A    
C23   C29   A    
C90   C99   S    
C37   C64   A    
Cr1   O14   S    
Cr4   O4    S    
C31   C78   S    
C54   C58   A    
C101  O57   S    
C58   C63   A    
C54   H1    S    
C6    O72   S    
C82   O7    A    
C53   C57   A    
C48   O30   A    
C27   C32   A    
Cr3   O33   S    
C48   O26   A    
C14   C19   A    
C47   O29   A    
Cr4   O8    S    
C8    C17   S    
C46   O28   A    
C27   C77   S    
C86   C89   D    
C16   Cl10  S    
C18   Cl11  S    
C100  O53   D    
C2    C28   S    
C1    O18   A    
C61   C95   A    
H29   O72   S    
C26   C30   A    
C84   O8    A    
C21   C96   A    
Cr12  O76   S    
C74   O47   A    
H25   O63   S    
C56   H23   S    
C97   H8    S    
Cr7   O39   S    
C89   C98   S    
Cr9   O46   S    
Cr12  O27   S    
C32   C33   A    
Cr6   O38   S    
C18   C22   A    
Cr10  O67   S    
C77   O2    A    
Cr5   O37   S    
C38   C43   A    
Cr7   O17   S    
C58   H32   S    
Cr8   O22   S    
C17   O15   A    
Cr6   O23   S    
C88   C91   D    
C99   O51   D    
C77   O56   A    
Cr6   O16   S    
C102  O58   D    
C31   C35   A    
Cr11  O21   S    
Cr3   O3    S    
C51   C55   A    
C28   O20   A    
C45   O22   A    
C64   C81   S    
C66   C84   S    
H24   O61   S    
C39   O21   A    
Cr9   O56   S    
C59   C64   A    
Cr11  O48   S    
C40   C44   A    
Cr2   O10   S    
C83   C97   A    
Cr3   O7    S    
Cr2   O6    S    
C40   C66   A    
C78   O67   A    
C88   H3    S    
C46   O24   A    
C89   C90   S    
C38   C65   A    
H20   O54   S    
C3    O64   D    
C22   C70   S    
C103  O61   S    
Cr10  O11   S    
Cr6   O11   S    
C47   C87   S    
C46   C86   S    
C74   O42   A    
C53   C71   S    
