data_mof_unit_50647.cif
_audit_creation_date              2013-03-05T15:48:19-0500
_audit_creation_method            fapswitch 2.2
_symmetry_space_group_name_H-M    P1
_symmetry_Int_Tables_number       1
_space_group_crystal_system       triclinic
_cell_length_a                    10.171371
_cell_length_b                    10.812363
_cell_length_c                    16.922382
_cell_angle_alpha                 91.409124
_cell_angle_beta                  77.371089
_cell_angle_gamma                 94.516044
_cell_volume                      1810.34945638

loop_
_atom_site_label
_atom_site_type_symbol
_atom_site_description
_atom_site_fract_x
_atom_site_fract_y
_atom_site_fract_z
_atom_type_partial_charge
O1    O     O_R   0.430310 0.692580 0.506610 -0.661895
O2    O     O_R   0.569690 0.307420 0.493390 -0.655322
O3    O     O_R   0.652740 0.659410 0.485540 -0.595261
O4    O     O_R   0.347260 0.340590 0.514460 -0.596568
C1    C     C_R   0.556145 0.732252 0.492364 0.936664
C2    C     C_R   0.444208 0.267562 0.502924 0.944289
O5    O     O_R   0.375640 0.518570 0.627580 -0.574260
O6    O     O_R   0.624360 0.481430 0.372420 -0.573825
O7    O     O_R   0.598070 0.485390 0.606510 -0.595574
O8    O     O_R   0.401930 0.514610 0.393490 -0.598208
C3    C     C_R   0.483076 0.503333 0.654650 0.932784
C4    C     C_R   0.516890 0.496547 0.345360 0.926411
Zn1   Zn    Zn3+2 0.351480 0.522150 0.514070 1.009974
Zn2   Zn    Zn3+2 0.648520 0.477850 0.485930 1.013964
C5    C     C_R   0.477065 0.517280 0.741586 -0.295792
C6    C     C_R   0.522637 0.481708 0.258515 -0.293272
C7    C     C_R   0.596614 0.555164 0.768499 0.491259
C8    C     C_R   0.402956 0.443244 0.231917 0.491079
C9    C     C_R   0.588792 0.583383 0.849716 -0.217939
C10   C     C_R   0.410456 0.413826 0.150903 -0.216342
C11   C     C_R   0.467167 0.562134 0.905369 -0.050361
C12   C     C_R   0.531943 0.434525 0.095028 -0.051438
C13   C     C_R   0.348805 0.523750 0.880315 -0.235584
C14   C     C_R   0.650442 0.473550 0.119774 -0.237983
C15   C     C_R   0.352006 0.500472 0.798588 0.267131
C16   C     C_R   0.647545 0.497926 0.201353 0.267732
C17   C     C_2   0.471741 0.549051 0.990426 0.423249
C18   C     C_2   0.526929 0.447226 0.009990 0.423271
H1    H     H_    0.256132 0.503011 0.925073 0.189467
H2    H     H_    0.742948 0.494008 0.074830 0.189110
H3    H     H_    0.318796 0.385608 0.130312 0.162460
H4    H     H_    0.680251 0.611448 0.870563 0.162059
H5    H     H_    0.618577 0.102907 0.452153 0.167036
H6    H     H_    0.387742 0.893751 0.473284 0.175082
C19   C     C_2   0.588286 0.863312 0.480161 -0.326232
C20   C     C_2   0.413244 0.135890 0.496756 -0.339029
C21   C     C_2   0.489959 0.932895 0.472060 -0.155136
C22   C     C_2   0.514662 0.064746 0.469886 -0.165588
H7    H     H_    0.309285 0.096991 0.514727 0.154922
H8    H     H_    0.690314 0.903148 0.478889 0.152315
H9    H     H_    0.119803 0.429760 0.444653 0.176522
H10   H     H_    0.879336 0.567753 0.556722 0.178327
N1    N     N_2   0.846390 0.448330 0.467170 0.060226
N2    N     N_2   0.153610 0.551670 0.532830 0.059384
C23   C     C_2   0.925058 0.507320 0.508112 0.041519
C24   C     C_2   0.074567 0.491608 0.492554 0.041569
O9    O     O_3   0.721745 0.565294 0.715771 -0.614417
C25   C     C_3   0.792184 0.461849 0.727179 -0.153966
H11   H     H_    0.734555 0.372924 0.717424 0.144993
H12   H     H_    0.816515 0.463426 0.788176 0.196807
H13   H     H_    0.889424 0.464974 0.682291 0.219687
O10   O     O_3   0.277875 0.434320 0.284706 -0.614345
C26   C     C_3   0.208638 0.538408 0.272988 -0.151489
H14   H     H_    0.182555 0.535637 0.212444 0.197960
H15   H     H_    0.268000 0.627041 0.281218 0.142987
H16   H     H_    0.112503 0.537420 0.318741 0.219650
N3    N     N_R   0.769208 0.549068 0.223612 0.233103
O11   O     O_R   0.768016 0.650797 0.266437 -0.384170
O12   O     O_R   0.884807 0.507416 0.189389 -0.401958
N4    N     N_R   0.230446 0.449894 0.775954 0.232187
O13   O     O_R   0.231615 0.348471 0.732833 -0.385777
O14   O     O_R   0.114864 0.491599 0.810148 -0.403122
O15   O     O_3   0.584126 0.365339 0.948976 -0.633614
C27   C     C_3   0.607365 0.250973 0.979899 -0.277745
H17   H     H_    0.513877 0.207658 0.019519 0.161311
H18   H     H_    0.691250 0.262514 0.012600 0.182411
H19   H     H_    0.638340 0.186577 0.928316 0.194529
O16   O     O_3   0.414087 0.630762 0.051410 -0.633868
C28   C     C_3   0.394521 0.746350 0.020611 -0.278096
H20   H     H_    0.312128 0.737162 0.986722 0.182598
H21   H     H_    0.489721 0.788638 0.982173 0.160974
H22   H     H_    0.363219 0.810454 0.072318 0.194457
O17   O     O_3   0.089254 0.609059 0.600457 -0.554342
C29   C     C_3   0.163270 0.721531 0.609418 -0.043622
H23   H     H_    0.191806 0.774017 0.551706 0.112889
H24   H     H_    0.252316 0.706307 0.634556 0.183901
H25   H     H_    0.098041 0.780027 0.653856 0.140128
O18   O     O_3   0.910992 0.395685 0.397811 -0.547650
C30   C     C_3   0.841954 0.280731 0.388643 -0.064197
H26   H     H_    0.749305 0.292573 0.366297 0.180988
H27   H     H_    0.819900 0.226495 0.445699 0.112667
H28   H     H_    0.908108 0.226160 0.342051 0.145955

loop_
_geom_bond_atom_site_label_1
_geom_bond_atom_site_label_2
_geom_bond_distance
_ccdc_geom_bond_type
H6    C21   1.087312 S    
O17   C29   1.401893 S    
C8    O10   1.383432 S    
C23   C24   1.508026 S    
N1    O18   1.349881 S    
O5    C3    1.296961 A    
C29   H24   1.106252 S    
O1    C1    1.289958 A    
C13   H1    1.084141 S    
C9    C11   1.388010 A    
C14   C16   1.393445 A    
N3    O12   1.301354 A    
N4    O14   1.301326 A    
O4    Zn1   1.960321 S    
C28   H21   1.113225 S    
C17   O16   1.400552 S    
C3    C5    1.463560 S    
C25   H13   1.106295 S    
C4    C6    1.463297 S    
O16   C28   1.410591 S    
C29   H25   1.109161 S    
H9    C24   1.083818 S    
C15   N4    1.436959 S    
C25   H12   1.112283 S    
C11   C17   1.460930 S    
C12   C18   1.461253 S    
O2    C2    1.291324 A    
C9    H4    1.084304 S    
N2    C24   1.291613 D    
C26   H15   1.114201 S    
C6    C16   1.420020 A    
C29   H23   1.112420 S    
C27   H19   1.109245 S    
O4    C2    1.290281 A    
C30   H27   1.113053 S    
O18   C30   1.400979 S    
C26   H14   1.112242 S    
O15   C27   1.410942 S    
N4    O13   1.301577 A    
H10   C23   1.083541 S    
C27   H18   1.111795 S    
C28   H22   1.109284 S    
O7    Zn2   1.993529 S    
C21   C22   1.427945 S    
O7    C3    1.296406 A    
O9    C25   1.413818 S    
O6    C4    1.296923 A    
N1    C23   1.291281 D    
O3    Zn2   1.960321 S    
O8    C4    1.296334 A    
C25   H11   1.114032 S    
C10   C12   1.388168 A    
C11   C13   1.391847 A    
C12   C14   1.392144 A    
O1    Zn1   1.946554 S    
O10   C26   1.413767 S    
C26   H16   1.106087 S    
N2    O17   1.350807 S    
C5    C7    1.417159 A    
O6    Zn2   1.990766 S    
C19   C21   1.329876 D    
C20   H7    1.087722 S    
C7    O9    1.383594 S    
O3    C1    1.291018 A    
O8    Zn1   1.993529 S    
C30   H28   1.109152 S    
H5    C22   1.084521 S    
C27   H17   1.113379 S    
C20   C22   1.328620 D    
C19   H8    1.087764 S    
N3    O11   1.301629 A    
C1    C19   1.438587 S    
C7    C9    1.386983 A    
C2    C20   1.439935 S    
C8    C10   1.386762 A    
C13   C15   1.393412 A    
C28   H20   1.111453 S    
O2    Zn2   1.946554 S    
C16   N3    1.436956 S    
C14   H2    1.084093 S    
C5    C15   1.420288 A    
C30   H26   1.106642 S    
C18   O15   1.400690 S    
O5    Zn1   1.990765 S    
C6    C8    1.417074 A    
C17   C18   1.354013 D    
Zn1   N2    2.017436 S    
Zn2   N1    2.017436 S    
C10   H3    1.084320 S    
