data_mof_unit_54092.cif
_audit_creation_date              2012-12-10T18:01:45-0500
_audit_creation_method            fapswitch 2.2
_symmetry_space_group_name_H-M    P1
_symmetry_Int_Tables_number       1
_space_group_crystal_system       triclinic
_cell_length_a                    10.825361
_cell_length_b                    9.491062
_cell_length_c                    19.347935
_cell_angle_alpha                 89.999799
_cell_angle_beta                  90.164932
_cell_angle_gamma                 90.004275
_cell_volume                      1987.87932795

loop_
_atom_site_label
_atom_site_type_symbol
_atom_type_description
_atom_site_fract_x
_atom_site_fract_y
_atom_site_fract_z
_atom_type_partial_charge
C1    C     C_R   0.261982 0.499997 0.499969 0.789428
C2    C     C_R   0.738017 0.500003 0.500064 0.789491
C3    C     C_R   0.501057 0.499076 0.929811 0.406909
C4    C     C_R   0.500417 0.499237 0.069704 0.472453
C5    C     C_R   0.499851 0.499992 0.367321 0.840772
C6    C     C_R   0.500155 0.499988 0.632678 0.845198
C7    C     C_R   0.063857 0.371926 0.500025 -0.187946
C8    C     C_R   0.936143 0.628073 0.500094 -0.188066
C9    C     C_R   0.936124 0.371931 0.500102 -0.187113
C10   C     C_R   0.063877 0.628069 0.500021 -0.187313
C11   C     C_R   0.871808 0.500004 0.500103 -0.017359
C12   C     C_R   0.128192 0.499995 0.499991 -0.017352
C13   C     C_R   0.424304 0.074512 0.456330 -0.026096
C14   C     C_R   0.575655 0.925490 0.543696 -0.029811
C15   C     C_R   0.575649 0.074523 0.543700 -0.028646
C16   C     C_R   0.424298 0.925480 0.456335 -0.027953
C17   C     C_R   0.517504 0.625699 0.254814 -0.289316
C18   C     C_R   0.491127 0.372618 0.745054 -0.268406
C19   C     C_R   0.510109 0.626887 0.745246 -0.268855
C20   C     C_R   0.481812 0.373960 0.254896 -0.287070
C21   C     C_R   0.521418 0.626043 0.182473 0.395314
C22   C     C_R   0.494590 0.370786 0.817131 0.430876
C23   C     C_R   0.507205 0.628237 0.817339 0.430644
C24   C     C_R   0.478129 0.373213 0.182549 0.396141
C25   C     C_R   0.499963 0.499493 0.145896 -0.114964
C26   C     C_R   0.501027 0.499371 0.853935 -0.154784
C27   C     C_R   0.499709 0.499906 0.291320 -0.149884
C28   C     C_R   0.500439 0.499866 0.708667 -0.172921
Cu1   Cu    Cu3+1 0.500000 0.640660 0.500000 0.936515
Cu2   Cu    Cu3+1 0.500000 0.359340 0.500000 0.937460
H1    H     H_    0.111930 0.271822 0.499992 0.148339
H2    H     H_    0.888070 0.728178 0.500127 0.148282
H3    H     H_    0.888034 0.271830 0.500143 0.148493
H4    H     H_    0.111966 0.728170 0.499985 0.148369
H5    H     H_    0.528829 0.724252 0.282330 0.168288
H6    H     H_    0.482691 0.273460 0.717693 0.172993
H7    H     H_    0.518387 0.726196 0.718025 0.170708
H8    H     H_    0.470276 0.275555 0.282479 0.165843
H9    H     H_    0.363739 0.130876 0.421398 0.112639
H10   H     H_    0.636188 0.869130 0.578645 0.117394
H11   H     H_    0.636172 0.130893 0.578656 0.115613
H12   H     H_    0.363719 0.869107 0.421414 0.117787
N1    N     N_R   0.500000 0.852070 0.500000 -0.155756
N2    N     N_R   0.500000 0.147930 0.500000 -0.154603
N3    N     N_R   0.424620 0.411834 0.033818 -0.225102
N4    N     N_R   0.576873 0.586577 0.965532 -0.213814
N5    N     N_R   0.424972 0.411594 0.965125 -0.212993
N6    N     N_R   0.576613 0.586470 0.034225 -0.225009
O1    O     O_R   0.319640 0.618740 0.500000 -0.588586
O2    O     O_R   0.680360 0.381260 0.500000 -0.588283
O3    O     O_R   0.680360 0.618740 0.500000 -0.589310
O4    O     O_R   0.319640 0.381260 0.500000 -0.589113
O5    O     O_R   0.499980 0.618820 0.400140 -0.585303
O6    O     O_R   0.500020 0.381180 0.599860 -0.585502
O7    O     O_R   0.500020 0.618820 0.599860 -0.585116
O8    O     O_R   0.499980 0.381180 0.400140 -0.584301
O9    O     O_3   0.534217 0.752164 0.147146 -0.610373
C29   C     C_3   0.656344 0.802531 0.155163 0.063934
H13   H     H_    0.725235 0.717851 0.144368 0.149534
H14   H     H_    0.670742 0.843164 0.208540 0.137357
C30   C     C_3   0.677770 0.923052 0.104111 -0.308488
H15   H     H_    0.659193 0.885559 0.050638 0.239049
H16   H     H_    0.613095 0.010703 0.115675 0.248073
C31   C     C_3   0.810014 0.978276 0.108286 -0.919775
H17   H     H_    0.830024 0.018683 0.161029 0.257806
H18   H     H_    0.822128 0.065668 0.070746 0.260016
H19   H     H_    0.876668 0.893261 0.095480 0.259144
O10   O     O_3   0.483988 0.242446 0.850706 -0.605722
C32   C     C_3   0.601333 0.196781 0.874338 0.079633
H20   H     H_    0.585559 0.126817 0.919523 0.181078
H21   H     H_    0.661222 0.284588 0.893068 0.127412
C33   C     C_3   0.668614 0.112466 0.818270 -0.379588
H22   H     H_    0.607174 0.028288 0.798077 0.243825
H23   H     H_    0.693448 0.183314 0.774768 0.203327
C34   C     C_3   0.786241 0.044949 0.846633 -0.862253
H24   H     H_    0.850158 0.127189 0.866498 0.248520
H25   H     H_    0.833385 0.985812 0.804799 0.253533
H26   H     H_    0.763599 0.970375 0.889021 0.272153
O11   O     O_3   0.518075 0.756372 0.851120 -0.606132
C35   C     C_3   0.401064 0.801504 0.875146 0.076262
H27   H     H_    0.417477 0.870651 0.920613 0.181024
H28   H     H_    0.341436 0.713365 0.893561 0.128197
C36   C     C_3   0.332920 0.886769 0.819557 -0.373206
H29   H     H_    0.393914 0.971582 0.799791 0.246086
H30   H     H_    0.307789 0.816754 0.775705 0.207778
C37   C     C_3   0.215452 0.953270 0.848326 -0.860610
H31   H     H_    0.151959 0.870386 0.867766 0.247766
H32   H     H_    0.167681 0.013196 0.806834 0.255917
H33   H     H_    0.238397 0.026954 0.891109 0.271002
O12   O     O_3   0.465156 0.246897 0.147376 -0.608852
C38   C     C_3   0.342697 0.197400 0.154708 0.062963
H34   H     H_    0.274407 0.282175 0.142746 0.149537
H35   H     H_    0.327175 0.158373 0.208231 0.131712
C39   C     C_3   0.321584 0.075552 0.104315 -0.307705
H36   H     H_    0.341179 0.111406 0.050746 0.238692
H37   H     H_    0.385700 0.987912 0.117033 0.248008
C40   C     C_3   0.189050 0.021153 0.107783 -0.922196
H38   H     H_    0.168008 0.982467 0.160644 0.256134
H39   H     H_    0.177180 0.932693 0.070785 0.260443
H40   H     H_    0.122969 0.106121 0.093804 0.259684

loop_
_geom_bond_atom_site_label_1
_geom_bond_atom_site_label_2
_ccdc_geom_bond_type
C32   C33   S    
C5    O8    A    
C6    O7    A    
C40   H38   S    
O9    C29   S    
Cu1   O1    S    
Cu2   O6    S    
C5    O5    A    
C15   N2    A    
C35   C36   S    
C4    N6    A    
C37   H32   S    
C29   H14   S    
C32   H21   S    
C23   C26   A    
C30   H16   S    
C21   C25   A    
C2    O2    A    
C5    C27   S    
C6    C28   S    
C20   C24   A    
O10   C32   S    
C1    O1    A    
C19   H7    S    
C29   C30   S    
Cu2   O2    S    
Cu1   N1    S    
C9    H3    S    
Cu2   N2    S    
C32   H20   S    
C1    C12   S    
C6    O6    A    
C33   C34   S    
C2    C11   S    
C34   H26   S    
C40   H39   S    
C4    C25   S    
C4    N3    A    
N3    N5    A    
C7    C12   A    
N4    N6    A    
C7    H1    S    
C17   C27   A    
C31   H19   S    
C18   C28   A    
C24   C25   A    
C15   H11   S    
C33   H23   S    
C38   H34   S    
C37   H31   S    
C35   H27   S    
Cu1   O7    S    
C39   C40   S    
C29   H13   S    
Cu2   O8    S    
C17   C21   A    
C31   H18   S    
C30   C31   S    
C19   C23   A    
C34   H24   S    
C21   O9    S    
Cu1   Cu2   S    
C38   H35   S    
C20   H8    S    
C36   H29   S    
C39   H36   S    
C10   H4    S    
C39   H37   S    
C19   C28   A    
C34   H25   S    
C16   N1    A    
C22   O10   S    
C10   C12   A    
C35   H28   S    
C36   H30   S    
C9    C11   A    
C16   H12   S    
C40   H40   S    
Cu1   O3    S    
C7    C9    A    
Cu2   O4    S    
C18   C22   A    
C3    C26   S    
C33   H22   S    
C37   H33   S    
C24   O12   S    
C20   C27   A    
C3    N4    A    
C31   H17   S    
C38   C39   S    
O12   C38   S    
C8    H2    S    
Cu1   O5    S    
C8    C11   A    
C3    N5    A    
C30   H15   S    
C1    O4    A    
C13   H9    S    
C2    O3    A    
C14   H10   S    
O11   C35   S    
C36   C37   S    
C8    C10   A    
C22   C26   A    
C13   C16   A    
C14   C15   A    
C17   H5    S    
C23   O11   S    
C18   H6    S    
C13   N2    A    
C14   N1    A    
