data_mof_unit_5681.cif
_audit_creation_date              2013-03-05T15:46:25-0500
_audit_creation_method            fapswitch 2.2
_symmetry_space_group_name_H-M    P1
_symmetry_Int_Tables_number       1
_space_group_crystal_system       triclinic
_cell_length_a                    15.905059
_cell_length_b                    11.004406
_cell_length_c                    9.882688
_cell_angle_alpha                 111.212103
_cell_angle_beta                  97.990924
_cell_angle_gamma                 91.569087
_cell_volume                      1591.21063007

loop_
_atom_site_label
_atom_site_type_symbol
_atom_site_description
_atom_site_fract_x
_atom_site_fract_y
_atom_site_fract_z
_atom_type_partial_charge
O1    O     O_R   0.507820 0.332330 0.577400 -0.550313
O2    O     O_R   0.483070 0.295500 0.332660 -0.587512
C1    C     C_R   0.496820 0.254205 0.440956 0.854632
O3    O     O_R   0.391820 0.518430 0.622420 -0.525457
O4    O     O_R   0.367070 0.481600 0.377680 -0.564566
C2    C     C_R   0.340594 0.499912 0.501216 0.832185
Cu1   Cu    Cu3+1 0.514650 0.521810 0.644910 1.065486
Cu2   Cu    Cu3+1 0.485350 0.478190 0.355090 0.995957
O5    O     O_R   0.516930 0.704500 0.667340 -0.519287
O6    O     O_R   0.492180 0.667670 0.422600 -0.605482
O7    O     O_R   0.632930 0.518400 0.622320 -0.547209
O8    O     O_R   0.608180 0.481570 0.377580 -0.588810
C3    C     C_R   0.508351 0.746423 0.559403 0.740188
C4    C     C_R   0.659415 0.499778 0.498779 0.795229
C5    C     C_3   0.059841 0.449132 0.626089 0.006530
C6    C     C_3   0.033908 0.403973 0.349300 0.080673
C7    C     C_3   0.935030 0.418989 0.340810 0.114049
H1    H     H_    0.044337 0.302854 0.342462 0.178381
C8    C     C_1   0.748531 0.498621 0.496901 -0.091783
C9    C     C_3   0.083712 0.497089 0.503216 -0.085783
C10   C     C_3   0.959138 0.431632 0.614824 0.304711
C11   C     C_3   0.916813 0.497694 0.503883 -0.000586
C12   C     C_3   0.957774 0.643357 0.551816 0.053551
C13   C     C_3   0.055628 0.639806 0.539241 -0.168338
C14   C     C_1   0.824051 0.498084 0.499177 0.162614
C15   C     C_1   0.176201 0.498431 0.503847 0.215311
C16   C     C_1   0.251510 0.499415 0.503531 -0.039796
H2    H     H_    0.064028 0.668373 0.444740 0.217434
H3    H     H_    0.087591 0.528480 0.730217 0.199786
H4    H     H_    0.927968 0.683611 0.470393 0.144107
H5    H     H_    0.510108 0.860207 0.366864 0.142539
C17   C     C_2   0.494973 0.114422 0.410399 -0.326328
C18   C     C_2   0.539512 0.066328 0.503162 0.240616
C19   C     C_2   0.519009 0.887332 0.592194 0.212925
C20   C     C_2   0.521583 0.928988 0.480193 -0.238337
H6    H     H_    0.451420 0.049682 0.314923 0.154311
H7    H     H_    0.549456 0.593727 0.152319 0.098000
N1    N     N_2   0.463320 0.445430 0.137380 -0.129879
C21   C     C_2   0.502837 0.515415 0.079624 0.006764
H8    H     H_    0.593069 0.601398 0.928444 0.187959
N2    N     N_2   0.536720 0.554500 0.862620 -0.347971
C22   C     C_2   0.484872 0.500158 0.920207 0.392236
N3    N     N_3   0.928470 0.291455 0.559093 -0.521486
H9    H     H_    0.937335 0.256350 0.644900 0.289405
H10   H     H_    0.963104 0.233856 0.480709 0.255540
N4    N     N_R   0.932883 0.492202 0.761559 0.177547
O9    O     O_R   0.987480 0.554584 0.879833 -0.286441
O10   O     O_R   0.855154 0.467208 0.777652 -0.311712
N5    N     N_3   0.607458 0.142109 0.618220 -0.501524
H11   H     H_    0.582645 0.211613 0.703158 0.286633
H12   H     H_    0.648367 0.189361 0.575111 0.216939
N6    N     N_R   0.525492 0.977556 0.741872 0.142209
O11   O     O_R   0.474933 0.071315 0.774958 -0.321670
O12   O     O_R   0.573380 0.955883 0.847349 -0.324047
N7    N     N_R   0.404450 0.436307 0.836265 0.183156
O13   O     O_R   0.399341 0.314511 0.748206 -0.279705
O14   O     O_R   0.334881 0.489285 0.873591 -0.313106
N8    N     N_R   0.101294 0.332973 0.634344 0.127973
O15   O     O_R   0.103749 0.307504 0.753501 -0.230728
O16   O     O_R   0.137902 0.257147 0.528476 -0.347122
N9    N     N_3   0.414106 0.332477 0.043635 -0.362154
H13   H     H_    0.443320 0.253334 0.058267 0.269167
H14   H     H_    0.355261 0.335050 0.079722 0.277243
N10   N     N_R   0.066645 0.414839 0.221101 0.135596
O17   O     O_R   0.048513 0.318835 0.094374 -0.276996
O18   O     O_R   0.113262 0.517432 0.230272 -0.329983
N11   N     N_3   0.888900 0.287562 0.280247 -0.564893
H15   H     H_    0.823604 0.295052 0.255399 0.253036
H16   H     H_    0.908368 0.232347 0.180743 0.271147
N12   N     N_3   0.904649 0.488744 0.242304 -0.559995
H17   H     H_    0.948931 0.564038 0.251016 0.258519
H18   H     H_    0.896799 0.424882 0.132396 0.294110
N13   N     N_3   0.112265 0.733977 0.667460 -0.533110
H19   H     H_    0.095124 0.736584 0.766623 0.289343
H20   H     H_    0.109779 0.827601 0.663776 0.294773
N14   N     N_R   0.939372 0.738100 0.692833 0.155902
O19   O     O_R   0.876619 0.713658 0.753088 -0.274780
O20   O     O_R   0.965476 0.860622 0.729849 -0.317528

loop_
_geom_bond_atom_site_label_1
_geom_bond_atom_site_label_2
_geom_bond_distance
_ccdc_geom_bond_type
N7    O13   1.300256 A    
N13   H19   1.043987 S    
C12   N14   1.481062 S    
Cu1   Cu2   2.696844 S    
Cu1   O7    1.924818 S    
C15   C16   1.197989 T    
C17   H6    1.087426 S    
N14   O20   1.301644 A    
O4    C2    1.295375 A    
O7    C4    1.294899 A    
C13   N13   1.473878 S    
N8    O16   1.301600 A    
C19   C20   1.347491 D    
N2    C22   1.308164 D    
N9    H14   1.044466 S    
O5    C3    1.299385 A    
C10   N3    1.479884 S    
C9    C13   1.571876 S    
C6    C7    1.579609 S    
N5    H12   1.045986 S    
C11   C14   1.469814 S    
C12   C13   1.578879 S    
N12   H17   1.043817 S    
Cu2   O8    1.933058 S    
N1    N9    1.388449 S    
C7    N12   1.483479 S    
C10   C11   1.606898 S    
N13   H20   1.045626 S    
N9    H13   1.043990 S    
Cu2   N1    2.025866 S    
O3    Cu1   1.933060 S    
N6    O12   1.301047 A    
C5    H3    1.103901 S    
C21   C22   1.507566 S    
C5    C9    1.574226 S    
N4    O10   1.302722 A    
C7    N11   1.477039 S    
N11   H15   1.045992 S    
C12   H4    1.109893 S    
N14   O19   1.299824 A    
O3    C2    1.297327 A    
N8    O15   1.301329 A    
O1    C1    1.294324 A    
N10   O18   1.301523 A    
N3    H9    1.046439 S    
C22   N7    1.432465 S    
C2    C16   1.420149 S    
C6    C9    1.576019 S    
N3    H10   1.042940 S    
Cu2   O6    1.940460 S    
H8    N2    1.030719 S    
O8    C4    1.298028 A    
N7    O14   1.301345 A    
C5    N8    1.477146 S    
H5    C20   1.087537 S    
N6    O11   1.300963 A    
C10   N4    1.485160 S    
Cu1   O5    1.939956 S    
N4    O9    1.302325 A    
O1    Cu1   1.940459 S    
C4    C8    1.420432 S    
O2    Cu2   1.939954 S    
C13   H2    1.110734 S    
O6    C3    1.299349 A    
O4    Cu2   1.924820 S    
C19   N6    1.440031 S    
C7    C11   1.601519 S    
N10   O17   1.301242 A    
O2    C1    1.300797 A    
C3    C19   1.464535 S    
H7    C21   1.085105 S    
C17   C18   1.346643 D    
N1    C21   1.305864 D    
C9    C15   1.469836 S    
C18   C20   1.458476 S    
Cu1   N2    2.026042 S    
C1    C17   1.455032 S    
C8    C14   1.198443 T    
C5    C10   1.591502 S    
C6    H1    1.108659 S    
N5    H11   1.043753 S    
C11   C12   1.589267 S    
N12   H18   1.046123 S    
C6    N10   1.476552 S    
N11   H16   1.046260 S    
C18   N5    1.441890 S    
