data_mof_unit_52001.cif
_audit_creation_date              2012-12-10T17:45:32-0500
_audit_creation_method            fapswitch 2.2
_symmetry_space_group_name_H-M    P1
_symmetry_Int_Tables_number       1
_space_group_crystal_system       triclinic
_cell_length_a                    11.474952
_cell_length_b                    10.629288
_cell_length_c                    10.041261
_cell_angle_alpha                 90.663985
_cell_angle_beta                  88.204939
_cell_angle_gamma                 90.339112
_cell_volume                      1224.03619065

loop_
_atom_site_label
_atom_site_type_symbol
_atom_type_description
_atom_site_fract_x
_atom_site_fract_y
_atom_site_fract_z
_atom_type_partial_charge
Br1   Br    Br    0.720594 0.238369 0.734392 -0.585921
Br2   Br    Br    0.418860 0.900529 0.031456 -0.526474
Br3   Br    Br    0.647364 0.848301 0.244795 -0.436028
Br4   Br    Br    0.751672 0.548537 0.131226 -0.456304
C1    C     C_R   0.518629 0.262780 0.499339 0.911512
C2    C     C_R   0.514799 0.876956 0.501225 -0.180878
C3    C     C_R   0.299758 0.411584 0.131425 0.216724
C4    C     C_R   0.282471 0.500438 0.501738 0.899023
C5    C     C_R   0.191278 0.430951 0.074509 -0.234333
C6    C     C_R   0.184563 0.496654 0.955282 0.209112
C7    C     C_R   0.288258 0.527908 0.885743 -0.210318
C8    C     C_R   0.397229 0.496209 0.934761 0.091427
C9    C     C_R   0.400432 0.469023 0.073138 0.074131
C10   C     C_R   0.599960 0.517177 0.064539 0.330856
C11   C     C_R   0.599813 0.509487 0.923319 -0.109609
C12   C     C_R   0.565711 0.056370 0.862123 0.108762
C13   C     C_R   0.501069 0.741161 0.500637 0.915363
C14   C     C_R   0.717571 0.500651 0.498362 0.922780
C15   C     C_1   0.161781 0.500907 0.504567 -0.201602
C16   C     C_1   0.059384 0.501123 0.502576 -0.007259
C17   C     C_1   0.940703 0.501105 0.498057 0.030534
C18   C     C_1   0.838299 0.500942 0.495852 -0.094983
C19   C     C_R   0.596110 0.115255 0.741285 0.213671
C20   C     C_3   0.999687 0.425993 0.868655 -0.657861
C21   C     C_3   0.731197 0.039608 0.002003 -0.591000
C22   C     C_3   0.249574 0.865817 0.656904 -0.774452
C23   C     C_R   0.480760 0.960007 0.863236 0.194469
C24   C     C_3   0.354048 0.197663 0.170897 -0.679209
C25   C     C_R   0.443133 0.908199 0.740992 0.179312
C26   C     C_R   0.499471 0.948873 0.621061 -0.069076
C27   C     C_R   0.549937 0.067817 0.622259 -0.025399
C28   C     C_R   0.553031 0.132358 0.501329 -0.110351
C29   C     C_R   0.570444 0.065339 0.383115 -0.251929
C30   C     C_R   0.565539 0.935671 0.386844 0.329188
H1    H     H_    0.591639 0.112910 0.290584 0.195941
H2    H     H_    0.797518 0.076981 0.929989 0.241412
H3    H     H_    0.760085 0.062875 0.103878 0.241778
H4    H     H_    0.726852 0.935774 0.989047 0.279887
H5    H     H_    0.314485 0.793640 0.828836 0.258798
H6    H     H_    0.178865 0.793984 0.660586 0.231126
H7    H     H_    0.278729 0.876204 0.551226 0.244194
H8    H     H_    0.214125 0.956724 0.695442 0.249502
H9    H     H_    0.233477 0.299509 0.282958 0.215662
H10   H     H_    0.357441 0.126250 0.250458 0.254453
H11   H     H_    0.443498 0.212300 0.128963 0.243855
H12   H     H_    0.282197 0.588515 0.802609 0.186788
H13   H     H_    0.296695 0.161683 0.091612 0.243916
H14   H     H_    0.681037 0.518516 0.866677 0.194639
H15   H     H_    0.112886 0.394126 0.122965 0.163584
H16   H     H_    0.079184 0.598170 0.831582 0.222242
H17   H     H_    0.917017 0.462628 0.829904 0.256068
H18   H     H_    0.977467 0.367588 0.956852 0.251024
H19   H     H_    0.043008 0.366900 0.789831 0.232147
H20   H     H_    0.619621 0.191342 0.996300 0.238617
N1    N     N_R   0.498930 0.498800 0.142780 -0.122558
N2    N     N_R   0.498900 0.498720 0.857170 -0.115796
N3    N     N_2   0.074600 0.530330 0.904285 -0.284363
N4    N     N_2   0.618129 0.095057 0.982426 -0.277861
N5    N     N_2   0.344431 0.825598 0.737884 -0.278732
N6    N     N_2   0.308880 0.314201 0.226359 -0.263396
O1    O     O_R   0.500000 0.316780 0.614690 -0.585713
O2    O     O_R   0.499990 0.316750 0.385360 -0.610565
O3    O     O_R   0.334450 0.500030 0.614670 -0.629102
O4    O     O_R   0.334440 0.500000 0.385330 -0.597198
O5    O     O_R   0.500010 0.683250 0.614640 -0.599299
O6    O     O_R   0.500000 0.683220 0.385310 -0.548955
O7    O     O_R   0.665560 0.500000 0.614670 -0.609301
O8    O     O_R   0.665550 0.499970 0.385330 -0.563205
Zn1   Zn    Zn3+2 0.500010 0.500020 0.653130 0.980636
Zn2   Zn    Zn3+2 0.499990 0.499980 0.346870 1.035900

loop_
_geom_bond_atom_site_label_1
_geom_bond_atom_site_label_2
_ccdc_geom_bond_type
C20   H18   S    
C7    C8    A    
C24   H13   S    
Br1   C19   S    
C25   C26   A    
O4    Zn2   S    
C21   H4    S    
C23   C25   A    
C5    C6    A    
C13   O5    A    
C15   C16   T    
C1    C28   S    
H5    N5    S    
C28   C29   A    
C16   C17   S    
C20   H17   S    
H20   N4    S    
C10   N1    A    
C14   O7    A    
C1    O1    A    
O3    Zn1   S    
C22   N5    S    
C8    N2    A    
C17   C18   T    
C11   N2    A    
C22   H6    S    
C13   O6    A    
O6    Zn2   S    
C11   H14   S    
C4    O4    A    
O5    Zn1   S    
H9    N6    S    
C12   C23   A    
C2    C26   A    
C1    O2    A    
C29   C30   A    
C12   C19   A    
C3    C5    A    
C24   N6    S    
Br2   C23   S    
Br4   C10   S    
C26   C27   A    
C24   H11   S    
N1    Zn2   S    
C9    N1    A    
C21   N4    S    
C21   H2    S    
C14   O8    A    
C4    C15   S    
C2    C30   A    
C3    N6    S    
C3    C9    A    
C6    N3    S    
C5    H15   S    
C8    C9    A    
O2    Zn2   S    
O8    Zn2   S    
N2    Zn1   S    
C6    C7    A    
O1    Zn1   S    
C22   H8    S    
C2    C13   S    
C25   N5    S    
C10   C11   A    
C7    H12   S    
C12   N4    S    
C4    O3    A    
Br3   C30   S    
C29   H1    S    
C20   H19   S    
C14   C18   S    
H16   N3    S    
C24   H10   S    
C27   C28   A    
C22   H7    S    
C21   H3    S    
C20   N3    S    
O7    Zn1   S    
C19   C27   A    
