data_mof_unit_58265.cif
_audit_creation_date              2012-12-11T15:17:59-0500
_audit_creation_method            fapswitch 2.2
_symmetry_space_group_name_H-M    P1
_symmetry_Int_Tables_number       1
_space_group_crystal_system       triclinic
_cell_length_a                    15.714337
_cell_length_b                    15.708921
_cell_length_c                    34.771306
_cell_angle_alpha                 89.923918
_cell_angle_beta                  90.012962
_cell_angle_gamma                 119.99687
_cell_volume                      7433.73904074

loop_
_atom_site_label
_atom_site_type_symbol
_atom_type_description
_atom_site_fract_x
_atom_site_fract_y
_atom_site_fract_z
_atom_type_partial_charge
C1    C     C_R   0.578420 0.441101 0.555154 0.575908
C2    C     C_R   0.483746 0.952072 0.215381 0.387099
C3    C     C_2   0.344681 0.986227 0.092634 0.607405
C4    C     C_2   0.642597 0.653098 0.092172 0.602996
C5    C     C_2   0.012095 0.357349 0.092628 0.602641
C6    C     C_2   0.863785 0.588059 0.673727 0.597626
C7    C     C_2   0.413704 0.275507 0.674184 0.597833
C8    C     C_2   0.721871 0.135697 0.674417 0.595874
C9    C     C_2   0.586603 0.862174 0.174043 0.597521
C10   C     C_2   0.277521 0.413304 0.174365 0.597824
C11   C     C_2   0.138063 0.722873 0.174343 0.595956
C12   C     C_R   0.471348 0.515164 0.215165 0.385397
C13   C     C_R   0.047443 0.529296 0.215481 0.386030
C14   C     C_R   0.985526 0.431100 0.856481 -0.065479
C15   C     C_R   0.570027 0.558741 0.855950 -0.065798
C16   C     C_R   0.433391 0.003716 0.855070 -0.108544
C17   C     C_R   0.431070 0.986653 0.356258 -0.064544
C18   C     C_R   0.566350 0.570069 0.355028 -0.117159
C19   C     C_R   0.006707 0.434674 0.355657 -0.108719
C20   C     C_R   0.022396 0.443819 0.893874 0.063517
C21   C     C_R   0.558796 0.137117 0.555105 0.573557
C22   C     C_R   0.557234 0.582471 0.893351 0.064511
C23   C     C_R   0.411980 0.969611 0.893063 0.062082
C24   C     C_R   0.443713 0.023400 0.393648 0.063744
C25   C     C_R   0.588308 0.556943 0.392784 0.059219
C26   C     C_R   0.970763 0.412719 0.393436 0.071368
C27   C     C_R   0.090217 0.621106 0.887147 0.061046
C28   C     C_R   0.381420 0.463470 0.888544 0.072300
C29   C     C_R   0.540670 0.925383 0.889730 0.067189
C30   C     C_R   0.620695 0.089065 0.387390 0.059362
C31   C     C_R   0.459171 0.384459 0.389758 0.062153
C32   C     C_R   0.862719 0.421543 0.555135 0.580383
C33   C     C_R   0.925957 0.540864 0.388966 0.055717
C34   C     C_R   0.052294 0.606180 0.849963 -0.117912
C35   C     C_R   0.396645 0.441699 0.851080 -0.107477
C36   C     C_R   0.560465 0.960193 0.851882 -0.102020
C37   C     C_R   0.605836 0.051367 0.350174 -0.120850
C38   C     C_R   0.438976 0.399565 0.351963 -0.105439
C39   C     C_R   0.963636 0.561891 0.351806 -0.065089
C40   C     C_R   0.004118 0.512249 0.833741 -0.013919
C41   C     C_R   0.489478 0.492280 0.833965 -0.017913
C42   C     C_R   0.504088 0.994773 0.833796 -0.007438
C43   C     C_R   0.441158 0.578306 0.055114 0.572637
C44   C     C_R   0.512153 0.004359 0.333723 -0.014970
C45   C     C_R   0.495229 0.490596 0.333841 -0.005035
C46   C     C_R   0.998935 0.505806 0.334142 -0.017574
C47   C     C_R   0.079548 0.540151 0.909142 0.067090
C48   C     C_R   0.461275 0.538768 0.909501 0.055039
C49   C     C_R   0.461419 0.924051 0.909887 0.070973
C50   C     C_R   0.539932 0.079472 0.409157 0.065401
C51   C     C_R   0.538749 0.462326 0.409798 0.085151
C52   C     C_R   0.923851 0.461543 0.409705 0.049690
C53   C     C_R   0.577665 0.442171 0.445458 0.595406
C54   C     C_R   0.137226 0.558776 0.055136 0.573277
C55   C     C_R   0.558212 0.136184 0.445279 0.575809
C56   C     C_R   0.864167 0.422304 0.445300 0.568225
C57   C     C_R   0.442008 0.577796 0.945347 0.574946
C58   C     C_R   0.136168 0.558248 0.945281 0.578509
C59   C     C_R   0.422408 0.864637 0.945492 0.587905
C60   C     C_R   0.907630 0.451945 0.593674 -0.019775
C61   C     C_R   0.547863 0.455435 0.593710 -0.025207
C62   C     C_R   0.543875 0.091063 0.593478 -0.024120
C63   C     C_R   0.452072 0.907546 0.093669 -0.019070
C64   C     C_R   0.455929 0.547188 0.093514 -0.024968
C65   C     C_R   0.421561 0.862675 0.055137 0.577604
C66   C     C_R   0.092054 0.544016 0.093662 -0.023865
C67   C     C_R   0.949879 0.403087 0.613304 0.039255
C68   C     C_R   0.595612 0.546836 0.613156 0.039997
C69   C     C_R   0.451890 0.045631 0.612551 0.041985
C70   C     C_R   0.403998 0.950750 0.113130 0.039647
C71   C     C_R   0.547779 0.593949 0.112649 0.041790
C72   C     C_R   0.047947 0.452290 0.112978 0.041868
C73   C     C_R   0.961537 0.413646 0.653319 -0.130281
C74   C     C_R   0.584932 0.548106 0.653134 -0.126532
C75   C     C_R   0.449526 0.031920 0.652453 -0.125995
C76   C     C_R   0.951370 0.483354 0.715424 0.386873
C77   C     C_R   0.414731 0.962777 0.153130 -0.130221
C78   C     C_R   0.549903 0.582673 0.152566 -0.125916
C79   C     C_R   0.035719 0.450405 0.152956 -0.126368
C80   C     C_R   0.935409 0.474122 0.673746 -0.007397
C81   C     C_R   0.525391 0.461440 0.673775 -0.008449
C82   C     C_R   0.535743 0.059199 0.673375 -0.008951
C83   C     C_R   0.474539 0.935955 0.173711 -0.007244
C84   C     C_R   0.463593 0.523554 0.173447 -0.009014
C85   C     C_R   0.063092 0.536815 0.173734 -0.009039
C86   C     C_R   0.899228 0.527859 0.653847 0.042683
C87   C     C_R   0.516561 0.468405 0.715486 0.386179
C88   C     C_R   0.472714 0.371179 0.654085 0.043653
C89   C     C_R   0.626678 0.098606 0.654011 0.044133
C90   C     C_R   0.527379 0.898603 0.153983 0.042826
C91   C     C_R   0.372815 0.471760 0.154021 0.044054
C92   C     C_R   0.101112 0.627433 0.154151 0.043755
C93   C     C_R   0.888251 0.517813 0.614020 -0.149055
C94   C     C_R   0.482880 0.370020 0.614259 -0.148261
C95   C     C_R   0.628923 0.111593 0.614249 -0.147504
C96   C     C_R   0.517235 0.887343 0.114166 -0.149202
C97   C     C_R   0.370809 0.482487 0.114247 -0.148260
C98   C     C_R   0.527779 0.042840 0.715077 0.385567
C99   C     C_R   0.112647 0.629186 0.114325 -0.147682
C100  C     C_R   0.980833 0.500894 0.792398 0.350116
C101  C     C_R   0.500161 0.480563 0.792532 0.348873
C102  C     C_R   0.515092 0.015376 0.792210 0.352042
C103  C     C_R   0.500994 0.981322 0.292365 0.349792
C104  C     C_R   0.483981 0.500293 0.292293 0.352632
C105  C     C_R   0.020272 0.517010 0.292623 0.348717
C106  C     C_2   0.984767 0.343138 0.592972 0.607379
C107  C     C_2   0.655072 0.642080 0.592946 0.603219
C108  C     C_2   0.357183 0.009939 0.592024 0.603187
Cr1   Cr    Cr6+3 0.522350 0.263930 0.500020 1.065178
Cr2   Cr    Cr6+3 0.736070 0.258420 0.500020 1.087485
Cr3   Cr    Cr6+3 0.741580 0.477650 0.500020 1.061593
Cr4   Cr    Cr6+3 0.263930 0.522350 0.000020 1.065418
Cr5   Cr    Cr6+3 0.258420 0.736070 0.000020 1.088551
Cr6   Cr    Cr6+3 0.477650 0.741580 0.000020 1.067408
H1    H     H_    0.855629 0.555493 0.599353 0.176678
H2    H     H_    0.377644 0.995102 0.168399 0.175518
H3    H     H_    0.619693 0.618999 0.167585 0.182071
H4    H     H_    0.002915 0.380710 0.168099 0.182003
H5    H     H_    0.945636 0.357452 0.844748 0.169676
H6    H     H_    0.643095 0.596056 0.843568 0.171328
H7    H     H_    0.391908 0.033834 0.841687 0.144832
H8    H     H_    0.357564 0.947641 0.344351 0.171430
H9    H     H_    0.608351 0.641959 0.341872 0.149041
H10   H     H_    0.037417 0.393381 0.342620 0.144279
H11   H     H_    0.065126 0.669722 0.833201 0.150207
H12   H     H_    0.446097 0.299525 0.599764 0.176705
H13   H     H_    0.334484 0.387198 0.834782 0.146905
H14   H     H_    0.618159 0.956931 0.836081 0.147897
H15   H     H_    0.669273 0.063423 0.333575 0.149381
H16   H     H_    0.381048 0.338664 0.336239 0.146390
H17   H     H_    0.960470 0.619794 0.336035 0.174021
H18   H     H_    0.044759 0.322587 0.545069 0.345156
H19   H     H_    0.766965 0.782147 0.595562 0.359092
H20   H     H_    0.216675 0.980440 0.594288 0.357799
H21   H     H_    0.324640 0.046129 0.044533 0.344883
H22   H     H_    0.783015 0.764283 0.094490 0.358048
H23   H     H_    0.699857 0.146712 0.600032 0.176536
H24   H     H_    0.983585 0.217121 0.095026 0.357377
H25   H     H_    0.065645 0.353761 0.918004 0.267184
H26   H     H_    0.975383 0.361262 0.942502 0.262488
H27   H     H_    0.643208 0.718487 0.916024 0.271087
H28   H     H_    0.642819 0.624655 0.941215 0.263397
H29   H     H_    0.373475 0.028163 0.936548 0.245451
H30   H     H_    0.305251 0.008672 0.896959 0.226582
H31   H     H_    0.354636 0.068331 0.417330 0.269744
H32   H     H_    0.360282 0.977157 0.442052 0.263509
H33   H     H_    0.642369 0.693435 0.414651 0.243178
H34   H     H_    0.554207 0.853870 0.099633 0.176514
H35   H     H_    0.728295 0.668603 0.397530 0.243728
H36   H     H_    0.028029 0.374397 0.437504 0.247145
H37   H     H_    0.010415 0.306479 0.398003 0.225144
H38   H     H_    0.795889 0.605553 0.719707 0.365032
H39   H     H_    0.397610 0.190991 0.720375 0.365159
H40   H     H_    0.805080 0.204408 0.720767 0.364476
H41   H     H_    0.603097 0.794119 0.220263 0.365305
H42   H     H_    0.194047 0.398079 0.220739 0.364947
H43   H     H_    0.206995 0.806811 0.220488 0.365216
H44   H     H_    0.203284 0.760795 0.882719 0.246571
H45   H     H_    0.299981 0.446474 0.099979 0.176192
H46   H     H_    0.098411 0.750129 0.900793 0.238811
H47   H     H_    0.231811 0.372228 0.883267 0.223761
H48   H     H_    0.281860 0.361083 0.924233 0.233887
H49   H     H_    0.645507 0.883420 0.886810 0.225371
H50   H     H_    0.642586 0.937597 0.927891 0.238036
H51   H     H_    0.761131 0.200770 0.383336 0.246132
H52   H     H_    0.748469 0.094976 0.401411 0.236684
H53   H     H_    0.354449 0.237601 0.386897 0.225208
H54   H     H_    0.357330 0.294711 0.427976 0.235457
H55   H     H_    0.919434 0.629629 0.429970 0.260153
H56   H     H_    0.146716 0.699919 0.099923 0.176821
H57   H     H_    0.810304 0.554485 0.406871 0.269952
H58   H     H_    0.993099 0.375948 0.668718 0.175534
H59   H     H_    0.621868 0.617536 0.668383 0.181494
H60   H     H_    0.379630 0.998181 0.667430 0.181873
N1    N     N_R   0.939835 0.411325 0.775312 -0.216289
N2    N     N_R   0.403183 0.926800 0.237311 -0.203081
N3    N     N_R   0.528804 0.596054 0.236565 -0.204758
N4    N     N_R   0.070814 0.471791 0.236980 -0.205729
N5    N     N_R   0.993308 0.572882 0.732362 -0.171610
N6    N     N_R   0.427469 0.419637 0.732779 -0.170939
N7    N     N_R   0.577858 0.004389 0.732757 -0.170168
N8    N     N_R   0.573098 0.993169 0.232449 -0.171987
N9    N     N_R   0.421435 0.426570 0.232839 -0.170462
N10   N     N_R   0.008991 0.579388 0.233067 -0.169279
N11   N     N_R   0.007672 0.581417 0.770123 -0.210246
N12   N     N_R   0.589220 0.530381 0.775079 -0.215023
N13   N     N_R   0.419491 0.425575 0.770578 -0.210356
N14   N     N_R   0.571677 0.991020 0.770611 -0.209982
N15   N     N_R   0.581492 0.007439 0.270218 -0.211090
N16   N     N_R   0.427582 0.419336 0.270689 -0.211057
N17   N     N_R   0.995798 0.573424 0.270910 -0.212012
N18   N     N_3   0.001341 0.357369 0.915251 -0.618133
N19   N     N_3   0.643304 0.652244 0.913784 -0.615465
N20   N     N_3   0.338022 0.978397 0.914166 -0.589770
N21   N     N_3   0.357302 0.003471 0.414739 -0.613824
N22   N     N_3   0.663017 0.639721 0.413314 -0.584024
N23   N     N_R   0.463781 0.052441 0.774354 -0.216206
N24   N     N_3   0.979201 0.338874 0.414854 -0.587572
N25   N     N_3   0.144425 0.719852 0.901369 -0.567707
N26   N     N_3   0.283863 0.412235 0.904453 -0.587432
N27   N     N_3   0.598115 0.887296 0.906932 -0.591050
N28   N     N_3   0.719252 0.141915 0.401884 -0.569309
N29   N     N_3   0.401810 0.288920 0.406995 -0.592714
N30   N     N_3   0.886231 0.598936 0.403637 -0.623369
N31   N     N_R   0.411643 0.941223 0.275141 -0.215461
N32   N     N_R   0.535104 0.588750 0.274450 -0.214379
N33   N     N_R   0.057359 0.465643 0.274881 -0.214772
N34   N     N_R   0.925302 0.402717 0.737481 -0.203028
N35   N     N_R   0.597271 0.524333 0.737225 -0.201756
N36   N     N_R   0.470098 0.066017 0.736468 -0.205560
O1    O     O_R   0.498680 0.159540 0.541860 -0.477453
O2    O     O_R   0.358060 0.532760 0.040030 -0.519162
O3    O     O_R   0.174700 0.641940 0.040030 -0.518011
O4    O     O_R   0.467240 0.825300 0.040030 -0.520462
O5    O     O_R   0.498590 0.161190 0.456930 -0.514661
O6    O     O_R   0.838810 0.337400 0.456930 -0.456225
O7    O     O_R   0.662600 0.501410 0.456930 -0.486786
O8    O     O_R   0.161190 0.498590 0.956930 -0.513737
O9    O     O_R   0.337400 0.838810 0.956930 -0.465841
O10   O     O_R   0.501410 0.662600 0.956930 -0.510853
O11   O     O_R   0.532680 0.359580 0.461300 -0.480426
O12   O     O_R   0.840460 0.339140 0.541860 -0.476900
O13   O     O_R   0.640420 0.173100 0.461300 -0.458603
O14   O     O_R   0.826900 0.467320 0.461300 -0.526277
O15   O     O_R   0.359580 0.532680 0.961300 -0.470832
O16   O     O_R   0.173100 0.640420 0.961300 -0.458423
O17   O     O_R   0.467320 0.826900 0.961300 -0.479882
O18   O     O_3   0.666667 0.333333 0.499990 -0.277111
O19   O     O_3   0.333333 0.666667 0.999990 -0.275597
O20   O     O_2   0.983304 0.273317 0.609235 -0.461538
O21   O     O_R   0.022749 0.368548 0.555695 -0.675563
O22   O     O_2   0.634438 0.652995 0.560074 -0.483052
O23   O     O_R   0.660860 0.501320 0.541860 -0.472062
O24   O     O_R   0.732636 0.720900 0.612122 -0.650024
O25   O     O_2   0.347555 0.979869 0.558982 -0.493766
O26   O     O_R   0.277429 0.007124 0.611070 -0.650343
O27   O     O_2   0.275330 0.985726 0.108827 -0.462033
O28   O     O_R   0.370152 0.023637 0.055271 -0.676794
O29   O     O_2   0.652486 0.632683 0.059154 -0.494590
O30   O     O_R   0.722162 0.730128 0.111239 -0.650319
O31   O     O_2   0.980845 0.347084 0.059740 -0.494819
O32   O     O_R   0.010498 0.278095 0.111679 -0.650338
O33   O     O_2   0.873827 0.662724 0.658441 -0.465832
O34   O     O_R   0.159540 0.498680 0.041860 -0.478295
O35   O     O_R   0.815681 0.557820 0.709163 -0.647558
O36   O     O_2   0.339484 0.210048 0.659051 -0.465042
O37   O     O_R   0.444637 0.258577 0.709639 -0.648096
O38   O     O_2   0.787981 0.127524 0.659559 -0.465279
O39   O     O_R   0.737637 0.183381 0.709824 -0.647882
O40   O     O_2   0.660722 0.870880 0.158814 -0.467388
O41   O     O_R   0.555993 0.814605 0.209580 -0.647554
O42   O     O_2   0.211616 0.339032 0.159436 -0.464599
O43   O     O_R   0.261430 0.444844 0.209803 -0.648026
O44   O     O_2   0.128980 0.788467 0.159433 -0.465832
O45   O     O_R   0.339140 0.840460 0.041860 -0.478429
O46   O     O_R   0.186554 0.739446 0.209615 -0.647369
O47   O     O_R   0.501320 0.660860 0.041860 -0.476920
O48   O     O_R   0.532760 0.358060 0.540030 -0.518917
O49   O     O_R   0.641940 0.174700 0.540030 -0.517526
O50   O     O_R   0.825300 0.467240 0.540030 -0.517375

loop_
_geom_bond_atom_site_label_1
_geom_bond_atom_site_label_2
_ccdc_geom_bond_type
N2    N31   A    
C54   O3    A    
C22   C48   A    
C108  O26   S    
C73   C80   A    
Cr5   O45   S    
H48   N26   S    
C10   O43   S    
C82   C98   S    
C105  N17   A    
C6    O35   S    
C36   C42   A    
C61   C68   A    
Cr5   O3    S    
C16   H7    S    
C76   N5    A    
Cr6   O19   S    
C63   C65   S    
C19   C46   A    
C48   C57   S    
C99   H56   S    
C29   C49   A    
N3    N32   A    
C33   C52   A    
C98   N36   A    
C29   C36   A    
H38   O35   S    
C28   N26   S    
C82   C89   A    
Cr2   O49   S    
H18   O21   S    
C34   C40   A    
Cr3   O18   S    
C97   H45   S    
H39   O37   S    
C86   C93   A    
C72   C79   A    
H35   N22   S    
C55   O5    A    
C23   C49   A    
C12   N9    A    
H30   N20   S    
C77   C83   A    
C53   O11   A    
C13   N4    A    
C79   H4    S    
C7    O37   S    
H57   N30   S    
C11   O44   D    
C106  O21   S    
C12   C84   S    
H52   N28   S    
C64   C71   A    
Cr1   O48   S    
C19   C26   A    
Cr6   O4    S    
C38   C45   A    
C80   C86   A    
N23   N36   A    
C2    N2    A    
C87   N6    A    
C11   C92   S    
C69   C108  S    
C15   C22   A    
C66   C72   A    
C30   C37   A    
C28   C35   A    
C1    O23   A    
C22   N19   S    
C69   C75   A    
C103  N15   A    
C84   C91   A    
H53   N29   S    
C5    O32   S    
C77   H2    S    
C59   O17   A    
C31   N29   S    
H24   O32   S    
C18   H9    S    
H19   O24   S    
C57   O15   A    
C60   C93   A    
C12   N3    A    
Cr6   O17   S    
C108  O25   D    
H40   O39   S    
C56   O6    A    
C107  O22   D    
C70   C77   A    
C24   C50   A    
C87   N35   A    
H37   N24   S    
C2    C83   S    
C36   H14   S    
C18   C25   A    
N1    N34   A    
C30   N28   S    
Cr2   O13   S    
C42   C102  S    
Cr5   O9    S    
C85   C92   A    
C43   C64   S    
C105  N33   A    
H46   N25   S    
C94   H12   S    
C27   C34   A    
C53   O7    A    
C96   H34   S    
C88   C94   A    
C19   H10   S    
C95   H23   S    
C17   C24   A    
C29   N27   S    
C52   C56   S    
C81   C88   A    
C14   C20   A    
C32   O50   A    
C78   H3    S    
C27   N25   S    
C60   C67   A    
C74   H59   S    
H25   N18   S    
C79   C85   A    
C102  N23   A    
C31   C51   A    
C56   O14   A    
H41   O41   S    
C61   C94   A    
C21   O49   A    
C24   N21   S    
Cr1   O18   S    
H29   N20   S    
C63   C96   A    
C78   C84   A    
C102  N14   A    
Cr4   O19   S    
C21   O1    A    
C62   C69   A    
C1    C61   S    
C51   C53   S    
C54   O34   A    
C66   C99   A    
C89   C95   A    
Cr2   O6    S    
H51   N28   S    
C25   C51   A    
C20   N18   S    
C45   C104  S    
C26   C52   A    
C33   C39   A    
C2    N8    A    
Cr1   O1    S    
C7    C88   S    
C7    O36   D    
C63   C70   A    
C13   N10   A    
C104  N16   A    
N4    N33   A    
C3    C70   S    
C100  N1    A    
H44   N25   S    
C4    O30   S    
N10   N17   A    
H33   N22   S    
C67   C106  S    
H27   N19   S    
C91   C97   A    
C73   H58   S    
C35   H13   S    
C43   O2    A    
C18   C45   A    
C15   C41   A    
C21   C62   S    
C81   C87   S    
C25   N22   S    
C47   C58   S    
C3    O27   D    
C39   C46   A    
C67   C73   A    
N6    N13   A    
C64   C97   A    
C68   C107  S    
C4    O29   D    
C10   C91   S    
C14   H5    S    
C16   C23   A    
C104  N32   A    
H22   O30   S    
H26   N18   S    
C6    O33   D    
H43   O46   S    
C32   C60   S    
C74   C81   A    
C101  N12   A    
Cr2   O12   S    
N9    N16   A    
Cr4   O2    S    
Cr3   O50   S    
C43   O47   A    
Cr1   O11   S    
H42   O43   S    
C11   O46   S    
C55   O13   A    
C1    O48   A    
C49   C59   S    
C27   C47   A    
C41   C101  S    
C83   C90   A    
C28   C48   A    
Cr4   O8    S    
Cr4   O15   S    
H47   N26   S    
C9    O41   S    
C16   C42   A    
C107  O24   S    
C38   H16   S    
C76   C80   S    
Cr6   O10   S    
Cr1   O5    S    
C58   O16   A    
C9    C90   S    
C40   C100  S    
C32   O12   A    
H49   N27   S    
H21   O28   S    
C75   C82   A    
Cr5   O19   S    
C54   C66   S    
C57   O10   A    
C5    C72   S    
C93   H1    S    
C33   N30   S    
C15   H6    S    
C50   C55   S    
C6    C86   S    
C31   C38   A    
N8    N15   A    
C5    O31   D    
C8    O39   S    
C98   N7    A    
C44   C103  S    
C9    O40   D    
C17   C44   A    
C65   O4    A    
Cr2   O18   S    
H55   N30   S    
C58   O8    A    
C46   C105  S    
Cr5   O16   S    
C39   H17   S    
C37   C44   A    
C34   H11   S    
C65   O45   A    
C23   N20   S    
Cr3   O23   S    
H28   N19   S    
C37   H15   S    
N5    N11   A    
C100  N11   A    
C10   O42   D    
Cr3   O14   S    
C4    C71   S    
C30   C50   A    
C26   N24   S    
Cr6   O47   S    
H31   N21   S    
C20   C47   A    
C103  N31   A    
H50   N27   S    
C3    O28   S    
C14   C40   A    
H54   N29   S    
C106  O20   D    
C17   H8    S    
Cr4   O34   S    
C8    O38   D    
C90   C96   A    
N12   N35   A    
C13   C85   S    
C35   C41   A    
H20   O26   S    
C59   O9    A    
C8    C89   S    
Cr3   O7    S    
N7    N14   A    
H32   N21   S    
C62   C95   A    
C68   C74   A    
H36   N24   S    
C71   C78   A    
C101  N13   A    
C76   N34   A    
C92   C99   A    
C75   H60   S    
