data_mof_unit_43314.cif
_audit_creation_date              2012-12-10T17:55:07-0500
_audit_creation_method            fapswitch 2.2
_symmetry_space_group_name_H-M    P1
_symmetry_Int_Tables_number       1
_space_group_crystal_system       triclinic
_cell_length_a                    8.758722
_cell_length_b                    10.828229
_cell_length_c                    9.579335
_cell_angle_alpha                 89.394508
_cell_angle_beta                  96.557806
_cell_angle_gamma                 91.733934
_cell_volume                      902.137276925

loop_
_atom_site_label
_atom_site_type_symbol
_atom_type_description
_atom_site_fract_x
_atom_site_fract_y
_atom_site_fract_z
_atom_type_partial_charge
C1    C     C_R   0.499787 0.262255 0.500361 0.783837
C2    C     C_R   0.500213 0.737745 0.499639 0.783879
C3    C     C_R   0.204835 0.495771 0.465726 0.854083
C4    C     C_R   0.795164 0.504240 0.534274 0.854183
C5    C     C_2   0.041473 0.472057 0.454245 -0.270898
C6    C     C_2   0.958525 0.527966 0.545755 -0.270896
C7    C     C_R   0.499018 0.065137 0.373274 -0.137254
C8    C     C_R   0.500983 0.934863 0.626726 -0.137219
C9    C     C_R   0.499255 0.937382 0.372827 -0.152026
C10   C     C_R   0.500745 0.062618 0.627173 -0.152028
C11   C     C_R   0.500214 0.871696 0.499528 -0.041263
C12   C     C_R   0.499786 0.128304 0.500472 -0.041276
C13   C     C_R   0.412026 0.416498 0.068103 0.035049
C14   C     C_R   0.587973 0.583503 0.931897 0.035020
C15   C     C_R   0.410595 0.415268 0.919615 0.081836
C16   C     C_R   0.589402 0.584734 0.080384 0.081847
Cu1   Cu    Cu3+1 0.500000 0.500020 0.640660 0.963859
Cu2   Cu    Cu3+1 0.500000 0.499980 0.359340 0.963878
H1    H     H_    0.498193 0.114126 0.274016 0.174186
H2    H     H_    0.501807 0.885874 0.725985 0.174187
H3    H     H_    0.498538 0.890389 0.273489 0.177566
H4    H     H_    0.501462 0.109611 0.726511 0.177556
H5    H     H_    0.341525 0.350992 0.120346 0.203183
H6    H     H_    0.658474 0.649009 0.879655 0.203198
N1    N     N_R   0.500040 0.500030 0.852080 -0.236080
N2    N     N_R   0.499960 0.499970 0.147920 -0.236077
O1    O     O_R   0.499990 0.319660 0.618740 -0.615815
O2    O     O_R   0.500010 0.680340 0.381260 -0.615820
O3    O     O_R   0.499990 0.319630 0.381170 -0.588243
O4    O     O_R   0.500010 0.680370 0.618830 -0.588232
O5    O     O_R   0.274840 0.500010 0.591370 -0.637394
O6    O     O_R   0.725160 0.499990 0.408630 -0.637354
O7    O     O_R   0.274830 0.499980 0.353800 -0.524370
O8    O     O_R   0.725170 0.500020 0.646200 -0.524388
C17   C     C_2   0.978910 0.367934 0.360661 0.404131
H7    H     H_    0.872901 0.318719 0.377838 0.090859
O9    O     O_2   0.047790 0.333654 0.264839 -0.513768
C18   C     C_2   0.021077 0.632104 0.639327 0.404053
H8    H     H_    0.127166 0.681238 0.622248 0.090952
O10   O     O_2   0.952074 0.666516 0.735009 -0.513816
C19   C     C_2   0.309278 0.320306 0.842226 0.363160
H9    H     H_    0.275377 0.326507 0.731358 0.138799
O11   O     O_2   0.259311 0.231209 0.903889 -0.553536
C20   C     C_2   0.690709 0.679702 0.157773 0.363198
H10   H     H_    0.724632 0.673491 0.268637 0.138802
O12   O     O_2   0.740638 0.768816 0.096114 -0.553547

loop_
_geom_bond_atom_site_label_1
_geom_bond_atom_site_label_2
_ccdc_geom_bond_type
C18   O10   D    
C6    C18   S    
C4    O8    A    
C9    C11   A    
C19   H9    S    
C16   C20   S    
C17   H7    S    
Cu2   N2    S    
C2    O4    A    
Cu1   N1    S    
C1    O3    A    
Cu1   Cu2   S    
Cu2   O3    S    
C8    H2    S    
C10   H4    S    
C3    O5    A    
Cu1   O4    S    
C19   O11   D    
C9    H3    S    
C4    O6    A    
C1    C12   S    
C10   C12   A    
C8    C11   A    
C2    C11   S    
C5    C17   S    
C8    C10   A    
C17   O9    D    
C20   O12   D    
C7    H1    S    
C13   C15   A    
C14   N1    A    
C16   N2    A    
C5    C6    D    
Cu1   O5    S    
Cu2   O7    S    
C14   C16   A    
C13   N2    A    
C15   N1    A    
Cu2   O6    S    
Cu1   O8    S    
C3    O7    A    
C15   C19   S    
Cu1   O1    S    
C7    C9    A    
Cu2   O2    S    
C20   H10   S    
C13   H5    S    
C4    C6    S    
C14   H6    S    
C1    O1    A    
C2    O2    A    
C7    C12   A    
C3    C5    S    
C18   H8    S    
