data_mof_unit_37534.cif
_audit_creation_date              2012-10-26T18:29:34-0400
_audit_creation_method            fapswitch 2.2
_symmetry_space_group_name_H-M    P1
_symmetry_Int_Tables_number       1
_space_group_crystal_system       triclinic
_cell_length_a                    11.663488
_cell_length_b                    12.99907
_cell_length_c                    11.923109
_cell_angle_alpha                 101.498502
_cell_angle_beta                  92.65528
_cell_angle_gamma                 93.774448
_cell_volume                      1764.3228166

loop_
_atom_site_label
_atom_site_type_symbol
_atom_type_description
_atom_site_fract_x
_atom_site_fract_y
_atom_site_fract_z
_atom_type_partial_charge
C1    C     C_R   0.502497 0.299283 0.476438 0.527450
C2    C     C_R   0.451056 0.470679 0.966904 -0.007733
C3    C     C_R   0.284511 0.500295 0.500896 0.545365
C4    C     C_R   0.715488 0.499741 0.499068 0.537526
C5    C     C_1   0.162782 0.501018 0.502273 -0.045309
C6    C     C_1   0.837190 0.499177 0.497462 -0.049903
C7    C     C_1   0.060024 0.500641 0.501037 -0.064316
C8    C     C_1   0.939932 0.499539 0.498507 -0.068946
C9    C     C_R   0.496377 0.817626 0.537662 -0.025248
C10   C     C_R   0.503059 0.184132 0.458463 -0.014427
C11   C     C_R   0.525453 0.009749 0.344011 0.017327
C12   C     C_R   0.501960 0.701820 0.523410 0.525118
C13   C     C_R   0.433167 0.985380 0.634721 0.021350
C14   C     C_R   0.545050 0.120695 0.359397 0.010306
C15   C     C_R   0.472651 0.886079 0.641981 0.009673
C16   C     C_R   0.457057 0.137119 0.543734 -0.154240
C17   C     C_R   0.506244 0.858857 0.438160 -0.150684
C18   C     C_R   0.460940 0.029550 0.539400 0.028067
C19   C     C_R   0.497427 0.965650 0.439713 0.026921
C20   C     C_3   0.504006 0.861370 0.759433 -0.233665
C21   C     C_3   0.556582 0.957967 0.849599 -0.309150
C22   C     C_3   0.641755 0.928613 0.936812 -0.478517
C23   C     C_R   0.377854 0.411683 0.024687 -0.170067
C24   C     C_3   0.618183 0.168262 0.276091 -0.243346
C25   C     C_3   0.739272 0.128095 0.270312 -0.309943
C26   C     C_3   0.811453 0.180834 0.191101 -0.468603
C27   C     C_3   0.532189 0.938581 0.227381 -0.417108
C28   C     C_3   0.360059 0.042279 0.725487 -0.415844
C29   C     C_3   0.340681 0.392604 0.777781 -0.207071
C30   C     C_3   0.224383 0.441681 0.796854 -0.303118
C31   C     C_3   0.124481 0.365411 0.737850 -0.460059
C32   C     C_3   0.687508 0.551699 0.195708 -0.195995
C33   C     C_3   0.716353 0.662637 0.269142 -0.279321
C34   C     C_R   0.611107 0.596874 0.977707 -0.170648
C35   C     C_3   0.845990 0.691373 0.282084 -0.472718
C36   C     C_3   0.700494 0.647944 0.812436 -0.212372
C37   C     C_3   0.816153 0.598301 0.818896 -0.295146
C38   C     C_3   0.912620 0.664295 0.778010 -0.455105
C39   C     C_3   0.303024 0.347731 0.189614 -0.209121
C40   C     C_3   0.181839 0.387353 0.186504 -0.299965
C41   C     C_3   0.096201 0.317509 0.236077 -0.456686
C42   C     C_R   0.389250 0.419024 0.143948 0.137425
C43   C     C_R   0.605800 0.585553 0.858118 0.138610
C44   C     C_R   0.561312 0.529706 0.151493 0.138010
C45   C     C_R   0.440649 0.463962 0.844500 0.142429
C46   C     C_R   0.539844 0.534518 0.033016 -0.013024
Cu1   Cu    Cu3+1 0.508350 0.507730 0.615930 0.892871
Cu2   Cu    Cu3+1 0.491650 0.492270 0.384070 0.892017
H1    H     H_    0.528679 0.807872 0.360522 0.131904
H2    H     H_    0.427526 0.824315 0.792436 0.143351
H3    H     H_    0.571332 0.805333 0.749259 0.166144
H4    H     H_    0.769444 0.165115 0.103265 0.148470
H5    H     H_    0.822279 0.267219 0.224169 0.149022
H6    H     H_    0.897380 0.148909 0.186747 0.141505
H7    H     H_    0.782972 0.145821 0.357638 0.165479
H8    H     H_    0.735807 0.042008 0.237910 0.167362
H9    H     H_    0.573200 0.153114 0.189640 0.130699
H10   H     H_    0.634267 0.254297 0.302223 0.187713
H11   H     H_    0.532463 0.982061 0.156711 0.130864
H12   H     H_    0.425408 0.186737 0.617965 0.119355
H13   H     H_    0.610216 0.894083 0.225573 0.107923
H14   H     H_    0.454761 0.882082 0.208582 0.131158
H15   H     H_    0.324612 0.988995 0.779547 0.129403
H16   H     H_    0.410766 0.110730 0.780410 0.113866
H17   H     H_    0.284517 0.070553 0.683763 0.122424
H18   H     H_    0.136765 0.341003 0.644778 0.155445
H19   H     H_    0.118368 0.294389 0.776509 0.142906
H20   H     H_    0.042580 0.404300 0.748710 0.147098
H21   H     H_    0.209005 0.463900 0.889313 0.144962
H22   H     H_    0.223980 0.515278 0.763167 0.188265
H23   H     H_    0.309657 0.357456 0.978793 0.099166
H24   H     H_    0.350801 0.370408 0.686327 0.206577
H25   H     H_    0.338470 0.314287 0.801701 0.083660
H26   H     H_    0.890595 0.632880 0.320890 0.163246
H27   H     H_    0.880244 0.693875 0.197181 0.144320
H28   H     H_    0.864047 0.770264 0.338615 0.140360
H29   H     H_    0.674595 0.721546 0.228674 0.133309
H30   H     H_    0.685068 0.668425 0.355814 0.204706
H31   H     H_    0.719089 0.486848 0.232147 0.163109
H32   H     H_    0.744072 0.542560 0.122537 0.093827
H33   H     H_    0.890913 0.674994 0.689632 0.159497
H34   H     H_    0.675064 0.654175 0.027328 0.098001
H35   H     H_    0.926421 0.742869 0.836018 0.141999
H36   H     H_    0.993733 0.624087 0.778296 0.146117
H37   H     H_    0.839382 0.592583 0.908827 0.140189
H38   H     H_    0.809870 0.517302 0.766049 0.191106
H39   H     H_    0.679971 0.661289 0.726210 0.195436
H40   H     H_    0.711210 0.727866 0.866677 0.092326
H41   H     H_    0.087109 0.237092 0.181765 0.142531
H42   H     H_    0.125226 0.312501 0.324695 0.156555
H43   H     H_    0.011360 0.351468 0.238354 0.145007
H44   H     H_    0.182946 0.469449 0.235905 0.191643
H45   H     H_    0.603182 0.863798 0.974511 0.153064
H46   H     H_    0.151422 0.387332 0.096781 0.140558
H47   H     H_    0.300406 0.267312 0.135120 0.093555
H48   H     H_    0.327123 0.335917 0.275373 0.210036
H49   H     H_    0.721902 0.905291 0.895300 0.144737
H50   H     H_    0.665043 0.998052 0.006706 0.142242
H51   H     H_    0.602724 0.015861 0.807089 0.175374
H52   H     H_    0.487312 0.997005 0.898539 0.153904
N1    N     N_R   0.520920 0.519350 0.790130 -0.219276
N2    N     N_R   0.479080 0.480650 0.209870 -0.218011
O1    O     O_R   0.505930 0.354460 0.582000 -0.516036
O2    O     O_R   0.494070 0.645540 0.418000 -0.500654
O3    O     O_R   0.491820 0.341410 0.386200 -0.534494
O4    O     O_R   0.508180 0.658590 0.613800 -0.522951
O5    O     O_R   0.344250 0.506540 0.597900 -0.510782
O6    O     O_R   0.655750 0.493460 0.402100 -0.518355
O7    O     O_R   0.330140 0.493480 0.402100 -0.501073
O8    O     O_R   0.669860 0.506520 0.597900 -0.502911

loop_
_geom_bond_atom_site_label_1
_geom_bond_atom_site_label_2
_ccdc_geom_bond_type
C31   H18   S    
C41   H41   S    
C35   H26   S    
C22   H50   S    
C38   H35   S    
C25   H8    S    
C7    C8    S    
C36   H40   S    
C31   H19   S    
C4    O6    A    
C11   C19   A    
C29   C30   S    
C23   C42   A    
C13   C18   A    
Cu1   N1    S    
C37   H37   S    
C36   C37   S    
C12   O2    A    
C20   H3    S    
C30   C31   S    
C21   H51   S    
C11   C14   A    
C33   H30   S    
C29   H25   S    
Cu2   O2    S    
C42   N2    A    
C18   C19   A    
C16   H12   S    
C14   C24   S    
C20   H2    S    
C27   H13   S    
C33   C35   S    
Cu1   Cu2   S    
C24   H9    S    
C13   C28   S    
C34   C46   A    
C1    O1    A    
C29   H24   S    
Cu2   O7    S    
C2    C45   A    
C22   H49   S    
C21   C22   S    
C31   H20   S    
C26   H6    S    
C30   H22   S    
C44   C46   A    
C39   C42   S    
C36   H39   S    
C15   C20   S    
C35   H28   S    
Cu1   O1    S    
C1    C10   S    
C23   H23   S    
C37   H38   S    
C24   C25   S    
C4    C6    S    
C10   C14   A    
C17   H1    S    
C39   C40   S    
C5    C7    T    
C21   H52   S    
C44   N2    A    
C6    C8    T    
C3    O5    A    
C25   C26   S    
C2    C46   A    
C29   C45   S    
C43   N1    A    
C37   C38   S    
C27   H14   S    
C26   H4    S    
C32   H32   S    
Cu2   O3    S    
C11   C27   S    
Cu1   O4    S    
Cu2   N2    S    
C32   C44   S    
C16   C18   A    
C40   H44   S    
C39   H47   S    
C45   N1    A    
C28   H16   S    
C9    C17   A    
C40   C41   S    
C41   H43   S    
Cu1   O5    S    
C13   C15   A    
C38   H33   S    
C22   H45   S    
C26   H5    S    
C30   H21   S    
C4    O8    A    
C38   H36   S    
C34   C43   A    
C35   H27   S    
C40   H46   S    
C3    C5    S    
Cu1   O8    S    
C32   C33   S    
C28   H17   S    
C9    C15   A    
C27   H11   S    
C32   H31   S    
C12   O4    A    
C33   H29   S    
Cu2   O6    S    
C3    O7    A    
C17   C19   A    
C25   H7    S    
C41   H42   S    
C9    C12   S    
C39   H48   S    
C28   H15   S    
C20   C21   S    
C24   H10   S    
C2    C23   A    
C36   C43   S    
C10   C16   A    
C34   H34   S    
C1    O3    A    
