data_mof_unit_56366.cif
_audit_creation_date              2012-12-11T17:34:19-0500
_audit_creation_method            fapswitch 2.2
_symmetry_space_group_name_H-M    P1
_symmetry_Int_Tables_number       1
_space_group_crystal_system       triclinic
_cell_length_a                    23.794827
_cell_length_b                    7.208209
_cell_length_c                    20.774474
_cell_angle_alpha                 89.98487
_cell_angle_beta                  105.209134
_cell_angle_gamma                 90.167187
_cell_volume                      3438.3807835

loop_
_atom_site_label
_atom_site_type_symbol
_atom_type_description
_atom_site_fract_x
_atom_site_fract_y
_atom_site_fract_z
_atom_type_partial_charge
O1    O     O_R   0.449110 0.494310 0.552140 -0.516210
O2    O     O_R   0.550890 0.994310 0.447860 -0.516954
O3    O     O_R   0.440010 0.824420 0.415850 -0.527262
O4    O     O_R   0.559990 0.324420 0.584150 -0.524415
C1    C     C_R   0.425626 0.655689 0.391183 0.731768
C2    C     C_R   0.574887 0.155859 0.608660 0.725492
O5    O     O_R   0.442260 0.824040 0.549660 -0.515916
O6    O     O_R   0.557740 0.324040 0.450340 -0.515081
O7    O     O_R   0.553160 0.993960 0.582620 -0.545053
O8    O     O_R   0.446840 0.493960 0.417380 -0.545947
C3    C     C_R   0.429005 0.655173 0.568110 0.766682
C4    C     C_R   0.571022 0.155460 0.431890 0.760693
O9    O     O_3   0.536380 0.660670 0.510660 -0.372229
O10   O     O_3   0.463620 0.160670 0.489340 -0.373000
V1    V     V_3+5 0.493250 0.935680 0.498020 1.577572
V2    V     V_3+5 0.506750 0.435680 0.501980 1.583714
C5    C     C_R   0.813199 0.907088 0.156231 0.412140
C6    C     C_R   0.188836 0.410072 0.846968 0.415616
C7    C     C_R   0.853361 0.904191 0.117249 -0.110792
C8    C     C_R   0.148446 0.407165 0.885676 -0.159471
H1    H     H_    0.856556 0.778812 0.089728 0.225331
H2    H     H_    0.146164 0.284031 0.914807 0.207682
C9    C     C_R   0.888447 0.059210 0.112736 -0.214066
C10   C     C_R   0.111883 0.559430 0.887791 -0.192350
C11   C     C_R   0.882887 0.220104 0.150216 0.380346
C12   C     C_R   0.116550 0.718025 0.848796 0.410435
C13   C     C_R   0.842620 0.223641 0.188743 -0.159773
C14   C     C_R   0.157059 0.721709 0.810563 -0.162676
H3    H     H_    0.838969 0.347899 0.216779 0.185695
H4    H     H_    0.159934 0.844102 0.781207 0.181661
C15   C     C_R   0.807553 0.070042 0.192248 -0.062571
C16   C     C_R   0.193325 0.570431 0.809005 -0.060093
C17   C     C_1   0.766796 0.084798 0.233317 -0.006434
C18   C     C_1   0.234053 0.584679 0.767837 -0.008704
C19   C     C_1   0.732980 0.099288 0.267679 0.025891
C20   C     C_1   0.267767 0.598698 0.733294 0.026056
C21   C     C_R   0.650078 0.978868 0.305478 -0.208012
C22   C     C_R   0.350826 0.479669 0.695719 -0.208574
H5    H     H_    0.648112 0.862168 0.272040 0.134245
H6    H     H_    0.353246 0.364285 0.729814 0.134344
C23   C     C_R   0.610046 0.991292 0.344783 0.317439
C24   C     C_R   0.390663 0.492196 0.656127 0.316339
C25   C     C_R   0.612700 0.143955 0.388824 -0.118008
C26   C     C_R   0.387429 0.643178 0.611280 -0.116163
C27   C     C_R   0.655523 0.283187 0.391500 0.320676
C28   C     C_R   0.344221 0.780620 0.608003 0.325912
C29   C     C_R   0.694821 0.267370 0.351158 -0.213029
C30   C     C_R   0.305135 0.764811 0.648626 -0.209983
H7    H     H_    0.727730 0.373163 0.353327 0.130519
H8    H     H_    0.271943 0.869286 0.646013 0.130698
C31   C     C_R   0.692299 0.115606 0.308566 0.045598
C32   C     C_R   0.308243 0.614770 0.692094 0.045395
C33   C     C_R   0.636568 0.191985 0.794352 0.478836
C34   C     C_R   0.364280 0.746340 0.209073 0.474398
H9    H     H_    0.553259 0.234013 0.724830 0.171507
H10   H     H_    0.447160 0.777060 0.280119 0.176563
C35   C     C_R   0.617297 0.151204 0.674838 -0.124942
C36   C     C_R   0.384510 0.653235 0.324532 -0.126176
C37   C     C_R   0.901367 0.078062 0.771180 -0.231486
C38   C     C_R   0.103766 0.514493 0.227489 -0.232867
C39   C     C_R   0.865588 0.127506 0.709628 -0.112940
C40   C     C_R   0.139939 0.535521 0.291062 -0.110379
C41   C     C_R   0.806174 0.156134 0.700882 0.407763
C42   C     C_R   0.197631 0.591144 0.300970 0.405313
C43   C     C_R   0.779755 0.116449 0.753652 -0.022316
C44   C     C_R   0.222440 0.609299 0.245625 -0.021932
C45   C     C_R   0.817287 0.072700 0.818254 -0.070507
C46   C     C_R   0.183053 0.613303 0.179820 -0.073116
C47   C     C_R   0.717930 0.127243 0.745480 -0.017405
C48   C     C_R   0.283931 0.635919 0.253702 -0.021299
C49   C     C_R   0.696299 0.145051 0.802946 -0.064142
C50   C     C_R   0.304530 0.694971 0.198417 -0.069483
C51   C     C_R   0.733879 0.106380 0.866387 0.399383
C52   C     C_R   0.265533 0.700610 0.134486 0.397135
C53   C     C_R   0.791534 0.048763 0.871917 0.212955
C54   C     C_R   0.205542 0.671548 0.126035 0.206876
C55   C     C_R   0.676514 0.113750 0.682254 -0.095280
C56   C     C_R   0.326354 0.598201 0.314633 -0.104838
C57   C     C_R   0.598506 0.197680 0.730686 -0.218837
C58   C     C_R   0.402514 0.730068 0.272031 -0.219812
C59   C     C_R   0.879167 0.058223 0.826649 -0.047477
C60   C     C_R   0.122834 0.560744 0.171473 -0.056297
H11   H     H_    0.689145 0.068517 0.638578 0.172673
H12   H     H_    0.315472 0.524678 0.354883 0.176505
H13   H     H_    0.947800 0.067538 0.776544 0.178851
H14   H     H_    0.058937 0.473145 0.222159 0.180226
H15   H     H_    0.885227 0.155962 0.669139 0.173415
H16   H     H_    0.121826 0.517077 0.333352 0.174797
O11   O     O_R   0.053190 0.709680 0.082610 -0.513851
O12   O     O_R   0.946810 0.209680 0.917390 -0.547778
O13   O     O_R   0.057740 0.380240 0.950340 -0.547629
O14   O     O_R   0.942260 0.880240 0.049660 -0.523196
C61   C     C_R   0.069979 0.549011 0.930597 0.795115
C62   C     C_R   0.929923 0.049020 0.069336 0.796790
O15   O     O_R   0.060000 0.379940 0.084150 -0.540241
O16   O     O_R   0.940000 0.879940 0.915850 -0.510278
O17   O     O_R   0.949110 0.210100 0.052140 -0.510141
O18   O     O_R   0.050890 0.710100 0.947860 -0.481712
C63   C     C_R   0.077171 0.549544 0.106966 0.792673
C64   C     C_R   0.923754 0.048605 0.892082 0.791527
O19   O     O_3   0.963630 0.543720 0.989330 -0.366324
O20   O     O_3   0.036370 0.043720 0.010670 -0.353805
V3    V     V_3+5 0.006750 0.268680 0.001980 1.604658
V4    V     V_3+5 0.993250 0.768680 0.998020 1.679111
O21   O     O_3   0.780817 0.748083 0.157170 -0.615137
H17   H     H_    0.754612 0.766149 0.186537 0.300862
O22   O     O_3   0.222556 0.253644 0.848184 -0.614338
H18   H     H_    0.248881 0.271529 0.818913 0.301091
O23   O     O_3   0.712063 0.105113 0.921780 -0.559068
H19   H     H_    0.744299 0.127389 0.962241 0.350124
O24   O     O_3   0.286668 0.735042 0.079713 -0.559588
H20   H     H_    0.262986 0.665371 0.040830 0.349457
Cl1   Cl    Cl    0.605723 0.252787 0.860016 -0.486770
Cl2   Cl    Cl    0.394742 0.847812 0.148399 -0.494469
Cl3   Cl    Cl    0.771721 0.278601 0.627477 -0.646498
Cl4   Cl    Cl    0.230097 0.676995 0.381977 -0.648741
Cl5   Cl    Cl    0.824777 0.913116 0.942151 -0.674674
Cl6   Cl    Cl    0.161097 0.751807 0.049790 -0.653404
Cl7   Cl    Cl    0.926404 0.420566 0.154113 -0.675701
Cl8   Cl    Cl    0.071622 0.914978 0.842820 -0.665329
O25   O     O_3   0.567382 0.857430 0.339737 -0.633410
H21   H     H_    0.571726 0.761191 0.307286 0.299618
O26   O     O_3   0.433741 0.360305 0.661707 -0.632874
H22   H     H_    0.429783 0.265007 0.694694 0.299189
O27   O     O_3   0.659211 0.431101 0.434718 -0.611526
H23   H     H_    0.690977 0.515378 0.430215 0.308751
O28   O     O_3   0.339974 0.926755 0.563944 -0.611935
H24   H     H_    0.307989 0.009963 0.568096 0.308610

loop_
_geom_bond_atom_site_label_1
_geom_bond_atom_site_label_2
_ccdc_geom_bond_type
C44   C46   A    
C41   C43   A    
C42   Cl4   S    
C13   H3    S    
C23   C25   A    
C60   C63   S    
C35   C57   A    
C47   C55   A    
O24   H20   S    
O1    C3    A    
O2    C4    A    
C2    O7    A    
C45   C53   A    
O26   H22   S    
C29   H7    S    
O5    C3    A    
C52   C54   A    
C1    C36   S    
O11   C63   A    
C7    H1    S    
C10   C12   A    
C22   C24   A    
C4    C25   S    
C21   C31   A    
O15   C63   A    
C48   C56   A    
C55   H11   S    
C34   Cl2   S    
C38   C40   A    
C23   O25   S    
C47   C49   A    
C6    O22   S    
C40   C42   A    
C39   H15   S    
C5    C7    A    
C38   C60   A    
C8    C10   A    
C26   C28   A    
O15   V3    S    
C53   Cl5   S    
O22   H18   S    
C15   C17   S    
C18   C20   T    
C20   C32   S    
C36   C58   A    
C41   Cl3   S    
O5    V1    S    
O6    V2    S    
C51   C53   A    
C2    C35   S    
C24   C26   A    
C11   Cl7   S    
O12   C64   A    
C33   Cl1   S    
C24   O26   S    
C34   C58   A    
C27   C29   A    
C28   C30   A    
C37   C39   A    
C13   C15   A    
C35   C55   A    
C28   O28   S    
C14   C16   A    
O4    C2    A    
C27   O27   S    
C52   O24   S    
C49   C51   A    
C38   H14   S    
C29   C31   A    
C62   O17   A    
C43   C45   A    
C40   H16   S    
C54   Cl6   S    
C42   C44   A    
O4    V2    S    
C7    C9    A    
C37   H13   S    
C5    O21   S    
O13   C61   A    
H9    C57   S    
O14   V4    S    
O6    C4    A    
O14   C62   A    
C34   C50   A    
C3    C26   S    
O1    V2    S    
O2    V1    S    
C25   C27   A    
O25   H21   S    
O17   V3    S    
C50   C52   A    
C8    H2    S    
C45   C59   A    
O19   V4    S    
O16   V4    S    
O11   V4    S    
C19   C31   S    
O27   H23   S    
C5    C15   A    
C6    C16   A    
O28   H24   S    
C33   C49   A    
O3    V1    S    
C43   C47   A    
C33   C57   A    
C39   C41   A    
C37   C59   A    
O13   V3    S    
O3    C1    A    
C51   O23   S    
C59   C64   S    
C46   C54   A    
O21   H17   S    
C12   C14   A    
H10   C58   S    
C9    C62   S    
C46   C60   A    
C14   H4    S    
O7    V1    S    
C1    O8    A    
C21   H5    S    
O8    V2    S    
C10   C61   S    
C22   H6    S    
C44   C48   A    
O18   V4    S    
O16   C64   A    
C30   H8    S    
C17   C19   T    
C6    C8    A    
C9    C11   A    
C21   C23   A    
O20   V3    S    
O12   V3    S    
C36   C56   A    
C56   H12   S    
C30   C32   A    
C22   C32   A    
O9    V2    S    
C12   Cl8   S    
O10   V1    S    
C48   C50   A    
O23   H19   S    
C61   O18   A    
C16   C18   S    
C11   C13   A    
