data_mof_unit_35366.cif
_audit_creation_date              2012-12-10T17:17:24-0500
_audit_creation_method            fapswitch 2.2
_symmetry_space_group_name_H-M    P1
_symmetry_Int_Tables_number       1
_space_group_crystal_system       triclinic
_cell_length_a                    10.19767
_cell_length_b                    10.714526
_cell_length_c                    12.473315
_cell_angle_alpha                 90.082651
_cell_angle_beta                  111.154947
_cell_angle_gamma                 94.921717
_cell_volume                      1265.57048786

loop_
_atom_site_label
_atom_site_type_symbol
_atom_type_description
_atom_site_fract_x
_atom_site_fract_y
_atom_site_fract_z
_atom_type_partial_charge
C1    C     C_R   0.054079 0.732807 0.498231 0.982944
C2    C     C_R   0.404564 0.388754 0.982765 0.038794
C3    C     C_R   0.326784 0.388903 0.863792 0.043140
C4    C     C_R   0.553562 0.399815 0.019178 0.072810
C5    C     C_R   0.618612 0.397004 0.936424 0.034404
C6    C     C_R   0.537831 0.358189 0.823686 -0.354909
C7    C     C_R   0.390554 0.346579 0.788126 0.464879
C8    C     C_R   0.638828 0.427943 0.133315 -0.280450
C9    C     C_R   0.841033 0.483551 0.077635 0.425258
C10   C     C_R   0.192680 0.437915 0.826925 -0.136067
C11   C     C_2   0.090956 0.866433 0.509700 -0.418326
C12   C     C_R   0.129840 0.488167 0.711040 0.911494
C13   C     C_2   0.039305 0.937106 0.571205 0.484670
C14   C     C_2   0.937704 0.136062 0.536619 -0.383741
C15   C     C_2   0.049600 0.070702 0.556239 -0.237955
C16   C     C_2   0.433320 0.510506 0.510317 -0.124896
C17   C     C_2   0.567024 0.488407 0.490718 -0.156659
C18   C     C_R   0.951689 0.267211 0.511295 0.955096
C19   C     C_R   0.863596 0.490091 0.285899 0.848688
C20   C     C_R   0.761658 0.437583 0.966349 -0.168564
C21   C     C_R   0.781452 0.469303 0.163542 -0.173940
C22   C     C_R   0.122676 0.443561 0.904773 -0.167841
C23   C     C_R   0.188385 0.409938 0.018199 -0.097250
C24   C     C_R   0.330309 0.388864 0.058904 -0.183862
H1    H     H_    0.563726 0.415744 0.428850 0.158841
H2    H     H_    0.436833 0.582485 0.572835 0.170215
H3    H     H_    0.017834 0.474117 0.877843 0.174049
H4    H     H_    0.132565 0.406348 0.076989 0.204332
N1    N     N_2   0.313640 0.446500 0.454900 -0.182985
N2    N     N_2   0.686360 0.553430 0.545150 -0.183384
O1    O     O_R   0.936910 0.692950 0.509080 -0.532692
O2    O     O_R   0.138320 0.658600 0.480130 -0.625160
O3    O     O_R   0.002900 0.525670 0.675280 -0.609198
O4    O     O_R   0.204310 0.491320 0.646330 -0.570074
O5    O     O_R   0.861680 0.341400 0.519870 -0.628644
O6    O     O_R   0.063090 0.307050 0.490920 -0.573454
O7    O     O_R   0.795690 0.508680 0.353670 -0.610885
O8    O     O_R   0.997100 0.474330 0.324720 -0.600777
Zn1   Zn    Zn3+2 0.865520 0.522940 0.519330 0.968429
Zn2   Zn    Zn3+2 0.134480 0.477060 0.480670 0.963313
O9    O     O_3   0.971382 0.546901 0.097011 -0.798468
H5    H     H_    0.996544 0.604004 0.165314 0.341189
O10   O     O_3   0.971048 0.883957 0.640436 -0.733669
H6    H     H_    0.952234 0.951895 0.685475 0.336022
H7    H     H_    0.838965 0.093720 0.540703 0.160967
H8    H     H_    0.152585 0.908392 0.461507 0.103223
H9    H     H_    0.685460 0.621465 0.603326 0.183052
H10   H     H_    0.314340 0.379024 0.396172 0.157217
H11   H     H_    0.588491 0.340437 0.762944 0.148830
H12   H     H_    0.807902 0.443088 0.900803 0.143796
H13   H     H_    0.594861 0.422497 0.199900 0.170293
H14   H     H_    0.378579 0.372495 0.149474 0.121882
O11   O     O_3   0.308504 0.287899 0.684160 -0.754943
H15   H     H_    0.370433 0.262310 0.643915 0.320313
H16   H     H_    0.146385 0.111864 0.547858 0.200651

loop_
_geom_bond_atom_site_label_1
_geom_bond_atom_site_label_2
_ccdc_geom_bond_type
C24   H14   S    
C2    C4    A    
C23   C24   A    
C6    C7    A    
C19   O8    A    
O9    H5    S    
C14   C18   S    
C9    C20   A    
C9    O9    S    
C1    C11   S    
C1    O1    A    
C4    C8    A    
C17   H1    S    
C6    H11   S    
O2    Zn2   S    
C2    C3    A    
C16   N1    D    
O7    Zn1   S    
C3    C10   A    
O11   H15   S    
C10   C22   A    
O8    Zn2   S    
C17   N2    D    
C11   C13   D    
C8    H13   S    
C9    C21   A    
O3    Zn1   S    
C10   C12   S    
O4    Zn2   S    
C5    C6    A    
N1    Zn2   S    
C19   C21   S    
O1    Zn1   S    
N2    Zn1   S    
C8    C21   A    
C14   H7    S    
C3    C7    A    
C22   H3    S    
C13   C15   S    
O10   H6    S    
C2    C24   A    
O5    Zn1   S    
C7    O11   S    
N1    H10   S    
C12   O4    A    
N2    H9    S    
C13   O10   S    
C18   O5    A    
C5    C20   A    
C14   C15   D    
C16   C17   S    
O6    Zn2   S    
C20   H12   S    
C19   O7    A    
C12   O3    A    
C23   H4    S    
C18   O6    A    
C22   C23   A    
C1    O2    A    
C4    C5    A    
C11   H8    S    
C16   H2    S    
C15   H16   S    
