data_mof_unit_27761.cif
_audit_creation_date              2012-10-26T19:02:59-0400
_audit_creation_method            fapswitch 2.2
_symmetry_space_group_name_H-M    P1
_symmetry_Int_Tables_number       1
_space_group_crystal_system       triclinic
_cell_length_a                    14.99823
_cell_length_b                    11.125819
_cell_length_c                    9.986304
_cell_angle_alpha                 112.038874
_cell_angle_beta                  97.971791
_cell_angle_gamma                 91.526753
_cell_volume                      1524.07025009

loop_
_atom_site_label
_atom_site_type_symbol
_atom_type_description
_atom_site_fract_x
_atom_site_fract_y
_atom_site_fract_z
_atom_type_partial_charge
C1    C     C_R   0.495705 0.254768 0.440133 0.598604
C2    C     C_2   0.490872 0.491960 0.919644 0.360898
C3    C     C_R   0.329495 0.499088 0.501023 0.591907
C4    C     C_R   0.670505 0.500911 0.498977 0.591906
C5    C     C_R   0.815049 0.615879 0.501239 0.259622
C6    C     C_R   0.184951 0.384118 0.498760 0.259621
C7    C     C_R   0.766757 0.504214 0.496948 0.018677
C8    C     C_R   0.233243 0.495785 0.503051 0.018676
C9    C     C_R   0.809624 0.395099 0.495687 -0.144293
C10   C     C_R   0.190375 0.604898 0.504310 -0.144294
C11   C     C_R   0.902253 0.394127 0.499376 -0.034931
C12   C     C_R   0.504295 0.745232 0.559867 0.598606
C13   C     C_R   0.097746 0.605869 0.500618 -0.034931
C14   C     C_R   0.952885 0.502329 0.498744 -0.017256
C15   C     C_R   0.047114 0.497666 0.501251 -0.017256
C16   C     C_R   0.909359 0.614599 0.495871 0.040946
C17   C     C_R   0.090641 0.385397 0.504123 0.040945
C18   C     C_R   0.944366 0.286085 0.506306 -0.059373
C19   C     C_R   0.055633 0.713910 0.493684 -0.059374
C20   C     C_2   0.408079 0.860263 0.368502 0.309845
C21   C     C_2   0.591919 0.139740 0.631504 0.309843
C22   C     C_2   0.573666 0.686229 0.945492 0.451234
C23   C     C_R   0.037228 0.280992 0.511569 0.281340
C24   C     C_2   0.426339 0.313769 0.054508 0.451233
C25   C     C_R   0.962770 0.719002 0.488420 0.281342
C26   C     C_2   0.486634 0.115610 0.407432 -0.037997
C27   C     C_2   0.513368 0.884389 0.592569 -0.037996
C28   C     C_2   0.518613 0.065391 0.507268 -0.009836
C29   C     C_2   0.481387 0.934610 0.492734 -0.009837
C30   C     C_2   0.509128 0.508041 0.080357 0.360899
Cl1   Cl    Cl    0.754977 0.756376 0.530255 -0.452331
Cl2   Cl    Cl    0.245026 0.243625 0.469752 -0.452328
Cl3   Cl    Cl    0.079055 0.144495 0.540523 -0.408936
Cl4   Cl    Cl    0.920941 0.855490 0.459450 -0.408934
Cl5   Cl    Cl    0.399686 0.382351 0.802612 -0.485440
Cl6   Cl    Cl    0.600313 0.617650 0.197390 -0.485436
Cu1   Cu    Cu3+1 0.515770 0.521810 0.644910 1.117125
Cu2   Cu    Cu3+1 0.484230 0.478190 0.355090 1.117123
H1    H     H_    0.770383 0.311183 0.494364 0.175798
H2    H     H_    0.360465 0.280077 0.066275 0.136817
H3    H     H_    0.229616 0.688814 0.505632 0.175801
H4    H     H_    0.904596 0.205233 0.510977 0.198573
H5    H     H_    0.095402 0.794761 0.489010 0.198573
H6    H     H_    0.557798 0.941636 0.693167 0.104965
H7    H     H_    0.442207 0.058362 0.306831 0.104963
H8    H     H_    0.412486 0.851855 0.257961 0.152836
H9    H     H_    0.587508 0.148148 0.742044 0.152843
H10   H     H_    0.639541 0.719915 0.933721 0.136818
N1    N     N_2   0.460520 0.445420 0.137370 -0.266406
N2    N     N_2   0.539480 0.554580 0.862630 -0.266406
O1    O     O_R   0.508410 0.332340 0.577400 -0.439809
O2    O     O_2   0.658039 0.192286 0.610226 -0.484046
O3    O     O_2   0.526868 0.764364 0.020132 -0.492553
O4    O     O_2   0.473141 0.235638 0.979870 -0.492560
O5    O     O_R   0.491590 0.667660 0.422600 -0.439810
O6    O     O_R   0.481780 0.295500 0.332650 -0.518173
O7    O     O_R   0.518220 0.704500 0.667350 -0.518171
O8    O     O_R   0.383570 0.518390 0.622380 -0.439644
O9    O     O_R   0.616430 0.481610 0.377620 -0.439645
O10   O     O_R   0.356940 0.481550 0.377630 -0.508162
O11   O     O_R   0.643060 0.518450 0.622370 -0.508163
O12   O     O_2   0.341959 0.807718 0.389785 -0.484049

loop_
_geom_bond_atom_site_label_1
_geom_bond_atom_site_label_2
_ccdc_geom_bond_type
C2    Cl5   S    
Cu1   O11   S    
C11   C18   A    
C15   C17   A    
Cu1   Cu2   S    
C27   C29   D    
C1    O1    A    
C22   H10   S    
Cu1   O8    S    
C30   Cl6   S    
C25   Cl4   S    
C2    C30   S    
C3    O10   A    
C18   H4    S    
Cu2   N1    S    
C21   C28   S    
C21   H9    S    
C10   H3    S    
Cu1   N2    S    
C9    C11   A    
C6    Cl2   S    
C17   C23   A    
C4    C7    S    
Cu2   O10   S    
C12   O7    A    
C24   N1    S    
C4    O9    A    
C28   C29   S    
C24   H2    S    
C30   N1    D    
C19   H5    S    
C22   O3    D    
C5    C7    A    
C20   C29   S    
C13   C15   A    
Cu1   O1    S    
C20   O12   D    
C1    C26   S    
C19   C25   A    
C11   C14   A    
C14   C16   A    
C12   O5    A    
C13   C19   A    
C12   C27   S    
C24   O4    D    
Cu2   O9    S    
C3    O8    A    
C22   N2    S    
C9    H1    S    
Cu2   O6    S    
C8    C10   A    
C3    C8    S    
C16   C25   A    
C7    C9    A    
C6    C17   A    
C14   C15   A    
C5    C16   A    
C6    C8    A    
C2    N2    D    
C26   H7    S    
C5    Cl1   S    
C27   H6    S    
Cu1   O7    S    
C26   C28   D    
C4    O11   A    
C1    O6    A    
C21   O2    D    
C20   H8    S    
Cu2   O5    S    
C18   C23   A    
C23   Cl3   S    
C10   C13   A    
