data_mof_unit_9226.cif
_audit_creation_date              2012-12-11T17:25:03-0500
_audit_creation_method            fapswitch 2.2
_symmetry_space_group_name_H-M    P1
_symmetry_Int_Tables_number       1
_space_group_crystal_system       triclinic
_cell_length_a                    6.954898
_cell_length_b                    20.533797
_cell_length_c                    24.500754
_cell_angle_alpha                 90.081013
_cell_angle_beta                  90.45552
_cell_angle_gamma                 89.497034
_cell_volume                      3498.71548739

loop_
_atom_site_label
_atom_site_type_symbol
_atom_type_description
_atom_site_fract_x
_atom_site_fract_y
_atom_site_fract_z
_atom_type_partial_charge
O1    O     O_R   0.507280 0.423750 0.460310 -0.541080
O2    O     O_R   0.171030 0.555650 0.437630 -0.539000
O3    O     O_R   0.004080 0.576250 0.539690 -0.526666
C1    C     C_R   0.339090 0.575665 0.421780 0.722251
O4    O     O_R   0.177330 0.422980 0.453960 -0.537092
O5    O     O_R   0.010420 0.442640 0.556140 -0.532608
C2    C     C_R   0.346112 0.399044 0.443302 0.692427
O6    O     O_R   0.500930 0.557360 0.443860 -0.538897
O7    O     O_3   0.340310 0.506600 0.533500 -0.359113
V1    V     V_3+5 0.064140 0.498780 0.493780 1.464004
O8    O     O_R   0.680890 0.444350 0.562370 -0.537945
C3    C     C_R   0.850571 0.424435 0.578157 0.744079
O9    O     O_R   0.674590 0.577020 0.546040 -0.542267
C4    C     C_R   0.842625 0.600908 0.556793 0.765254
V2    V     V_3+5 0.564550 0.501220 0.506220 1.455182
O10   O     O_3   0.838250 0.493400 0.466500 -0.374622
C5    C     C_R   0.972445 0.838447 0.910984 -0.042765
C6    C     C_R   0.845175 0.661376 0.589515 -0.091553
C7    C     C_R   0.978162 0.720839 0.908456 -0.133915
C8    C     C_R   0.990674 0.778789 0.937742 -0.170500
C9    C     C_R   0.944980 0.839862 0.854058 -0.196749
C10   C     C_R   0.930631 0.781197 0.823112 0.081405
C11   C     C_R   0.946890 0.721472 0.851745 0.099781
C12   C     C_R   0.897967 0.779611 0.765209 0.007191
C13   C     C_R   0.894293 0.718410 0.736611 0.002427
C14   C     C_R   0.886832 0.660378 0.767978 0.346313
C15   C     C_R   0.922077 0.662546 0.824382 -0.293169
C16   C     C_R   0.857653 0.836946 0.735386 -0.160634
C17   C     C_R   0.808879 0.834622 0.680397 -0.173000
C18   C     C_R   0.815181 0.776065 0.651637 0.092479
C19   C     C_R   0.876781 0.717934 0.677917 -0.000678
C20   C     C_R   0.758895 0.775344 0.596599 -0.160743
C21   C     C_R   0.764267 0.717720 0.566814 -0.251832
C22   C     C_R   0.915934 0.662426 0.643694 0.363760
H1    H     H_    0.922198 0.617636 0.847628 0.122215
H2    H     H_    0.710936 0.717564 0.525132 0.130010
H3    H     H_    0.767389 0.879468 0.659981 0.120269
H4    H     H_    0.990108 0.675185 0.930431 0.114986
H5    H     H_    0.012634 0.777105 0.981553 0.105146
H6    H     H_    0.936890 0.887307 0.835418 0.089441
H7    H     H_    0.850972 0.884386 0.754058 0.119518
H8    H     H_    0.705222 0.819205 0.576938 0.129096
H9    H     H_    0.638163 0.181218 0.774941 0.160328
C23   C     C_R   0.740711 0.255892 0.721295 -0.165752
H10   H     H_    0.605167 0.259518 0.699359 0.127161
C24   C     C_R   0.895425 0.295374 0.706624 0.105405
C25   C     C_R   0.069488 0.289696 0.735718 -0.246170
H11   H     H_    0.189436 0.320062 0.724413 0.117351
C26   C     C_R   0.089693 0.244925 0.779406 0.363137
C27   C     C_R   0.933265 0.205393 0.793703 0.098320
C28   C     C_R   0.759606 0.211258 0.764398 -0.236833
C29   C     C_1   0.876665 0.341268 0.661544 -0.029437
C30   C     C_1   0.949158 0.159077 0.838657 0.025861
C31   C     C_1   0.961392 0.120756 0.876360 -0.180169
C32   C     C_1   0.863167 0.379368 0.623715 -0.176358
H12   H     H_    0.699014 0.702221 0.296213 0.113543
C33   C     C_R   0.596720 0.767342 0.233265 -0.150802
H13   H     H_    0.740584 0.780127 0.220772 0.111808
C34   C     C_R   0.436076 0.794996 0.206646 0.135977
C35   C     C_R   0.251309 0.777311 0.223818 -0.149522
H14   H     H_    0.125231 0.797930 0.203901 0.113507
C36   C     C_R   0.227526 0.732811 0.266849 -0.150981
H15   H     H_    0.083662 0.720023 0.279341 0.111790
C37   C     C_R   0.388169 0.705159 0.293470 0.134746
C38   C     C_R   0.572937 0.722841 0.276297 -0.151323
C39   C     C_1   0.459806 0.841007 0.161740 -0.052923
C40   C     C_1   0.364439 0.659149 0.338376 -0.053568
C41   C     C_1   0.349065 0.620945 0.376125 -0.182135
C42   C     C_1   0.475181 0.879203 0.123985 -0.186933
C43   C     C_R   0.470247 0.161503 0.089157 -0.048917
C44   C     C_R   0.350695 0.338130 0.411334 -0.073749
C45   C     C_R   0.490561 0.278726 0.092745 -0.137866
C46   C     C_R   0.498461 0.220933 0.063130 -0.165481
C47   C     C_R   0.437819 0.160110 0.145735 -0.193217
C48   C     C_R   0.431062 0.218641 0.177260 0.105648
C49   C     C_R   0.456054 0.278129 0.149169 0.100308
C50   C     C_R   0.399800 0.220331 0.235203 -0.079778
C51   C     C_R   0.396795 0.281375 0.264099 0.015040
C52   C     C_R   0.401742 0.339868 0.232862 0.353674
C53   C     C_R   0.439498 0.337149 0.176767 -0.277753
C54   C     C_R   0.368104 0.162728 0.264880 -0.164982
C55   C     C_R   0.333297 0.162935 0.320599 0.332036
C56   C     C_R   0.330042 0.222247 0.349733 0.022268
C57   C     C_R   0.376520 0.281390 0.322725 0.064116
C58   C     C_R   0.276973 0.223749 0.405209 -0.155566
C59   C     C_R   0.282816 0.281315 0.435042 -0.161553
C60   C     C_R   0.402654 0.337761 0.356051 -0.135832
H16   H     H_    0.236683 0.281311 0.477191 0.107700
H17   H     H_    0.510047 0.324288 0.071279 0.117629
H18   H     H_    0.524840 0.222601 0.019628 0.114268
H19   H     H_    0.368059 0.115464 0.245901 0.150381
O11   O     O_R   0.323320 0.942780 0.056240 -0.535347
O12   O     O_R   0.647300 0.077050 0.046060 -0.537589
O13   O     O_R   0.813840 0.057330 0.943840 -0.535269
C61   C     C_R   0.478380 0.100918 0.056871 0.698430
O14   O     O_R   0.653250 0.944380 0.062400 -0.537102
O15   O     O_R   0.819830 0.923720 0.960300 -0.536430
C62   C     C_R   0.485166 0.924447 0.078304 0.722920
O16   O     O_R   0.317330 0.076390 0.039790 -0.534977
O17   O     O_3   0.483830 0.993470 0.966560 -0.366773
V3    V     V_3+5 0.760140 0.001210 0.006210 1.434192
O18   O     O_R   0.149290 0.922840 0.953850 -0.539148
C63   C     C_R   0.980804 0.899114 0.943100 0.689739
O19   O     O_R   0.143340 0.055500 0.937510 -0.533709
C64   C     C_R   0.973691 0.075516 0.921801 0.721169
V4    V     V_3+5 0.259690 0.998600 0.993650 1.439313
O20   O     O_3   0.986130 0.006520 0.033440 -0.366550
O21   O     O_3   0.259836 0.239133 0.808501 -0.650114
H20   H     H_    0.353714 0.270483 0.793735 0.284929
H21   H     H_    0.448729 0.382119 0.153800 0.117710
O22   O     O_3   0.034314 0.611574 0.659772 -0.624412
H22   H     H_    0.123291 0.627982 0.688342 0.303077
H23   H     H_    0.465460 0.381777 0.340727 0.162629
O23   O     O_3   0.305780 0.103255 0.345058 -0.639957
H24   H     H_    0.366892 0.103992 0.381672 0.285077
H25   H     H_    0.419864 0.112626 0.163437 0.092605
O24   O     O_3   0.351998 0.398983 0.256035 -0.660724
H26   H     H_    0.360634 0.434256 0.228573 0.287630
H27   H     H_    0.224892 0.180976 0.425897 0.128428
O25   O     O_3   0.824757 0.603115 0.744181 -0.623263
H28   H     H_    0.824963 0.567756 0.771716 0.296708

loop_
_geom_bond_atom_site_label_1
_geom_bond_atom_site_label_2
_ccdc_geom_bond_type
V3    O20   S    
C18   C20   A    
O13   C64   A    
C13   C19   A    
C4    C6    S    
O2    C1    A    
C7    C8    A    
C57   C60   A    
C45   C49   A    
C21   H2    S    
O19   V4    S    
O23   H24   S    
O11   C62   A    
C25   C26   A    
C50   C51   A    
C23   H10   S    
C14   C15   A    
C36   H15   S    
C16   C17   A    
C14   O25   S    
C46   H18   S    
C34   C39   S    
O5    C3    A    
C18   C19   A    
C59   H16   S    
C33   C34   A    
C39   C42   T    
V4    O20   S    
V2    O10   S    
C24   C29   S    
C16   H7    S    
C5    C8    A    
O21   H20   S    
C35   C36   A    
C58   H27   S    
C36   C37   A    
O8    V2    S    
C25   H11   S    
O13   V3    S    
O14   C62   A    
C43   C47   A    
O1    V2    S    
C11   C15   A    
O7    V1    S    
C31   C64   S    
C29   C32   T    
C1    O6    A    
C42   C62   S    
C34   C35   A    
O12   C61   A    
O9    C4    A    
C22   O22   S    
O19   C64   A    
C23   C24   A    
C54   C55   A    
C26   O21   S    
C27   C30   S    
C47   C48   A    
C40   C41   T    
C37   C40   S    
C49   C53   A    
O14   V3    S    
C12   C13   A    
C55   O23   S    
O12   V3    S    
C1    C41   S    
C8    H5    S    
C51   C52   A    
C15   H1    S    
C13   C14   A    
C58   C59   A    
C5    C9    A    
C35   H14   S    
C7    C11   A    
C48   C49   A    
C17   C18   A    
C7    H4    S    
C44   C59   A    
C48   C50   A    
C56   C57   A    
C50   C54   A    
C47   H25   S    
C43   C46   A    
C27   C28   A    
C19   C22   A    
C6    C22   A    
O15   C63   A    
O3    C4    A    
C44   C60   A    
C23   C28   A    
O11   V4    S    
C56   C58   A    
C26   C27   A    
O6    V2    S    
O9    V2    S    
C10   C12   A    
C53   H21   S    
O2    V1    S    
O25   H28   S    
O4    C2    A    
O16   V4    S    
C24   C25   A    
O22   H22   S    
O1    C2    A    
C12   C16   A    
C33   C38   A    
C45   C46   A    
O5    V1    S    
O8    C3    A    
C30   C31   T    
O17   V4    S    
C20   C21   A    
C43   C61   S    
O7    V2    S    
O4    V1    S    
O3    V1    S    
V1    O10   S    
O24   H26   S    
C37   C38   A    
C2    C44   S    
C45   H17   S    
H9    C28   S    
C33   H13   S    
C9    H6    S    
C52   O24   S    
O17   V3    S    
O18   V4    S    
C61   O16   A    
C5    C63   S    
O18   C63   A    
C6    C21   A    
C60   H23   S    
C3    C32   S    
C52   C53   A    
C54   H19   S    
C51   C57   A    
C55   C56   A    
C17   H3    S    
C20   H8    S    
C10   C11   A    
C9    C10   A    
O15   V3    S    
H12   C38   S    
