data_mof_unit_49216.cif
_audit_creation_date              2012-12-10T19:04:49-0500
_audit_creation_method            fapswitch 2.2
_symmetry_space_group_name_H-M    P1
_symmetry_Int_Tables_number       1
_space_group_crystal_system       triclinic
_cell_length_a                    15.911461
_cell_length_b                    10.859299
_cell_length_c                    9.585507
_cell_angle_alpha                 90.694893
_cell_angle_beta                  87.746928
_cell_angle_gamma                 92.519463
_cell_volume                      1653.28408392

loop_
_atom_site_label
_atom_site_type_symbol
_atom_type_description
_atom_site_fract_x
_atom_site_fract_y
_atom_site_fract_z
_atom_type_partial_charge
C1    C     C_R   0.498734 0.262238 0.498978 0.829077
C2    C     C_R   0.486587 0.128633 0.496567 -0.147652
C3    C     C_R   0.490388 0.061243 0.369612 0.361174
C4    C     C_R   0.339809 0.500269 0.502417 0.795844
C5    C     C_R   0.468496 0.933990 0.374430 0.063820
C6    C     C_R   0.483543 0.870493 0.499564 -0.122441
C7    C     C_R   0.481380 0.939751 0.623603 0.030740
C8    C     C_3   0.537086 0.947506 0.746298 0.313970
C9    C     C_3   0.522266 0.084785 0.750061 -0.493824
C10   C     C_R   0.569705 0.540137 0.069199 0.219071
C11   C     C_R   0.437406 0.441551 0.079945 -0.095816
C12   C     C_3   0.082945 0.514958 0.510663 -0.083549
C13   C     C_R   0.437790 0.437359 0.931564 0.225463
C14   C     C_R   0.570082 0.538268 0.922559 0.142172
C15   C     C_3   0.616462 0.658830 0.912711 -0.505779
C16   C     C_R   0.495838 0.737585 0.500485 0.828561
C17   C     C_3   0.613960 0.663801 0.071746 0.234040
C18   C     C_R   0.660020 0.501916 0.497479 0.841516
C19   C     C_3   0.963771 0.422408 0.572565 0.087661
C20   C     C_3   0.028022 0.408600 0.447265 -0.341451
C21   C     C_1   0.250108 0.504818 0.507917 -0.193817
C22   C     C_1   0.749593 0.507717 0.491375 -0.160696
C23   C     C_3   0.971498 0.623432 0.553890 0.049930
C24   C     C_3   0.018525 0.527868 0.634991 0.473212
C25   C     C_3   0.675962 0.952269 0.813706 0.080535
C26   C     C_3   0.762575 0.905613 0.775307 -0.795605
C27   C     C_3   0.370893 0.352169 0.870963 -0.360926
C28   C     C_3   0.284187 0.404060 0.893077 -0.878226
C29   C     C_3   0.716898 0.767218 0.196613 0.113809
C30   C     C_3   0.810803 0.773001 0.219452 -0.792595
C31   C     C_3   0.920604 0.314955 0.653135 -0.355110
C32   C     C_3   0.984262 0.235675 0.720602 -0.832582
C33   C     C_3   0.922797 0.384589 0.192523 0.067408
C34   C     C_3   0.916613 0.517446 0.491394 -0.095161
C35   C     C_3   0.878748 0.392857 0.055273 -0.752196
C36   C     C_3   0.084808 0.712076 0.344711 -0.354254
C37   C     C_3   0.027412 0.796997 0.271558 -0.847322
C38   C     C_3   0.930825 0.738419 0.615314 -0.343535
C39   C     C_3   0.994028 0.833176 0.673786 -0.850201
C40   C     C_3   0.109249 0.578986 0.810700 0.042097
C41   C     C_3   0.113141 0.609715 0.965372 -0.778577
C42   C     C_3   0.521199 0.131793 0.145334 0.069777
C43   C     C_3   0.586333 0.217922 0.071899 -0.759073
C44   C     C_3   0.417765 0.876253 0.257234 -0.400606
C45   C     C_3   0.035826 0.611219 0.428457 0.101229
C46   C     C_3   0.331455 0.825400 0.310967 -0.830815
C47   C     C_3   0.980266 0.505116 0.367853 0.462219
C48   C     C_1   0.174715 0.509556 0.510679 -0.065578
C49   C     C_1   0.825023 0.512998 0.488525 -0.055027
C50   C     C_R   0.473471 0.065735 0.621917 -0.036081
Cu1   Cu    Cu3+1 0.500000 0.499980 0.640670 0.933147
Cu2   Cu    Cu3+1 0.500000 0.500020 0.359330 0.946013
H1    H     H_    0.051212 0.320367 0.404448 0.152860
H2    H     H_    0.683407 0.053686 0.827678 0.140818
H3    H     H_    0.790097 0.955416 0.682611 0.243255
H4    H     H_    0.804846 0.920965 0.863935 0.202966
H5    H     H_    0.757581 0.805842 0.750041 0.245582
H6    H     H_    0.285379 0.499630 0.853149 0.267870
H7    H     H_    0.237702 0.345141 0.836406 0.240435
H8    H     H_    0.264587 0.405236 0.005522 0.242198
H9    H     H_    0.381702 0.330629 0.760353 0.259550
H10   H     H_    0.371014 0.261594 0.923862 0.149776
H11   H     H_    0.682417 0.769509 0.299860 0.161819
H12   H     H_    0.480587 0.112524 0.839445 0.143675
H13   H     H_    0.702539 0.850216 0.136085 0.129082
H14   H     H_    0.845866 0.775405 0.116938 0.250051
H15   H     H_    0.828195 0.857447 0.280103 0.192913
H16   H     H_    0.828478 0.691075 0.277726 0.278717
H17   H     H_    0.027034 0.195494 0.639560 0.245919
H18   H     H_    0.022107 0.291253 0.795399 0.275760
H19   H     H_    0.950389 0.159289 0.778315 0.229825
H20   H     H_    0.877007 0.351908 0.735034 0.211360
H21   H     H_    0.883074 0.256912 0.580029 0.192014
H22   H     H_    0.875259 0.350846 0.273245 0.148846
H23   H     H_    0.579300 0.145964 0.731632 0.214037
H24   H     H_    0.973097 0.316954 0.179603 0.137800
H25   H     H_    0.827044 0.458221 0.066295 0.275807
H26   H     H_    0.924385 0.425723 0.972024 0.287745
H27   H     H_    0.851939 0.300654 0.025076 0.186213
H28   H     H_    0.986613 0.743057 0.200065 0.288436
H29   H     H_    0.987950 0.847767 0.348559 0.254657
H30   H     H_    0.066307 0.865263 0.209079 0.230842
H31   H     H_    0.125749 0.767262 0.415277 0.189353
H32   H     H_    0.126383 0.667476 0.265203 0.213075
H33   H     H_    0.020532 0.798478 0.770164 0.266889
H34   H     H_    0.387595 0.393899 0.140719 0.154163
H35   H     H_    0.045542 0.856168 0.596196 0.248866
H36   H     H_    0.961457 0.918984 0.701350 0.237007
H37   H     H_    0.894829 0.781720 0.533504 0.198246
H38   H     H_    0.885652 0.708842 0.700819 0.216044
H39   H     H_    0.130302 0.662482 0.750258 0.145565
H40   H     H_    0.151788 0.503705 0.786149 0.169000
H41   H     H_    0.094833 0.526842 0.028189 0.277277
H42   H     H_    0.178128 0.641570 0.990489 0.190366
H43   H     H_    0.069639 0.684133 0.992573 0.258989
H44   H     H_    0.460603 0.179225 0.158095 0.132490
H45   H     H_    0.680446 0.649157 0.864463 0.220399
H46   H     H_    0.513093 0.048438 0.078290 0.115687
H47   H     H_    0.644060 0.167669 0.044449 0.218706
H48   H     H_    0.561150 0.254460 0.975350 0.186833
H49   H     H_    0.603643 0.296297 0.141883 0.277599
H50   H     H_    0.337585 0.750445 0.386783 0.252989
H51   H     H_    0.295534 0.900034 0.362282 0.234891
H52   H     H_    0.295281 0.787601 0.222156 0.237905
H53   H     H_    0.404718 0.946146 0.178709 0.169900
H54   H     H_    0.451834 0.803551 0.200625 0.221847
H55   H     H_    0.577881 0.727096 0.864574 0.193851
H56   H     H_    0.573428 0.736026 0.117479 0.057625
H57   H     H_    0.509796 0.897073 0.838801 0.041784
H58   H     H_    0.653244 0.911549 0.914795 0.125194
N1    N     N_R   0.500530 0.500930 0.147930 -0.236082
N2    N     N_R   0.500530 0.500890 0.852020 -0.202855
O1    O     O_R   0.500000 0.319640 0.618810 -0.609490
O2    O     O_3   0.695144 0.656758 0.125005 -0.555552
O3    O     O_3   0.958673 0.501637 0.226488 -0.578382
O4    O     O_3   0.026982 0.538430 0.780687 -0.587376
O5    O     O_3   0.553390 0.099403 0.273756 -0.571522
O6    O     O_R   0.500010 0.319680 0.381230 -0.563964
O7    O     O_R   0.379070 0.499970 0.618770 -0.585375
O8    O     O_R   0.379080 0.500010 0.381190 -0.583304
O9    O     O_R   0.499990 0.680320 0.618770 -0.572070
O10   O     O_R   0.500000 0.680360 0.381190 -0.590227
O11   O     O_R   0.620920 0.499990 0.618810 -0.575001
O12   O     O_R   0.620930 0.500030 0.381230 -0.550295
O13   O     O_3   0.620907 0.920931 0.705176 -0.555862

loop_
_geom_bond_atom_site_label_1
_geom_bond_atom_site_label_2
_ccdc_geom_bond_type
C29   O2    S    
C29   H11   S    
Cu1   N2    S    
C23   C45   S    
C9    H12   S    
Cu1   O11   S    
C6    C7    A    
C19   C20   S    
C39   H35   S    
C12   C48   S    
C19   C31   S    
C26   H3    S    
C7    C8    S    
C40   O4    S    
C44   H53   S    
C14   N2    A    
C46   H50   S    
C38   H37   S    
Cu1   O1    S    
C42   H44   S    
C36   C37   S    
C43   H47   S    
C13   N2    A    
C42   H46   S    
C5    C6    A    
C31   H21   S    
C10   C17   S    
C1    C2    S    
C15   H55   S    
C25   O13   S    
C16   O10   A    
C2    C50   A    
Cu2   O10   S    
C41   H41   S    
C31   C32   S    
C8    C9    S    
Cu1   O7    S    
C23   C24   S    
C4    O7    A    
C3    O5    S    
C30   H15   S    
C18   O11   A    
Cu2   O12   S    
C21   C48   T    
C45   C47   S    
C37   H29   S    
C1    O1    A    
C39   H36   S    
C15   H45   S    
C44   C46   S    
C17   O2    S    
C32   H19   S    
C28   H8    S    
C38   C39   S    
C37   H28   S    
C33   O3    S    
C25   H2    S    
C11   N1    A    
Cu1   Cu2   S    
C10   N1    A    
C43   H48   S    
C10   C14   A    
C17   H56   S    
C20   H1    S    
C32   H18   S    
Cu2   N1    S    
C25   C26   S    
C46   H52   S    
C35   H25   S    
C27   H9    S    
C11   H34   S    
C47   O3    S    
C16   O9    A    
C43   H49   S    
C29   C30   S    
C27   H10   S    
C33   H22   S    
C33   H24   S    
C41   H42   S    
C23   C34   S    
C12   C20   S    
C36   C45   S    
C40   H40   S    
C30   H14   S    
C25   H58   S    
C22   C49   T    
C29   H13   S    
Cu2   O8    S    
C40   C41   S    
C5    C44   S    
C24   O4    S    
C44   H54   S    
Cu1   O9    S    
C37   H30   S    
C42   C43   S    
C39   H33   S    
C28   H7    S    
C15   C17   S    
C38   H38   S    
C31   H20   S    
C34   C49   S    
C18   C22   S    
C4    O8    A    
C9    C50   S    
C7    C50   A    
C12   C45   S    
C3    C5    A    
C19   C34   S    
C26   H4    S    
C42   O5    S    
C32   H17   S    
C28   H6    S    
C23   C38   S    
C9    H23   S    
C46   H51   S    
C12   C24   S    
C35   H26   S    
C2    C3    A    
C8    H57   S    
C4    C21   S    
C11   C13   A    
C41   H43   S    
C36   H32   S    
C35   H27   S    
C33   C35   S    
C19   C24   S    
C1    O6    A    
C40   H39   S    
C26   H5    S    
C20   C47   S    
C6    C16   S    
C8    O13   S    
C27   C28   S    
C14   C15   S    
C13   C27   S    
C34   C47   S    
C36   H31   S    
C30   H16   S    
C18   O12   A    
Cu2   O6    S    
