data_mof_unit_14074.cif
_audit_creation_date              2012-12-11T16:23:55-0500
_audit_creation_method            fapswitch 2.2
_symmetry_space_group_name_H-M    P1
_symmetry_Int_Tables_number       1
_space_group_crystal_system       triclinic
_cell_length_a                    14.690373
_cell_length_b                    14.729188
_cell_length_c                    33.259624
_cell_angle_alpha                 96.078192
_cell_angle_beta                  96.275267
_cell_angle_gamma                 61.20656
_cell_volume                      6257.34086548

loop_
_atom_site_label
_atom_site_type_symbol
_atom_type_description
_atom_site_fract_x
_atom_site_fract_y
_atom_site_fract_z
_atom_type_partial_charge
C1    C     C_R   0.389716 0.702329 0.446523 0.585389
C2    C     C_1   0.317571 0.338622 0.229445 0.123027
C3    C     C_2   0.767768 0.500166 0.162148 0.632544
C4    C     C_2   0.903303 0.109686 0.070319 0.634701
C5    C     C_2   0.874462 0.123290 0.156348 0.639026
C6    C     C_3   0.150953 0.728068 0.378302 -0.061001
C7    C     C_2   0.532407 0.779781 0.420896 0.600078
C8    C     C_3   0.223474 0.751058 0.038326 -0.103790
C9    C     C_2   0.507848 0.216543 0.185914 0.630600
C10   C     C_3   0.239359 0.683833 0.142282 -0.069957
C11   C     C_2   0.475513 0.895769 0.082925 0.626404
C12   C     C_2   0.503220 0.854824 0.167997 0.640526
C13   C     C_1   0.320084 0.342082 0.265751 0.127116
C14   C     C_3   0.133245 0.501391 0.560763 -0.063676
C15   C     C_3   0.483515 0.133342 0.563465 -0.043988
C16   C     C_3   0.194368 0.611557 0.669673 -0.019141
C17   C     C_2   0.505538 0.190008 0.670725 0.641010
C18   C     C_3   0.580792 0.178393 0.305517 -0.080741
C19   C     C_2   0.488151 0.187208 0.916391 0.610098
C20   C     C_2   0.939190 0.116428 0.792896 0.596562
C21   C     C_2   0.866184 0.467332 0.602477 0.592238
C22   C     C_3   0.655093 0.527287 0.813836 -0.102765
C23   C     C_3   0.737227 0.483371 0.927426 -0.067519
C24   C     C_R   0.405184 0.385593 0.434232 0.537210
C25   C     C_3   0.017906 0.352533 0.686779 -0.065150
C26   C     C_3   0.520670 0.886813 0.908187 -0.028753
C27   C     C_3   0.394651 0.030050 0.801944 -0.038181
C28   C     C_3   0.577131 0.610056 0.702633 -0.091091
C29   C     C_2   0.180976 0.863990 0.586808 0.620282
C30   C     C_3   0.272444 0.677742 0.797505 -0.076701
C31   C     C_2   0.179897 0.822081 0.884971 0.625957
C32   C     C_3   0.146651 0.017920 0.674472 -0.077880
C33   C     C_3   0.074235 0.403317 0.193061 -0.018371
C34   C     C_3   0.099049 0.525276 0.093187 -0.046098
C35   C     C_R   0.291228 0.298813 0.101605 -0.053459
C36   C     C_2   0.152786 0.510036 0.314532 0.561899
C37   C     C_2   0.857311 0.473377 0.425924 0.635586
C38   C     C_R   0.757797 0.371744 0.410016 -0.036021
C39   C     C_R   0.814923 0.416800 0.396686 0.053174
C40   C     C_R   0.834705 0.403764 0.355115 0.253126
C41   C     C_R   0.809336 0.335927 0.328820 0.019340
C42   C     C_R   0.765344 0.282223 0.344017 -0.168388
C43   C     C_R   0.738550 0.300814 0.383804 -0.169053
C44   C     C_R   0.327663 0.345339 0.309226 0.021914
C45   C     C_R   0.837571 0.312232 0.204161 0.388124
C46   C     C_R   0.822252 0.323971 0.285010 0.347578
C47   C     C_R   0.824292 0.395881 0.140921 -0.019122
C48   C     C_R   0.702093 0.409286 0.447748 0.578724
C49   C     C_R   0.848164 0.386407 0.100151 0.004395
C50   C     C_R   0.889428 0.203905 0.095976 -0.005321
C51   C     C_R   0.870719 0.212080 0.137301 0.002510
C52   C     C_R   0.846454 0.306114 0.160331 -0.072733
C53   C     C_R   0.893579 0.286790 0.079362 -0.062905
C54   C     C_R   0.365903 0.763487 0.410142 0.019405
C55   C     C_R   0.417019 0.266530 0.328140 0.263534
C56   C     C_R   0.272191 0.787178 0.385992 0.255905
C57   C     C_R   0.262797 0.814238 0.345964 -0.103538
C58   C     C_R   0.344470 0.817477 0.329618 -0.029231
C59   C     C_R   0.431299 0.806920 0.354692 -0.140559
C60   C     C_R   0.392677 0.703173 0.560803 0.576251
C61   C     C_R   0.442018 0.782626 0.395204 -0.007662
C62   C     C_R   0.341830 0.831091 0.204545 0.383967
C63   C     C_R   0.340670 0.826054 0.285877 0.342170
C64   C     C_R   0.266264 0.820041 0.133402 0.287367
C65   C     C_R   0.251010 0.844674 0.092756 0.284935
C66   C     C_R   0.435899 0.274796 0.370158 -0.110626
C67   C     C_R   0.395173 0.884241 0.102108 -0.029246
C68   C     C_R   0.411095 0.859435 0.143091 -0.017629
C69   C     C_R   0.340528 0.835915 0.159824 -0.055875
C70   C     C_R   0.305801 0.890502 0.078696 -0.070496
C71   C     C_R   0.370216 0.367732 0.585082 -0.052443
C72   C     C_R   0.406571 0.388209 0.548828 0.560087
C73   C     C_R   0.279394 0.445778 0.602607 0.211617
C74   C     C_R   0.265072 0.443888 0.643518 0.237689
C75   C     C_R   0.335803 0.358303 0.665914 -0.079500
C76   C     C_R   0.421766 0.274915 0.647099 -0.004403
C77   C     C_R   0.402707 0.268547 0.164468 0.021162
C78   C     C_R   0.434945 0.277139 0.606082 0.175065
C79   C     C_R   0.306899 0.349950 0.788797 0.341833
C80   C     C_R   0.319594 0.356533 0.708816 0.399524
C81   C     C_R   0.212414 0.404670 0.851241 -0.123082
C82   C     C_R   0.205614 0.385149 0.890487 -0.149258
C83   C     C_R   0.389556 0.256322 0.893728 0.050283
C84   C     C_R   0.702547 0.412949 0.562458 0.582616
C85   C     C_R   0.393562 0.273286 0.853482 -0.143017
C86   C     C_R   0.304609 0.344450 0.832004 -0.003413
C87   C     C_R   0.291724 0.306439 0.911219 0.000260
C88   C     C_R   0.391270 0.251898 0.122037 0.219594
C89   C     C_R   0.754344 0.379691 0.602970 -0.047397
C90   C     C_R   0.822356 0.414925 0.623861 0.045621
C91   C     C_R   0.850391 0.397298 0.665624 0.262401
C92   C     C_R   0.808427 0.348031 0.685815 -0.007774
C93   C     C_R   0.747359 0.308233 0.664409 -0.168388
C94   C     C_R   0.721295 0.323054 0.623456 -0.169719
C95   C     C_R   0.904699 0.211205 0.821065 -0.006834
C96   C     C_R   0.368973 0.363037 0.393158 -0.045456
C97   C     C_R   0.932271 0.199229 0.862558 -0.188935
C98   C     C_R   0.842168 0.386360 0.876821 0.283667
C99   C     C_R   0.205830 0.375102 0.122929 0.203808
C100  C     C_R   0.813721 0.399765 0.835257 0.288992
C101  C     C_R   0.849441 0.312657 0.807288 -0.035565
C102  C     C_1   0.836011 0.328587 0.764647 0.077075
C103  C     C_1   0.824934 0.338958 0.728804 0.053829
C104  C     C_R   0.906762 0.285418 0.890250 -0.056971
C105  C     C_R   0.376019 0.757148 0.601496 -0.089366
C106  C     C_R   0.275223 0.823244 0.615346 0.029543
C107  C     C_R   0.264699 0.851986 0.657188 0.211568
C108  C     C_R   0.274909 0.436088 0.374732 -0.145878
C109  C     C_R   0.353140 0.812052 0.684533 0.010731
C110  C     C_R   0.215947 0.387600 0.165190 0.244415
C111  C     C_R   0.452654 0.750758 0.670545 0.243059
C112  C     C_R   0.463618 0.726868 0.629083 -0.143868
C113  C     C_R   0.380220 0.903440 0.829501 0.232140
C114  C     C_R   0.369642 0.922870 0.871318 0.217904
C115  C     C_R   0.245442 0.855157 0.866062 0.006148
C116  C     C_R   0.261457 0.830587 0.824347 0.232665
C117  C     C_R   0.325127 0.858976 0.806170 -0.028076
C118  C     C_1   0.333749 0.843141 0.763200 0.080287
C119  C     C_1   0.341790 0.829974 0.727306 0.078062
C120  C     C_R   0.252784 0.428613 0.332684 0.015447
C121  C     C_R   0.313334 0.333417 0.185931 -0.074745
C122  C     C_R   0.294762 0.908079 0.889318 -0.089973
C123  C     C_R   0.959595 0.265702 0.044684 0.567118
C124  C     C_R   0.272931 0.260398 0.060003 0.572803
C125  C     C_R   0.261317 0.956670 0.043200 0.558870
C126  C     C_R   0.961645 0.267898 0.930923 0.549446
C127  C     C_R   0.271993 0.265257 0.946020 0.557171
C128  C     C_R   0.257501 0.962944 0.929243 0.577580
C129  C     C_3   0.514658 0.246254 0.084954 -0.058482
C130  C     C_2   0.824897 0.480709 0.079381 0.654513
C131  C     C_3   0.803090 0.547524 0.324234 -0.030797
Cr1   Cr    Cr6+3 0.576280 0.580550 0.506370 1.099429
Cr2   Cr    Cr6+3 0.346780 0.572400 0.496520 1.088530
Cr3   Cr    Cr6+3 0.576960 0.347070 0.497150 1.047755
Cr4   Cr    Cr6+3 0.087320 0.083240 0.984860 1.102739
Cr5   Cr    Cr6+3 0.087720 0.316210 0.996740 1.074189
Cr6   Cr    Cr6+3 0.317350 0.090340 0.995890 1.110107
H1    H     H_    0.697241 0.263372 0.393316 0.147860
H2    H     H_    0.669097 0.295561 0.608430 0.189381
H3    H     H_    0.506068 0.214797 0.384386 0.146715
H4    H     H_    0.541196 0.677805 0.618916 0.167564
H5    H     H_    0.221299 0.502203 0.392862 0.156730
H6    H     H_    0.537922 0.290055 0.109515 0.127374
H7    H     H_    0.455910 0.300337 0.062927 0.101852
H8    H     H_    0.584900 0.193418 0.068469 0.184707
H9    H     H_    0.829366 0.615970 0.081991 0.343759
H10   H     H_    0.840123 0.592199 0.315598 0.188534
H11   H     H_    0.745141 0.597310 0.346639 0.168561
H12   H     H_    0.747959 0.228242 0.324456 0.132635
H13   H     H_    0.762504 0.531582 0.296413 0.120881
H14   H     H_    0.759360 0.595781 0.211419 0.363508
H15   H     H_    0.971306 0.953716 0.063837 0.367722
H16   H     H_    0.822227 0.018908 0.154858 0.352434
H17   H     H_    0.214304 0.656555 0.364215 0.110311
H18   H     H_    0.092349 0.775106 0.354652 0.141104
H19   H     H_    0.111064 0.703207 0.397642 0.172532
H20   H     H_    0.586575 0.816081 0.475194 0.337736
H21   H     H_    0.287443 0.679489 0.051523 0.087234
H22   H     H_    0.253961 0.776148 0.015030 0.159403
H23   H     H_    0.192272 0.830970 0.327118 0.143826
H24   H     H_    0.164375 0.730755 0.022756 0.138858
H25   H     H_    0.649177 0.089938 0.189830 0.334781
H26   H     H_    0.222234 0.661976 0.110546 0.110813
H27   H     H_    0.324520 0.640098 0.150691 0.112940
H28   H     H_    0.199869 0.659515 0.162050 0.168590
H29   H     H_    0.560755 0.969562 0.082821 0.363986
H30   H     H_    0.576392 0.932537 0.195802 0.355545
H31   H     H_    0.091314 0.485650 0.582753 0.166659
H32   H     H_    0.170146 0.433327 0.538812 0.104059
H33   H     H_    0.074638 0.567690 0.543369 0.155194
H34   H     H_    0.492061 0.815233 0.342371 0.171302
H35   H     H_    0.429395 0.176957 0.537996 0.110311
H36   H     H_    0.445110 0.103006 0.581258 0.144923
H37   H     H_    0.551358 0.065637 0.550120 0.162602
H38   H     H_    0.183924 0.651436 0.641685 0.193239
H39   H     H_    0.272210 0.591694 0.685280 0.090577
H40   H     H_    0.134966 0.667562 0.690304 0.182545
H41   H     H_    0.606960 0.150186 0.719951 0.358775
H42   H     H_    0.626299 0.153234 0.334889 0.097252
H43   H     H_    0.571729 0.254957 0.298771 0.152114
H44   H     H_    0.626317 0.120803 0.281521 0.178609
H45   H     H_    0.130444 0.426563 0.903334 0.162182
H46   H     H_    0.573674 0.156397 0.969816 0.345888
H47   H     H_    0.917613 0.050257 0.738900 0.363358
H48   H     H_    0.922278 0.476651 0.551188 0.344005
H49   H     H_    0.619679 0.524421 0.841221 0.108045
H50   H     H_    0.643323 0.477517 0.788505 0.098788
H51   H     H_    0.612832 0.608459 0.804567 0.161726
H52   H     H_    0.706810 0.559664 0.944769 0.170128
H53   H     H_    0.769494 0.422536 0.949756 0.148630
H54   H     H_    0.670348 0.481136 0.908982 0.088081
H55   H     H_    0.043475 0.328568 0.655333 0.117567
H56   H     H_    0.143625 0.461067 0.834883 0.158982
H57   H     H_    0.028517 0.284305 0.702227 0.091687
H58   H     H_    0.069324 0.381447 0.703577 0.185495
H59   H     H_    0.564579 0.922029 0.926649 0.174815
H60   H     H_    0.569062 0.837737 0.882953 0.161969
H61   H     H_    0.508548 0.838013 0.928172 0.105788
H62   H     H_    0.368022 0.083384 0.829470 0.157316
H63   H     H_    0.327440 0.045369 0.779585 0.106529
H64   H     H_    0.449075 0.047554 0.787886 0.185217
H65   H     H_    0.604121 0.562116 0.673928 0.115255
H66   H     H_    0.517158 0.596579 0.714729 0.089489
H67   H     H_    0.466053 0.230941 0.838650 0.161079
H68   H     H_    0.645210 0.583571 0.725029 0.180277
H69   H     H_    0.028551 0.904815 0.576486 0.345738
H70   H     H_    0.290121 0.644247 0.827624 0.129084
H71   H     H_    0.345903 0.655898 0.783221 0.084413
H72   H     H_    0.229935 0.643143 0.777763 0.193501
H73   H     H_    0.161434 0.759406 0.932545 0.332024
H74   H     H_    0.146501 0.044162 0.644270 0.124513
H75   H     H_    0.203387 0.030006 0.696352 0.106428
H76   H     H_    0.068061 0.067475 0.685751 0.160903
H77   H     H_    0.124274 0.330538 0.208831 0.120544
H78   H     H_    0.979752 0.121710 0.873019 0.196046
H79   H     H_    0.037768 0.386281 0.164215 0.169571
H80   H     H_    0.010969 0.454676 0.213029 0.206201
H81   H     H_    0.162913 0.513182 0.074488 0.069143
H82   H     H_    0.096459 0.575757 0.120859 0.149308
H83   H     H_    0.024691 0.566637 0.074824 0.159457
H84   H     H_    0.071200 0.589646 0.265688 0.358221
H85   H     H_    0.898109 0.586902 0.436604 0.341158
H86   H     H_    0.716497 0.268619 0.679777 0.184148
N1    N     N_R   0.758209 0.306422 0.218826 -0.175452
N2    N     N_R   0.383321 0.877823 0.270808 -0.197026
N3    N     N_R   0.382680 0.881202 0.230944 -0.178823
N4    N     N_R   0.277282 0.441572 0.772761 -0.248694
N5    N     N_R   0.284326 0.444604 0.733448 -0.203903
N6    N     N_R   0.345276 0.265627 0.724842 -0.211727
N7    N     N_R   0.339857 0.262232 0.764203 -0.250309
N8    N     N_R   0.750754 0.312225 0.258597 -0.219551
N9    N     N_R   0.902473 0.328248 0.270208 -0.149246
N10   N     N_R   0.910181 0.322070 0.230419 -0.191529
N11   N     N_R   0.298852 0.779922 0.219948 -0.160282
N12   N     N_R   0.298079 0.777537 0.259741 -0.213898
O1    O     O_R   0.679450 0.499830 0.463150 -0.465486
O2    O     O_R   0.340240 0.172500 0.045430 -0.448750
O3    O     O_R   0.309670 0.000990 0.032050 -0.483129
O4    O     O_R   0.480650 0.664000 0.464630 -0.477760
O5    O     O_R   0.168330 0.982130 0.939200 -0.488648
O6    O     O_R   0.000140 0.178170 0.944610 -0.503092
O7    O     O_R   0.983010 0.336750 0.948660 -0.465341
O8    O     O_R   0.181800 0.312190 0.959860 -0.521892
O9    O     O_R   0.338500 0.175680 0.956950 -0.453548
O10   O     O_R   0.308050 0.003930 0.950020 -0.456622
O11   O     O_3   0.164130 0.163270 0.992500 -0.286696
O12   O     O_R   0.356040 0.477400 0.534170 -0.459193
O13   O     O_R   0.323930 0.675950 0.455370 -0.454877
O14   O     O_R   0.354700 0.475360 0.451930 -0.507152
O15   O     O_R   0.494470 0.320860 0.448390 -0.522596
O16   O     O_R   0.662580 0.357570 0.460050 -0.503450
O17   O     O_R   0.680900 0.502040 0.551870 -0.475685
O18   O     O_R   0.481990 0.666040 0.546870 -0.502352
O19   O     O_R   0.325370 0.678160 0.544080 -0.459389
O20   O     O_3   0.477679 0.186008 0.100845 -0.480340
O21   O     O_2   0.783550 0.493039 0.044984 -0.509561
O22   O     O_R   0.849913 0.555236 0.099157 -0.644302
O23   O     O_R   0.495910 0.323070 0.537100 -0.473968
O24   O     O_3   0.881560 0.454705 0.340613 -0.502327
O25   O     O_2   0.687357 0.566463 0.146114 -0.443212
O26   O     O_R   0.805364 0.522484 0.200245 -0.697341
O27   O     O_2   0.853661 0.119001 0.037603 -0.506776
O28   O     O_R   0.971772 0.010898 0.083569 -0.608671
O29   O     O_2   0.931683 0.089064 0.186729 -0.465079
O30   O     O_R   0.812129 0.079310 0.139484 -0.658919
O31   O     O_3   0.188929 0.788528 0.402811 -0.530483
O32   O     O_2   0.617224 0.744104 0.406720 -0.517645
O33   O     O_R   0.519569 0.821891 0.460880 -0.670451
O34   O     O_R   0.663920 0.359620 0.542290 -0.496144
O35   O     O_3   0.175162 0.831535 0.068317 -0.509562
O36   O     O_2   0.530955 0.261414 0.214966 -0.532766
O37   O     O_R   0.581105 0.116885 0.172565 -0.593276
O38   O     O_3   0.199103 0.792422 0.148178 -0.483303
O39   O     O_2   0.513629 0.841457 0.052538 -0.513941
O40   O     O_R   0.505847 0.969499 0.098805 -0.580759
O41   O     O_2   0.569710 0.772488 0.181111 -0.475015
O42   O     O_R   0.511105 0.945431 0.178086 -0.602935
O43   O     O_3   0.207146 0.528544 0.580804 -0.534010
O44   O     O_3   0.519450 0.194893 0.588337 -0.519626
O45   O     O_3   0.500010 0.500010 0.500010 -0.282721
O46   O     O_3   0.178649 0.523783 0.661219 -0.522589
O47   O     O_2   0.536505 0.099397 0.658455 -0.464971
O48   O     O_R   0.550419 0.214238 0.706685 -0.692062
O49   O     O_3   0.483870 0.180141 0.305146 -0.539853
O50   O     O_2   0.557622 0.113622 0.898613 -0.497299
O51   O     O_R   0.503260 0.208546 0.957840 -0.689894
O52   O     O_2   0.013277 0.034531 0.803155 -0.465817
O53   O     O_R   0.886241 0.119597 0.755037 -0.698029
O54   O     O_2   0.879972 0.537522 0.619934 -0.443732
O55   O     O_R   0.893492 0.435067 0.562474 -0.670463
O56   O     O_R   0.170070 0.978950 0.027680 -0.454868
O57   O     O_3   0.761346 0.499375 0.821917 -0.510935
O58   O     O_3   0.814758 0.473616 0.903072 -0.515339
O59   O     O_3   0.914115 0.433061 0.687172 -0.507011
O60   O     O_3   0.425124 0.967269 0.893384 -0.519384
O61   O     O_3   0.447827 0.925134 0.811646 -0.528698
O62   O     O_3   0.539695 0.716394 0.697496 -0.518646
O63   O     O_2   0.185086 0.888536 0.553317 -0.493269
O64   O     O_R   0.086998 0.875866 0.598427 -0.636164
O65   O     O_3   0.208134 0.786151 0.800590 -0.491337
O66   O     O_2   0.098761 0.830843 0.867350 -0.422543
O67   O     O_R   0.001760 0.175230 0.026640 -0.470127
O68   O     O_R   0.212229 0.779112 0.922787 -0.719915
O69   O     O_3   0.167159 0.913607 0.671755 -0.515544
O70   O     O_3   0.130006 0.455371 0.186333 -0.529477
O71   O     O_3   0.108755 0.430334 0.103344 -0.509353
O72   O     O_2   0.078295 0.558519 0.335392 -0.514417
O73   O     O_R   0.143115 0.532736 0.274044 -0.674232
O74   O     O_2   0.885698 0.445873 0.460565 -0.501132
O75   O     O_R   0.867613 0.555933 0.413922 -0.630518
O76   O     O_R   0.984760 0.333570 0.037150 -0.463787
O77   O     O_R   0.183410 0.309240 0.041890 -0.468100

loop_
_geom_bond_atom_site_label_1
_geom_bond_atom_site_label_2
_ccdc_geom_bond_type
C5    O30   S    
C62   N11   A    
C46   N8    A    
C108  C120  A    
C14   H33   S    
C26   H59   S    
C108  H5    S    
Cr3   O34   S    
C10   H26   S    
C35   C124  S    
Cr1   O4    S    
C24   C96   S    
C106  C107  A    
C82   C87   A    
C19   O50   D    
C56   C57   A    
C73   C74   A    
C89   C94   A    
C26   H60   S    
C40   O24   S    
C77   C88   A    
C3    O26   S    
C17   C76   S    
C129  H8    S    
C6    H18   S    
C14   O43   S    
C113  O61   S    
C96   C108  A    
C114  O60   S    
C94   H2    S    
Cr4   O11   S    
C59   H34   S    
C70   C125  S    
C21   C90   S    
C50   C53   A    
C15   H36   S    
C51   C52   A    
C71   C73   A    
C34   H82   S    
C99   C110  A    
C75   C76   A    
N6    N7    A    
N4    N5    A    
Cr3   O23   S    
C60   O19   A    
C127  O8    A    
C93   H86   S    
C9    C77   S    
Cr1   O1    S    
C17   O47   D    
C16   H38   S    
C105  C112  A    
Cr3   O15   S    
C10   O38   S    
C14   H31   S    
C91   C92   A    
C2    C121  S    
C24   O14   A    
C110  O70   S    
C45   N1    A    
C25   H55   S    
C95   C97   A    
C47   C52   A    
C54   C61   A    
C33   H80   S    
C64   O38   S    
C18   H44   S    
Cr4   O6    S    
C38   C43   A    
C100  O57   S    
C31   O68   S    
C29   O64   S    
C32   O69   S    
C44   C55   A    
C30   O65   S    
C49   C53   A    
C30   H70   S    
C15   H35   S    
C22   H51   S    
C34   O71   S    
Cr2   O13   S    
C81   H56   S    
C66   H3    S    
C4    O27   D    
C5    C51   S    
C21   O55   S    
C8    H22   S    
C13   C44   S    
C25   H57   S    
N9    N10   A    
C111  C112  A    
C63   N2    A    
C129  H7    S    
C85   C86   A    
C12   C68   S    
C36   O72   D    
C84   O34   A    
C128  O10   A    
C76   C78   A    
C109  C111  A    
C110  C121  A    
C20   O53   S    
C38   C39   A    
C115  C116  A    
C92   C93   A    
C8    O35   S    
C85   H67   S    
H46   O51   S    
C74   O46   S    
C126  O7    A    
C131  H10   S    
C56   O31   S    
H30   O42   S    
C38   C48   S    
C18   H43   S    
Cr6   O2    S    
C19   C83   S    
C31   C115  S    
H69   O64   S    
H84   O73   S    
C88   O20   S    
Cr1   O45   S    
C59   C61   A    
C27   H62   S    
H73   O68   S    
C31   O66   D    
N1    N8    A    
C39   C40   A    
C32   H74   S    
H85   O75   S    
C45   C52   S    
C112  H4    S    
C22   H49   S    
Cr6   O10   S    
Cr5   O11   S    
C64   C69   A    
C7    O32   D    
C65   O35   S    
C125  O56   A    
C113  C117  A    
C98   O58   S    
Cr4   O67   S    
Cr2   O14   S    
H20   O33   S    
Cr5   O8    S    
C27   H64   S    
C28   H66   S    
C46   N9    A    
C81   C86   A    
C49   C130  S    
C82   H45   S    
C91   O59   S    
C67   C70   A    
Cr3   O45   S    
C24   O15   A    
C71   C72   S    
C117  C118  S    
Cr5   O77   S    
C57   C58   A    
C3    C47   S    
C100  C101  A    
C102  C103  T    
C26   H61   S    
C77   C121  A    
C125  O3    A    
C123  O76   A    
C12   O42   S    
C23   H53   S    
C6    H19   S    
C95   C101  A    
C83   C87   A    
C101  C102  S    
C41   C42   A    
C8    H21   S    
C30   H72   S    
C1    O4    A    
Cr1   O17   S    
C37   O75   S    
C45   N10   A    
C78   O44   S    
C34   H83   S    
C44   C120  A    
Cr4   O5    S    
C43   H1    S    
C16   O46   S    
C42   H12   S    
C7    C61   S    
C129  O20   S    
C68   C69   A    
C27   O61   S    
C16   H39   S    
C9    O36   D    
C28   H68   S    
C107  C109  A    
Cr3   O16   S    
C14   H32   S    
C23   H54   S    
C127  O9    A    
C67   C68   A    
C123  O67   A    
C58   C59   A    
C62   N3    A    
C19   O51   S    
C62   C69   S    
C4    C50   S    
C20   O52   D    
H16   O30   S    
C11   O39   D    
C29   O63   D    
H41   O48   S    
C30   H71   S    
C50   C51   A    
C80   N5    A    
C6    H17   S    
Cr1   O18   S    
Cr2   O12   S    
C131  O24   S    
Cr5   O76   S    
C83   C85   A    
C57   H23   S    
C98   C100  A    
C55   O49   S    
C21   O54   D    
C42   C43   A    
C55   C66   A    
C109  C119  S    
C66   C96   A    
C113  C114  A    
C15   H37   S    
H48   O55   S    
Cr2   O19   S    
C33   H77   S    
C34   H81   S    
C129  H6    S    
C73   O43   S    
C128  O5    A    
C105  C106  A    
C36   O73   S    
Cr5   O7    S    
C28   H65   S    
C64   C65   A    
C48   O16   A    
C37   C39   S    
C90   C91   A    
C15   O44   S    
C60   O18   A    
C124  O77   A    
C122  C128  S    
C36   C120  S    
H29   O40   S    
C97   C104  A    
C107  O69   S    
H14   O26   S    
C63   N12   A    
C17   O48   S    
C18   O49   S    
C97   H78   S    
C131  H13   S    
C89   C90   A    
C23   O58   S    
C79   C86   S    
C65   C70   A    
C72   O23   A    
C93   C94   A    
Cr6   O11   S    
C25   O59   S    
C84   O17   A    
C80   N6    A    
C12   O41   D    
C87   C127  S    
C81   C82   A    
C47   C49   A    
H25   O37   S    
Cr2   O45   S    
C72   O12   A    
C8    H24   S    
C4    O28   S    
C32   H75   S    
C3    O25   D    
Cr6   O3    S    
C116  C117  A    
C99   O71   S    
C22   H50   S    
C2    C13   T    
C118  C119  T    
C92   C103  S    
Cr6   O9    S    
C111  O62   S    
C5    O29   D    
C41   C46   S    
C22   O57   S    
C75   C80   S    
C25   H58   S    
H47   O53   S    
C115  C122  A    
C35   C99   A    
C79   N4    A    
C33   H79   S    
C11   C67   S    
C54   C56   A    
C74   C75   A    
C53   C123  S    
C1    C54   S    
C79   N7    A    
C6    O31   S    
C35   C88   A    
C126  O6    A    
N2    N3    A    
C131  H11   S    
C11   O40   S    
C48   O1    A    
C32   H76   S    
C40   C41   A    
C20   C95   S    
C18   H42   S    
C29   C106  S    
C84   C89   S    
C33   O70   S    
C28   O62   S    
C23   H52   S    
C130  O22   S    
C16   H40   S    
H15   O28   S    
C58   C63   S    
C10   H27   S    
C9    O37   S    
C27   H63   S    
C1    O13   A    
C26   O60   S    
C37   O74   D    
C124  O2    A    
C10   H28   S    
C98   C104  A    
C7    O33   S    
C114  C122  A    
C104  C126  S    
C116  O65   S    
N11   N12   A    
H9    O22   S    
Cr4   O56   S    
C71   C78   A    
C60   C105  S    
C130  O21   D    
