data_mof_unit_20971.cif
_audit_creation_date              2013-03-05T16:33:11-0500
_audit_creation_method            fapswitch 2.2
_symmetry_space_group_name_H-M    P1
_symmetry_Int_Tables_number       1
_space_group_crystal_system       triclinic
_cell_length_a                    27.72054
_cell_length_b                    10.808079
_cell_length_c                    9.59217
_cell_angle_alpha                 89.942629
_cell_angle_beta                  90.78202
_cell_angle_gamma                 89.539114
_cell_volume                      2873.5072089

loop_
_atom_site_label
_atom_site_type_symbol
_atom_site_description
_atom_site_fract_x
_atom_site_fract_y
_atom_site_fract_z
_atom_type_partial_charge
O1    O     O_R   0.500000 0.319640 0.618810 -0.585700
O2    O     O_R   0.500010 0.319680 0.381230 -0.542048
C1    C     C_R   0.500686 0.262512 0.499647 0.837728
O3    O     O_R   0.430260 0.500000 0.618780 -0.586153
O4    O     O_R   0.430270 0.500040 0.381190 -0.582278
C2    C     C_R   0.407641 0.497971 0.499188 0.819724
Cu1   Cu    Cu3+1 0.500000 0.499980 0.640670 0.924944
Cu2   Cu    Cu3+1 0.500000 0.500020 0.359330 0.943775
O5    O     O_R   0.499990 0.680320 0.618770 -0.581365
O6    O     O_R   0.500000 0.680360 0.381190 -0.596416
O7    O     O_R   0.569730 0.499960 0.618810 -0.590347
O8    O     O_R   0.569740 0.500000 0.381220 -0.579660
C3    C     C_R   0.499947 0.737266 0.499815 0.822420
C4    C     C_R   0.592287 0.499826 0.500938 0.843359
C5    C     C_R   0.178834 0.472193 0.614231 0.599485
O9    O     O_2   0.204462 0.412389 0.714590 -0.526560
N1    N     N_R   0.202167 0.526917 0.505970 -0.444610
C6    C     C_R   0.177347 0.588482 0.402743 0.548330
C7    C     C_R   0.281676 0.593772 0.591719 0.552287
C8    C     C_R   0.331900 0.582030 0.591242 -0.352343
C9    C     C_R   0.326539 0.427027 0.407049 0.136984
C10   C     C_R   0.276181 0.439118 0.408901 -0.186504
C11   C     C_R   0.253792 0.520529 0.501590 0.220612
C12   C     C_R   0.101938 0.538402 0.514417 -0.052184
C13   C     C_R   0.128334 0.477422 0.620919 -0.025189
C14   C     C_R   0.103875 0.422408 0.730960 -0.144108
C15   C     C_R   0.126749 0.595678 0.405258 -0.068638
C16   C     C_R   0.354726 0.501008 0.498308 -0.099820
H1    H     H_    0.254033 0.382615 0.340610 0.168897
H2    H     H_    0.123331 0.374222 0.813625 0.185629
C17   C     C_R   0.644924 0.501510 0.503399 -0.171214
C18   C     C_R   0.975168 0.493579 0.633693 0.054371
C19   C     C_R   0.974068 0.576690 0.395386 0.000770
C20   C     C_R   0.949194 0.532228 0.512565 0.072256
C21   C     C_R   0.948986 0.459478 0.752712 -0.218766
C22   C     C_R   0.898975 0.455855 0.749416 -0.151682
C23   C     C_R   0.873217 0.486021 0.627553 -0.022895
C24   C     C_R   0.898083 0.524164 0.507812 -0.084172
C25   C     C_R   0.871950 0.552932 0.383653 -0.052534
C26   C     C_R   0.820846 0.549696 0.387591 0.592247
N2    N     N_R   0.797817 0.512035 0.505462 -0.439683
C27   C     C_R   0.822876 0.478802 0.623300 0.587175
C28   C     C_R   0.721394 0.422543 0.419835 0.500679
C29   C     C_R   0.670948 0.422492 0.416227 -0.309965
C30   C     C_R   0.669330 0.582732 0.592741 -0.315202
C31   C     C_R   0.719672 0.589103 0.591101 0.501834
C32   C     C_R   0.745969 0.507733 0.505601 0.145411
O10   O     O_2   0.798992 0.438432 0.736123 -0.526243
C33   C     C_R   0.026300 0.487720 0.630579 0.050984
C34   C     C_R   0.050818 0.541324 0.516664 0.035686
C35   C     C_R   0.024616 0.597474 0.404891 0.030902
C36   C     C_R   0.053838 0.427698 0.736201 -0.206647
H3    H     H_    0.652221 0.358304 0.348297 0.175012
H4    H     H_    0.880540 0.428446 0.843252 0.183865
H5    H     H_    0.966193 0.437503 0.851246 0.138039
H6    H     H_    0.037612 0.379727 0.822027 0.140388
O11   O     O_2   0.201598 0.643050 0.298585 -0.545247
C37   C     C_R   0.100868 0.663654 0.304930 -0.149887
H7    H     H_    0.353153 0.637837 0.662629 0.165276
H8    H     H_    0.119960 0.716309 0.227100 0.195217
C38   C     C_R   0.948392 0.588888 0.268727 -0.207731
C39   C     C_R   0.898078 0.580351 0.260919 0.153339
O12   O     O_2   0.793980 0.585735 0.276444 -0.526732
C40   C     C_R   0.050491 0.671227 0.307787 0.154517
H9    H     H_    0.967743 0.601148 0.172868 0.164641
H10   H     H_    0.649327 0.644007 0.660574 0.166648
C41   C     C_R   0.476009 0.064333 0.601222 0.061218
C42   C     C_R   0.499201 0.128982 0.495824 -0.230347
C43   C     C_R   0.516501 0.063124 0.378853 0.479127
C44   C     C_R   0.516215 0.933647 0.381353 -0.307414
H11   H     H_    0.532884 0.883102 0.296942 0.175020
C45   C     C_R   0.498142 0.870324 0.496869 -0.158444
C46   C     C_R   0.475724 0.937134 0.602098 0.066764
C47   C     C_3   0.480685 0.930029 0.757243 -0.449652
C48   C     C_3   0.480693 0.071300 0.756655 -0.026616
H12   H     H_    0.448506 0.887843 0.805738 0.196629
H13   H     H_    0.515807 0.889065 0.791671 0.180097
H14   H     H_    0.515436 0.111813 0.792960 0.166242
C49   C     C_R   0.536950 0.448235 0.074953 0.186503
N3    N     N_R   0.500300 0.500930 0.147930 -0.182260
C50   C     C_R   0.463257 0.556442 0.070047 0.232186
C51   C     C_R   0.463644 0.554912 0.922079 -0.078426
H15   H     H_    0.435021 0.599985 0.862797 0.152134
N4    N     N_R   0.500310 0.500890 0.852020 -0.215253
C52   C     C_R   0.535572 0.440970 0.927840 0.175983
C53   C     C_3   0.588403 0.465461 0.917905 -0.078395
C54   C     C_3   0.588917 0.488214 0.074451 -0.070218
H16   H     H_    0.596966 0.548493 0.854688 0.207808
H17   H     H_    0.613213 0.425267 0.134895 0.195851
C55   C     C_3   0.347933 0.330433 0.312160 -0.834042
H18   H     H_    0.327497 0.242880 0.321357 0.226151
H19   H     H_    0.345488 0.362883 0.202460 0.239768
H20   H     H_    0.385986 0.307542 0.338700 0.232578
O13   O     O_3   0.259439 0.671444 0.685886 -0.553332
C56   C     C_3   0.261857 0.793679 0.635179 -0.304058
H21   H     H_    0.244400 0.802460 0.530275 0.178963
H22   H     H_    0.299794 0.826447 0.632100 0.150386
H23   H     H_    0.241919 0.855223 0.707195 0.202327
C57   C     C_3   0.874448 0.597502 0.119110 -0.724440
H24   H     H_    0.851625 0.682337 0.118272 0.262209
H25   H     H_    0.901315 0.608703 0.035231 0.193546
H26   H     H_    0.852557 0.515111 0.092161 0.265289
O14   O     O_3   0.743380 0.671409 0.677587 -0.539643
C58   C     C_3   0.745692 0.786386 0.608644 -0.311815
H27   H     H_    0.709008 0.825838 0.588886 0.153585
H28   H     H_    0.765794 0.778612 0.509266 0.169420
H29   H     H_    0.765514 0.852140 0.676686 0.195995
C59   C     C_3   0.027547 0.772916 0.220487 -0.878729
H30   H     H_    0.049691 0.858012 0.227355 0.238470
H31   H     H_    0.025532 0.744302 0.109439 0.232333
H32   H     H_    0.991365 0.799931 0.258481 0.246601
O15   O     O_3   0.540247 0.123924 0.273092 -0.568578
C60   C     C_3   0.512547 0.115527 0.149091 -0.293992
H33   H     H_    0.529914 0.172196 0.067751 0.175351
H34   H     H_    0.475432 0.153140 0.163607 0.162633
H35   H     H_    0.511118 0.018869 0.109755 0.152669
C61   C     C_3   0.436132 0.129654 0.823469 -0.818825
H36   H     H_    0.436240 0.108998 0.936684 0.217378
H37   H     H_    0.436696 0.231575 0.809264 0.255989
H38   H     H_    0.402288 0.093127 0.776207 0.242291
C62   C     C_3   0.421965 0.625938 0.134615 -0.767826
H39   H     H_    0.405151 0.692075 0.059256 0.178282
H40   H     H_    0.393276 0.560548 0.164274 0.245023
H41   H     H_    0.433845 0.682948 0.223624 0.260699
C63   C     C_3   0.617079 0.349959 0.875337 -0.834875
H42   H     H_    0.608548 0.325028 0.765654 0.252267
H43   H     H_    0.656285 0.369087 0.884477 0.264447
H44   H     H_    0.608483 0.269516 0.942681 0.223223
C64   C     C_3   0.596699 0.626657 0.105790 -0.798877
H45   H     H_    0.570252 0.685405 0.047196 0.214337
H46   H     H_    0.593341 0.648338 0.217614 0.264318
H47   H     H_    0.633622 0.652894 0.074155 0.240755
O16   O     O_3   0.746763 0.343358 0.334332 -0.540446
C65   C     C_3   0.752544 0.229124 0.403795 -0.309990
H48   H     H_    0.717090 0.184892 0.422678 0.157379
H49   H     H_    0.772999 0.239915 0.503716 0.168884
H50   H     H_    0.773675 0.165921 0.336566 0.196476

loop_
_geom_bond_atom_site_label_1
_geom_bond_atom_site_label_2
_geom_bond_distance
_ccdc_geom_bond_type
C10   H1    1.083899 S    
C46   C47   1.494491 S    
C7    C8    1.397086 A    
C48   C61   1.531091 S    
C12   C15   1.406357 A    
C4    C17   1.459247 S    
C65   H50   1.109218 S    
C58   H28   1.113630 S    
C50   C51   1.419629 A    
C56   H23   1.109292 S    
Cu1   Cu2   2.698660 S    
C52   C53   1.494631 S    
Cu1   O7    1.947134 S    
N1    C11   1.433365 S    
C26   O12   1.347540 S    
C47   H12   1.112412 S    
O4    C2    1.301785 A    
C22   C23   1.398295 A    
C1    C42   1.444607 S    
C64   H45   1.112246 S    
C61   H37   1.110085 S    
C24   C25   1.418415 A    
C43   O15   1.384967 S    
C53   H16   1.111617 S    
C5    C13   1.402910 A    
C37   H8    1.084471 S    
C5    O9    1.349779 S    
C59   H30   1.111373 S    
C5    N1    1.367432 A    
N2    C27   1.364890 A    
C23   C27   1.398325 A    
C28   O16   1.380999 S    
O5    C3    1.295885 A    
O15   C60   1.410331 S    
C62   H41   1.101685 S    
C30   H10   1.083626 S    
C29   H3    1.082960 S    
C2    C16   1.466853 S    
C56   H21   1.114228 S    
C59   H31   1.110274 S    
C42   C43   1.416458 A    
C47   H13   1.112189 S    
C63   H44   1.111929 S    
C44   H11   1.083785 S    
C41   C46   1.374887 A    
C38   C39   1.399508 A    
C64   H47   1.110442 S    
Cu1   N4    2.027241 S    
O1    Cu1   1.960584 S    
C9    C10   1.401376 A    
C53   C63   1.533266 S    
C37   C40   1.398871 A    
O13   C56   1.409776 S    
O3    Cu1   1.941750 S    
C49   C54   1.507360 S    
C58   H27   1.113292 S    
C40   C59   1.511962 S    
C9    C55   1.508892 S    
C12   C34   1.417625 A    
C17   C29   1.398910 A    
C6    C15   1.404652 A    
C21   H5    1.078271 S    
C41   C42   1.395409 A    
C18   C21   1.411388 A    
C12   C13   1.408511 A    
O3    C2    1.300075 A    
C47   C48   1.526880 S    
C61   H38   1.111885 S    
C25   C26   1.418363 A    
C53   C54   1.521754 S    
N3    C50   1.393121 A    
C65   H49   1.113661 S    
C8    C16   1.403530 A    
C34   C35   1.419750 A    
C13   C14   1.397204 A    
C30   C31   1.398058 A    
O6    C3    1.294018 A    
C39   C57   1.512268 S    
C50   C62   1.504792 S    
O1    C1    1.299978 A    
C21   C22   1.387144 A    
C18   C20   1.419233 A    
C7    C11   1.401603 A    
C28   C29   1.398345 A    
C23   C24   1.410504 A    
C14   C36   1.389361 A    
C6    O11   1.349632 S    
C55   H19   1.109852 S    
C57   H24   1.109742 S    
Cu2   O8    1.941744 S    
C33   C36   1.414080 A    
N1    C6    1.367227 A    
N2    C32   1.438377 S    
C27   O10   1.350249 S    
N4    C52   1.368687 A    
C8    H7    1.084116 S    
C62   H39   1.111359 S    
C7    O13   1.381664 S    
Cu2   O6    1.960583 S    
C26   N2    1.369139 A    
C57   H25   1.110994 S    
C9    C16   1.417357 A    
O8    C4    1.299904 A    
C14   H2    1.083445 S    
C51   N4    1.354803 A    
C54   H17   1.110765 S    
C63   H42   1.109163 S    
C41   C48   1.496834 S    
C49   C52   1.413402 A    
C55   H20   1.107730 S    
C63   H43   1.110227 S    
C60   H33   1.108917 S    
Cu1   O5    1.960204 S    
C25   C39   1.422825 A    
C31   C32   1.408867 A    
C20   C24   1.420322 A    
O2    Cu2   1.960206 S    
C35   C40   1.429471 A    
C45   C46   1.392052 A    
C15   C37   1.397110 A    
O4    Cu2   1.947137 S    
C56   H22   1.113139 S    
C65   H48   1.113333 S    
C3    C45   1.438801 S    
C19   C35   1.422612 A    
C31   O14   1.381116 S    
C59   H32   1.108840 S    
C60   H35   1.111925 S    
O2    C1    1.292350 A    
C61   H36   1.108423 S    
C54   C64   1.542769 S    
C55   H18   1.110851 S    
O16   C65   1.409342 S    
C64   H46   1.103178 S    
O7    C4    1.299486 A    
C19   C20   1.412503 A    
C43   C44   1.399665 A    
C48   H14   1.112888 S    
C18   C33   1.419046 A    
C62   H40   1.108016 S    
C22   H4    1.083300 S    
C49   N3    1.362880 A    
C38   H9    1.079412 S    
C57   H26   1.110354 S    
C19   C38   1.405213 A    
C33   C34   1.420173 A    
C17   C30   1.399285 A    
O14   C58   1.409423 S    
Cu2   N3    2.027931 S    
C10   C11   1.399198 A    
C44   C45   1.402254 A    
C51   H15   1.082186 S    
C28   C32   1.408895 A    
C58   H29   1.109221 S    
C36   H6    1.077908 S    
C60   H34   1.113769 S    
