data_mof_unit_48136.cif
_audit_creation_date              2012-12-10T19:00:44-0500
_audit_creation_method            fapswitch 2.2
_symmetry_space_group_name_H-M    P1
_symmetry_Int_Tables_number       1
_space_group_crystal_system       triclinic
_cell_length_a                    15.007043
_cell_length_b                    10.800835
_cell_length_c                    9.587197
_cell_angle_alpha                 89.236601
_cell_angle_beta                  89.641906
_cell_angle_gamma                 91.458955
_cell_volume                      1553.29989235

loop_
_atom_site_label
_atom_site_type_symbol
_atom_type_description
_atom_site_fract_x
_atom_site_fract_y
_atom_site_fract_z
_atom_type_partial_charge
C1    C     C_R   0.493434 0.262615 0.500973 0.817574
C2    C     C_R   0.909504 0.616862 0.509102 0.011619
C3    C     C_R   0.951319 0.280802 0.447759 -0.101254
C4    C     C_R   0.043818 0.279999 0.452584 -0.172078
C5    C     C_R   0.092403 0.389641 0.475033 0.116244
C6    C     C_R   0.047722 0.502103 0.492383 0.086753
C7    C     C_R   0.097271 0.612981 0.512051 0.074325
C8    C     C_R   0.054131 0.725357 0.518941 -0.187799
C9    C     C_R   0.961203 0.729883 0.510005 0.017871
C10   C     C_R   0.185280 0.388996 0.479092 -0.214099
C11   C     C_R   0.233307 0.499171 0.500777 -0.021391
C12   C     C_R   0.329244 0.498900 0.500372 0.756824
C13   C     C_R   0.190077 0.610705 0.517279 -0.209968
C14   C     C_R   0.499303 0.061944 0.622792 0.165747
C15   C     C_R   0.476261 0.129364 0.504185 -0.218370
C16   C     C_R   0.434150 0.065789 0.392299 -0.057288
C17   C     C_R   0.439019 0.934056 0.388271 -0.070110
C18   C     C_R   0.481745 0.870498 0.499201 -0.197302
C19   C     C_R   0.503261 0.935753 0.618919 0.125039
C20   C     C_3   0.583119 0.932247 0.711007 -0.491523
C21   C     C_3   0.577960 0.072550 0.718214 -0.224978
C22   C     C_R   0.560617 0.571439 0.072022 0.224176
C23   C     C_R   0.496012 0.737557 0.499181 0.772108
C24   C     C_R   0.435015 0.439983 0.077575 0.023686
C25   C     C_R   0.434318 0.438684 0.929181 0.067092
C26   C     C_R   0.562558 0.567709 0.925243 0.171555
C27   C     C_3   0.661888 0.553356 0.924991 0.071275
C28   C     C_3   0.659349 0.565884 0.082164 -0.486151
C29   C     C_R   0.670896 0.499041 0.499368 0.867611
C30   C     C_R   0.815561 0.611689 0.526507 -0.104007
C31   C     C_R   0.767875 0.501167 0.496536 -0.156753
C32   C     C_R   0.811809 0.392168 0.463744 0.210542
C33   C     C_R   0.905213 0.391317 0.467088 0.057917
C34   C     C_R   0.953937 0.503543 0.489740 -0.000884
Cu1   Cu    Cu3+1 0.500000 0.499980 0.640670 0.982192
Cu2   Cu    Cu3+1 0.500000 0.500020 0.359330 0.978470
H1    H     H_    0.568818 0.881631 0.810854 0.215910
H2    H     H_    0.643630 0.903297 0.654995 0.216928
H3    H     H_    0.635937 0.123222 0.669863 0.200384
H4    H     H_    0.384668 0.388350 0.136855 0.173043
H5    H     H_    0.698092 0.631388 0.871355 0.175630
H6    H     H_    0.682122 0.482462 0.139251 0.265218
H7    H     H_    0.689434 0.654727 0.118659 0.175533
H8    H     H_    0.916793 0.193491 0.430119 0.221212
H9    H     H_    0.077418 0.193349 0.438397 0.174643
H10   H     H_    0.220327 0.303348 0.465376 0.113488
H11   H     H_    0.228985 0.695680 0.531242 0.123338
H12   H     H_    0.093727 0.810643 0.523582 0.180441
N1    N     N_R   0.500570 0.500930 0.147930 -0.203072
N2    N     N_R   0.500570 0.500890 0.852020 -0.221116
O1    O     O_R   0.500000 0.319640 0.618810 -0.584036
O2    O     O_R   0.500010 0.319680 0.381230 -0.560357
O3    O     O_R   0.370250 0.499950 0.618800 -0.608323
O4    O     O_R   0.370260 0.499990 0.381220 -0.597533
O5    O     O_R   0.499990 0.680320 0.618770 -0.572737
O6    O     O_R   0.500000 0.680360 0.381190 -0.579387
O7    O     O_R   0.629740 0.500010 0.618780 -0.539817
O8    O     O_R   0.629750 0.500050 0.381200 -0.575833
C35   C     C_2   0.765900 0.715081 0.587879 0.324317
H13   H     H_    0.700740 0.737201 0.547985 0.038857
O9    O     O_2   0.795638 0.772043 0.687213 -0.525914
C36   C     C_2   0.397475 0.862196 0.274116 0.515702
H14   H     H_    0.346182 0.792425 0.298418 0.029482
O10   O     O_2   0.424474 0.874460 0.154222 -0.477406
C37   C     C_2   0.556101 0.115185 0.863189 0.510584
H15   H     H_    0.608823 0.121982 0.939774 0.115130
O11   O     O_2   0.480179 0.140204 0.896914 -0.505696
C38   C     C_2   0.363172 0.362816 0.863137 0.502744
H16   H     H_    0.373182 0.319594 0.763978 0.120343
O12   O     O_2   0.291500 0.344585 0.921930 -0.543128
Br1   Br    Br    0.701165 0.388506 0.875823 -0.463719
Br2   Br    Br    0.742203 0.243702 0.421868 -0.522315
C39   C     C_2   0.922424 0.853060 0.482293 0.472020
H17   H     H_    0.860187 0.860298 0.426265 0.060694
O13   O     O_2   0.960576 0.948247 0.519164 -0.544151
C40   C     C_2   0.379983 0.137249 0.290548 0.430701
H18   H     H_    0.350887 0.223443 0.322252 0.031106
O14   O     O_2   0.367461 0.102895 0.171483 -0.447571

loop_
_geom_bond_atom_site_label_1
_geom_bond_atom_site_label_2
_ccdc_geom_bond_type
C24   C25   A    
Cu1   O3    S    
C39   H17   S    
Cu1   Cu2   S    
C23   O6    A    
C32   Br2   S    
C26   C27   S    
C14   C21   S    
C40   O14   D    
Cu2   O8    S    
C26   N2    A    
C30   C31   A    
C16   C17   A    
C3    C33   A    
C15   C16   A    
C18   C19   A    
C25   N2    A    
C36   O10   D    
C19   C20   S    
C8    C9    A    
C37   O11   D    
C10   H10   S    
C1    C15   S    
C12   O3    A    
Cu2   O2    S    
C2    C34   A    
C35   H13   S    
C22   C28   S    
C39   O13   D    
C25   C38   S    
C9    C39   S    
C17   C18   A    
C4    H9    S    
C3    H8    S    
C35   O9    D    
Cu1   O5    S    
C18   C23   S    
C7    C8    A    
C40   H18   S    
C13   H11   S    
C38   H16   S    
C6    C34   A    
C8    H12   S    
C36   H14   S    
Cu2   O6    S    
C17   C36   S    
C20   H2    S    
C27   H5    S    
C31   C32   A    
C21   H3    S    
C30   C35   S    
Cu1   N2    S    
C33   C34   A    
C29   O8    A    
C1    O1    A    
C22   N1    A    
C29   O7    A    
Cu1   O1    S    
C3    C4    A    
C27   Br1   S    
C24   N1    A    
C21   C37   S    
C16   C40   S    
C14   C19   A    
C4    C5    A    
C11   C12   S    
C23   O5    A    
C6    C7    A    
C28   H7    S    
C2    C30   A    
Cu1   O7    S    
C32   C33   A    
C5    C10   A    
C29   C31   S    
C20   H1    S    
C11   C13   A    
C5    C6    A    
C28   H6    S    
C24   H4    S    
C1    O2    A    
Cu2   O4    S    
C10   C11   A    
C7    C13   A    
C20   C21   S    
C38   O12   D    
C37   H15   S    
C22   C26   A    
C27   C28   S    
C14   C15   A    
C2    C9    A    
C12   O4    A    
Cu2   N1    S    
