data_mof_unit_39073.cif
_audit_creation_date              2012-12-10T17:57:54-0500
_audit_creation_method            fapswitch 2.2
_symmetry_space_group_name_H-M    P1
_symmetry_Int_Tables_number       1
_space_group_crystal_system       triclinic
_cell_length_a                    10.913712
_cell_length_b                    9.524232
_cell_length_c                    15.07693
_cell_angle_alpha                 89.788388
_cell_angle_beta                  89.967457
_cell_angle_gamma                 89.799251
_cell_volume                      1567.14679445

loop_
_atom_site_label
_atom_site_type_symbol
_atom_type_description
_atom_site_fract_x
_atom_site_fract_y
_atom_site_fract_z
_atom_type_partial_charge
Br1   Br    Br    0.236874 0.503329 0.746388 -0.535498
Br2   Br    Br    0.763126 0.496671 0.253612 -0.535498
C1    C     C_R   0.262365 0.500022 0.499515 0.835572
C2    C     C_R   0.128348 0.499597 0.499335 -0.099757
C3    C     C_R   0.449774 0.074945 0.431191 0.009075
C4    C     C_R   0.550226 0.925055 0.568809 0.009075
C5    C     C_R   0.549628 0.073665 0.568992 0.018074
C6    C     C_R   0.450372 0.926335 0.431008 0.018073
C7    C     C_R   0.500055 0.499962 0.329128 0.878421
C8    C     C_R   0.499945 0.500038 0.670872 0.878422
C9    C     C_R   0.612205 0.509583 0.813062 -0.121506
C10   C     C_R   0.387795 0.490416 0.186938 -0.121506
C11   C     C_R   0.500333 0.500939 0.767296 -0.153621
C12   C     C_R   0.737635 0.499978 0.500485 0.835572
C13   C     C_R   0.499667 0.499061 0.232704 -0.153621
C14   C     C_R   0.388291 0.497637 0.812989 0.180912
C15   C     C_R   0.611709 0.502363 0.187011 0.180912
C16   C     C_R   0.387734 0.495677 0.906189 0.062898
C17   C     C_R   0.612266 0.504323 0.093811 0.062898
C18   C     C_R   0.500094 0.500575 0.953066 0.029116
C19   C     C_R   0.499906 0.499425 0.046934 0.029116
C20   C     C_R   0.612587 0.507861 0.906400 0.073550
C21   C     C_R   0.387413 0.492138 0.093600 0.073550
C22   C     C_R   0.277321 0.488831 0.953733 -0.145293
C23   C     C_R   0.277113 0.486790 0.045691 -0.187679
C24   C     C_R   0.722679 0.511169 0.046267 -0.145292
C25   C     C_1   0.725689 0.525271 0.763723 0.230373
C26   C     C_1   0.274311 0.474729 0.236277 0.230373
C27   C     C_1   0.128623 0.276761 0.588348 0.349636
C28   C     C_1   0.871376 0.723239 0.411652 0.349636
C29   C     C_1   0.873184 0.283419 0.594752 0.308125
C30   C     C_1   0.126816 0.716581 0.405248 0.308125
C31   C     C_R   0.722887 0.513210 0.954309 -0.187679
C32   C     C_R   0.064344 0.390208 0.542833 -0.061531
C33   C     C_R   0.935656 0.609792 0.457167 -0.061531
C34   C     C_R   0.936424 0.391453 0.544189 -0.057881
C35   C     C_R   0.063576 0.608546 0.455811 -0.057881
C36   C     C_R   0.871652 0.500403 0.500665 -0.099757
Cu1   Cu    Cu3+1 0.500000 0.640660 0.500000 1.006622
Cu2   Cu    Cu3+1 0.500000 0.359340 0.500000 1.006622
H1    H     H_    0.189496 0.484208 0.920837 0.197909
H2    H     H_    0.810504 0.515792 0.079163 0.197909
H3    H     H_    0.189207 0.481471 0.078814 0.169186
H4    H     H_    0.810793 0.518529 0.921186 0.169186
H5    H     H_    0.408873 0.130973 0.376123 0.137139
H6    H     H_    0.591127 0.869027 0.623877 0.137139
H7    H     H_    0.588607 0.128689 0.624672 0.150436
H8    H     H_    0.411393 0.871311 0.375327 0.150436
N1    N     N_R   0.500000 0.852070 0.500000 -0.173742
N2    N     N_R   0.500000 0.147930 0.500000 -0.173742
N3    N     N_1   0.816313 0.538954 0.724844 -0.270790
N4    N     N_1   0.183687 0.461046 0.275155 -0.270790
N5    N     N_1   0.179398 0.186256 0.624479 -0.226722
N6    N     N_1   0.820602 0.813744 0.375522 -0.226722
N7    N     N_1   0.824099 0.197185 0.635531 -0.290301
N8    N     N_1   0.175901 0.802814 0.364468 -0.290301
O1    O     O_R   0.319640 0.618740 0.499990 -0.570081
O2    O     O_R   0.680360 0.381260 0.500010 -0.570081
O3    O     O_R   0.680360 0.618740 0.500010 -0.581798
O4    O     O_R   0.319640 0.381260 0.499990 -0.581799
O5    O     O_R   0.499970 0.618800 0.370260 -0.579901
O6    O     O_R   0.500030 0.381200 0.629740 -0.579902
O7    O     O_R   0.500030 0.618800 0.629740 -0.580944
O8    O     O_R   0.499970 0.381200 0.370260 -0.580944

loop_
_geom_bond_atom_site_label_1
_geom_bond_atom_site_label_2
_ccdc_geom_bond_type
C3    C6    A    
C6    H8    S    
C4    C5    A    
C22   H1    S    
C12   C36   S    
C7    O8    A    
C28   N6    T    
C24   C31   A    
C32   C34   A    
C8    O7    A    
Cu2   O8    S    
C10   C13   A    
C9    C25   S    
Cu1   O3    S    
C1    O4    A    
C23   H3    S    
C34   C36   A    
C7    C13   S    
Cu2   O6    S    
Cu2   N2    S    
Br1   C14   S    
C30   C35   S    
C18   C19   A    
Br2   C15   S    
C12   O3    A    
C26   N4    T    
C10   C21   A    
C8    O6    A    
C27   N5    T    
C28   C33   S    
C10   C26   S    
C16   C22   A    
C6    N1    A    
Cu1   N1    S    
C25   N3    T    
C7    O5    A    
C16   C18   A    
C21   C23   A    
C4    N1    A    
C4    H6    S    
Cu1   O5    S    
C2    C32   A    
C3    N2    A    
Cu2   O2    S    
Cu1   Cu2   S    
C1    C2    S    
Cu1   O1    S    
C1    O1    A    
C9    C11   A    
C33   C36   A    
Cu1   O7    S    
C22   C23   A    
C24   H2    S    
C14   C16   A    
C11   C14   A    
C33   C35   A    
Cu2   O4    S    
C13   C15   A    
C17   C24   A    
C29   C34   S    
C15   C17   A    
C9    C20   A    
C29   N7    T    
C5    N2    A    
C31   H4    S    
C3    H5    S    
C27   C32   S    
C30   N8    T    
C19   C21   A    
C5    H7    S    
C12   O2    A    
C18   C20   A    
C2    C35   A    
C17   C19   A    
C8    C11   S    
C20   C31   A    
