data_mof_unit_30769.cif
_audit_creation_date              2013-03-05T16:45:56-0500
_audit_creation_method            fapswitch 2.2
_symmetry_space_group_name_H-M    P1
_symmetry_Int_Tables_number       1
_space_group_crystal_system       triclinic
_cell_length_a                    9.907557
_cell_length_b                    10.820894
_cell_length_c                    16.624377
_cell_angle_alpha                 87.882587
_cell_angle_beta                  96.497158
_cell_angle_gamma                 88.89107
_cell_volume                      1769.12359955

loop_
_atom_site_label
_atom_site_type_symbol
_atom_site_description
_atom_site_fract_x
_atom_site_fract_y
_atom_site_fract_z
_atom_type_partial_charge
O1    O     O_R   0.614690 0.316790 0.499990 -0.590000
O2    O     O_R   0.385350 0.316760 0.500000 -0.595158
C1    C     C_R   0.500194 0.260185 0.498041 0.876162
O3    O     O_R   0.627460 0.498860 0.616130 -0.610414
O4    O     O_R   0.398120 0.498820 0.616130 -0.607935
C2    C     C_R   0.519968 0.503138 0.653632 0.920070
Zn1   Zn    Zn3+2 0.653130 0.500020 0.499990 1.025028
Zn2   Zn    Zn3+2 0.346870 0.499980 0.500010 1.096666
O5    O     O_R   0.614650 0.683240 0.500000 -0.618335
O6    O     O_R   0.385310 0.683210 0.500010 -0.566890
O7    O     O_R   0.601880 0.501180 0.383870 -0.640684
O8    O     O_R   0.372540 0.501140 0.383870 -0.535492
C3    C     C_R   0.498572 0.739014 0.498273 0.980736
C4    C     C_R   0.481029 0.493387 0.345779 0.938965
C5    C     C_R   0.538279 0.517546 0.740799 -0.163512
C6    C     C_R   0.447430 0.591427 0.779095 0.193678
C7    C     C_R   0.466282 0.598515 0.863883 0.190969
C8    C     C_R   0.576166 0.532508 0.908173 0.212568
C9    C     C_R   0.670389 0.467291 0.869132 -0.150454
C10   C     C_R   0.651562 0.459981 0.785806 -0.270179
C11   C     C_R   0.609196 0.411613 0.149232 0.316539
C12   C     C_R   0.599923 0.431663 0.230643 -0.265309
C13   C     C_R   0.491379 0.428471 0.094031 0.171283
N1    N     N_2   0.580983 0.517189 0.992349 -0.077900
N2    N     N_2   0.496960 0.439536 0.010102 -0.124649
C14   C     C_R   0.475205 0.464573 0.258900 -0.220672
H1    H     H_    0.692157 0.420653 0.272121 0.234794
H2    H     H_    0.754456 0.416935 0.903772 0.208816
H3    H     H_    0.723383 0.406079 0.756519 0.171835
C15   C     C_R   0.355331 0.465991 0.203530 0.292500
C16   C     C_R   0.365969 0.449151 0.121579 -0.207902
H4    H     H_    0.275998 0.456777 0.077894 0.219296
C17   C     C_R   0.615635 0.056351 0.512682 -0.040065
C18   C     C_R   0.497542 0.128154 0.493590 -0.208469
C19   C     C_R   0.373564 0.065628 0.472299 0.276629
C20   C     C_R   0.373557 0.936582 0.476464 -0.186632
H5    H     H_    0.278916 0.889507 0.462112 0.235038
C21   C     C_R   0.495795 0.869535 0.494554 -0.113977
C22   C     C_R   0.614458 0.932940 0.508346 0.012250
C23   C     C_3   0.763743 0.912489 0.527072 0.046173
C24   C     C_3   0.767685 0.055396 0.534970 0.139565
H6    H     H_    0.811169 0.875339 0.475158 0.164887
C25   C     C_R   0.084341 0.485786 0.570510 0.256708
N3    N     N_R   0.142860 0.499130 0.500540 -0.160898
C26   C     C_R   0.055822 0.542386 0.433221 0.351656
C27   C     C_R   0.912582 0.532237 0.432311 -0.110785
H7    H     H_    0.845202 0.559029 0.378588 0.196543
N4    N     N_R   0.857210 0.499170 0.500530 -0.129560
C28   C     C_R   0.942950 0.492586 0.571173 0.294984
C29   C     C_3   0.948699 0.395992 0.637181 -0.480501
C30   C     C_3   0.100936 0.382136 0.632281 -0.467797
H8    H     H_    0.925056 0.435073 0.694947 0.222240
H9    H     H_    0.888204 0.316314 0.618189 0.237582
H10   H     H_    0.163479 0.406678 0.688880 0.237183
H11   H     H_    0.130673 0.293605 0.606481 0.226453
N5    N     N_R   0.800607 0.839163 0.602792 0.223600
O9    O     O_R   0.717767 0.829609 0.658114 -0.339601
O10   O     O_R   0.917768 0.781146 0.614458 -0.361495
C31   C     C_R   0.818648 0.091770 0.620770 0.094445
C32   C     C_R   0.957702 0.074442 0.648454 -0.058227
C33   C     C_R   0.006923 0.097982 0.728410 -0.096581
C34   C     C_R   0.917893 0.137440 0.782086 -0.070475
C35   C     C_R   0.779512 0.153336 0.755908 -0.135816
C36   C     C_R   0.729823 0.131748 0.675685 -0.116470
H12   H     H_    0.027758 0.041538 0.608114 0.191879
H13   H     H_    0.114063 0.084876 0.748851 0.167270
H14   H     H_    0.955982 0.155016 0.844119 0.169888
H15   H     H_    0.710417 0.182173 0.797975 0.160627
H16   H     H_    0.622020 0.144272 0.657616 0.128541
N6    N     N_R   0.834904 0.118246 0.470877 0.243959
O11   O     O_R   0.816708 0.081021 0.396910 -0.310806
O12   O     O_R   0.894727 0.222644 0.483902 -0.364457
N7    N     N_R   0.102781 0.613544 0.367616 0.240982
O13   O     O_R   0.202336 0.688355 0.382061 -0.364150
O14   O     O_R   0.020379 0.635850 0.301769 -0.296706
N8    N     N_R   0.737493 0.374892 0.123360 0.234619
O15   O     O_R   0.741298 0.305595 0.061279 -0.356620
O16   O     O_R   0.851049 0.399713 0.166435 -0.272372
N9    N     N_R   0.222532 0.484187 0.227320 0.248259
O17   O     O_R   0.133004 0.548655 0.178883 -0.262526
O18   O     O_R   0.179527 0.405857 0.279230 -0.270227
N10   N     N_R   0.376333 0.672635 0.905542 0.229202
O19   O     O_R   0.424863 0.738332 0.965690 -0.320201
O20   O     O_R   0.245297 0.666351 0.888677 -0.294631
N11   N     N_R   0.345491 0.667557 0.731794 0.241056
O21   O     O_R   0.381596 0.757237 0.685127 -0.360199
O22   O     O_R   0.218269 0.638320 0.727518 -0.327851
N12   N     N_R   0.249330 0.129450 0.441702 0.233638
O23   O     O_R   0.246390 0.201989 0.377436 -0.284050
O24   O     O_R   0.135254 0.091765 0.464409 -0.348130

loop_
_geom_bond_atom_site_label_1
_geom_bond_atom_site_label_2
_geom_bond_distance
_ccdc_geom_bond_type
N7    O13   1.295195 A    
C19   C20   1.395555 A    
N11   O21   1.300830 A    
Zn1   O7    1.939239 S    
C11   N8    1.440634 S    
C31   C36   1.411140 A    
C17   C22   1.340224 A    
C34   H14   1.082256 S    
C8    N1    1.398381 S    
C20   H5    1.082801 S    
N8    O16   1.301653 A    
C7    N10   1.438798 S    
O4    C2    1.297016 A    
O7    C4    1.295367 A    
C25   C28   1.402655 A    
C5    C6    1.412114 A    
N5    O9    1.302775 A    
C26   N7    1.437187 S    
C18   C19   1.429434 A    
C28   C29   1.482816 S    
O5    C3    1.285328 A    
C2    C5    1.454455 S    
C27   H7    1.079731 S    
C33   H13   1.082286 S    
C9    C10   1.382093 A    
N5    O10   1.300387 A    
C6    C7    1.405902 A    
C23   N5    1.469178 S    
C29   H8    1.110411 S    
N6    O11   1.302327 A    
C23   H6    1.112343 S    
C31   C32   1.408934 A    
C11   C12   1.391496 A    
N7    O14   1.301407 A    
O3    Zn1   1.975377 S    
C29   C30   1.524475 S    
C10   H3    1.080237 S    
N11   O22   1.300275 A    
C5    C10   1.398560 A    
C27   N4    1.354096 A    
C29   H9    1.095250 S    
C21   C22   1.373799 A    
N1    N2    1.245195 D    
C24   C31   1.526634 S    
O3    C2    1.294405 A    
C22   C23   1.487121 S    
N9    O18   1.299158 A    
C8    C9    1.391458 A    
C1    C18   1.433932 S    
C26   C27   1.423941 A    
C4    C14   1.483809 S    
N9    O17   1.301813 A    
C32   C33   1.397386 A    
O1    C1    1.297330 A    
C13   C16   1.388976 A    
C25   N3    1.361438 A    
C34   C35   1.396058 A    
C19   N12   1.431823 S    
C16   H4    1.083991 S    
Zn2   O8    1.975377 S    
C7    C8    1.409657 A    
C36   H16   1.080800 S    
N8    O15   1.301434 A    
C9    H2    1.083032 S    
C3    C21   1.411018 S    
C15   N9    1.428210 S    
N4    C28   1.368059 A    
O8    C4    1.310655 A    
C32   H12   1.082442 S    
C14   C15   1.417363 A    
N10   O20   1.300431 A    
C12   H1    1.082522 S    
C11   C13   1.405318 A    
C6    N11   1.434296 S    
N3    C26   1.393706 A    
Zn1   O5    2.011677 S    
C35   H15   1.082243 S    
C23   C24   1.557637 S    
O1    Zn1   2.026184 S    
O2    Zn2   2.011678 S    
Zn2   N3    2.022454 S    
N12   O24   1.299688 A    
O6    C3    1.287229 A    
O4    Zn2   1.939239 S    
C30   H10   1.110274 S    
C17   C24   1.509823 S    
Zn1   N4    2.020780 S    
C20   C21   1.396765 A    
O2    C1    1.285843 A    
C25   C30   1.486282 S    
C15   C16   1.396603 A    
C17   C18   1.391369 A    
C30   H11   1.112000 S    
C13   N2    1.403399 S    
C33   C34   1.395814 A    
C35   C36   1.398023 A    
N12   O23   1.299438 A    
Zn2   O6    2.026183 S    
N10   O19   1.301296 A    
C12   C14   1.414576 A    
N6    O12   1.299729 A    
C24   N6    1.471708 S    
