data_mof_unit_25609.cif
_audit_creation_date              2012-12-11T15:41:25-0500
_audit_creation_method            fapswitch 2.2
_symmetry_space_group_name_H-M    P1
_symmetry_Int_Tables_number       1
_space_group_crystal_system       triclinic
_cell_length_a                    19.136003
_cell_length_b                    10.981515
_cell_length_c                    18.864301
_cell_angle_alpha                 89.47992
_cell_angle_beta                  90.273701
_cell_angle_gamma                 90.488368
_cell_volume                      3963.8365865

loop_
_atom_site_label
_atom_site_type_symbol
_atom_type_description
_atom_site_fract_x
_atom_site_fract_y
_atom_site_fract_z
_atom_type_partial_charge
C1    C     C_R   0.725894 0.956286 0.854258 0.581937
C2    C     C_R   0.312244 0.400478 0.030134 -0.007057
C3    C     C_R   0.760901 0.860573 0.354222 0.535891
C4    C     C_2   0.493330 0.162792 0.912661 -0.095552
C5    C     C_2   0.515352 0.179593 0.091060 -0.134540
C6    C     C_2   0.993327 0.662795 0.912658 -0.095540
C7    C     C_2   0.015352 0.679602 0.091062 -0.134561
C8    C     C_2   0.500313 0.111043 0.035499 -0.057958
C9    C     C_2   0.534449 0.143250 0.969336 -0.034464
C10   C     C_2   0.000307 0.611066 0.035498 -0.057931
C11   C     C_2   0.034444 0.643270 0.969335 -0.034431
C12   C     C_R   0.751868 0.410895 0.076591 -0.034433
C13   C     C_R   0.194216 0.951353 0.963715 0.018429
C14   C     C_R   0.238148 0.419331 0.927506 0.006835
C15   C     C_R   0.251869 0.910898 0.076591 -0.034419
C16   C     C_R   0.738150 0.919323 0.927505 0.006817
C17   C     C_2   0.443145 0.019796 0.036390 0.242647
C18   C     C_2   0.612228 0.163431 0.970419 0.219341
C19   C     C_2   0.943125 0.519846 0.036389 0.242762
C20   C     C_2   0.112222 0.663470 0.970417 0.219330
C21   C     C_3   0.512478 0.525520 0.361114 -0.284597
C22   C     C_3   0.390789 0.228792 0.566098 -0.282482
C23   C     C_3   0.012478 0.025520 0.361113 -0.284597
C24   C     C_R   0.812243 0.900524 0.030141 -0.007042
C25   C     C_3   0.890792 0.728789 0.566103 -0.282487
C26   C     C_3   0.907667 0.381515 0.888741 -0.260103
C27   C     C_3   0.123092 0.498329 0.148635 -0.258746
C28   C     C_3   0.407674 0.881423 0.888748 -0.260150
C29   C     C_3   0.623056 0.998245 0.148628 -0.258714
C30   C     C_R   0.805576 0.346954 0.967014 0.131463
C31   C     C_R   0.187122 0.414353 0.046463 0.088276
C32   C     C_R   0.305572 0.846927 0.967018 0.131450
C33   C     C_R   0.687113 0.914313 0.046457 0.088271
C34   C     C_R   0.799930 0.339075 0.040670 -0.128387
C35   C     C_R   0.179559 0.411041 0.972635 -0.123589
C36   C     C_R   0.299926 0.839064 0.040674 -0.128395
C37   C     C_R   0.272967 0.956633 0.146202 0.540408
C38   C     C_R   0.679558 0.910995 0.972629 -0.123626
C39   C     C_3   0.669024 0.587925 0.035344 -0.240469
C40   C     C_3   0.370411 0.474911 0.946291 -0.281549
C41   C     C_3   0.169039 0.087946 0.035339 -0.240454
C42   C     C_3   0.870397 0.975009 0.946305 -0.281539
C43   C     C_3   0.665343 0.576719 0.955440 -0.288219
C44   C     C_3   0.378903 0.472575 0.026515 -0.258572
C45   C     C_3   0.165359 0.076736 0.955434 -0.288211
C46   C     C_3   0.878883 0.972680 0.026529 -0.258579
C47   C     C_R   0.749960 0.400677 0.926734 0.037180
C48   C     C_R   0.225894 0.456285 0.854258 0.581932
C49   C     C_R   0.254896 0.410650 0.075792 0.033398
C50   C     C_R   0.249962 0.900668 0.926735 0.037187
C51   C     C_R   0.754887 0.910655 0.075794 0.033381
C52   C     C_R   0.513983 0.176633 0.418414 -0.009932
C53   C     C_R   0.553025 0.177170 0.561748 0.005740
C54   C     C_R   0.013983 0.676633 0.418414 -0.009935
C55   C     C_R   0.053025 0.677170 0.561748 0.005742
C56   C     C_R   0.523931 0.287430 0.454591 0.043615
C57   C     C_R   0.537039 0.284096 0.525890 0.025113
C58   C     C_R   0.023931 0.787430 0.454591 0.043613
C59   C     C_R   0.772967 0.456632 0.146202 0.540389
C60   C     C_R   0.037039 0.784096 0.525890 0.025114
C61   C     C_R   0.557569 0.069476 0.522430 -0.169868
C62   C     C_R   0.536543 0.068253 0.450958 -0.178606
C63   C     C_R   0.057569 0.569476 0.522430 -0.169866
C64   C     C_R   0.036543 0.568253 0.450958 -0.178606
C65   C     C_R   0.524404 0.176456 0.844685 0.593517
C66   C     C_R   0.472473 0.179554 0.152781 0.547905
C67   C     C_R   0.024402 0.676456 0.844683 0.593502
C68   C     C_R   0.972476 0.679555 0.152784 0.547871
C69   C     C_3   0.476311 0.396565 0.462754 0.042449
C70   C     C_R   0.696945 0.461622 0.037094 -0.016800
C71   C     C_3   0.487001 0.384274 0.542323 0.035520
C72   C     C_3   0.976311 0.896565 0.462754 0.042449
C73   C     C_3   0.987001 0.884274 0.542323 0.035520
C74   C     C_R   0.754726 0.405795 0.421633 0.011867
C75   C     C_R   0.248523 0.419770 0.576747 0.023253
C76   C     C_R   0.254726 0.905795 0.421633 0.011867
C77   C     C_R   0.748523 0.919771 0.576747 0.023251
C78   C     C_R   0.807065 0.349423 0.462063 0.023026
C79   C     C_R   0.218202 0.318540 0.544460 0.001148
C80   C     C_R   0.307065 0.849421 0.462063 0.023026
C81   C     C_R   0.304140 0.406420 0.957425 -0.031304
C82   C     C_R   0.718202 0.818540 0.544460 0.001148
C83   C     C_R   0.801508 0.338967 0.534053 0.025380
C84   C     C_R   0.218741 0.308600 0.472261 0.035672
C85   C     C_R   0.301507 0.838965 0.534053 0.025380
C86   C     C_R   0.718741 0.808601 0.472261 0.035675
C87   C     C_R   0.686745 0.425142 0.528944 -0.161072
C88   C     C_R   0.293409 0.483899 0.460686 -0.167289
C89   C     C_R   0.186745 0.925143 0.528944 -0.161072
C90   C     C_R   0.793409 0.983899 0.460686 -0.167287
C91   C     C_R   0.691473 0.432536 0.454769 -0.165035
C92   C     C_R   0.196950 0.961636 0.037092 -0.016805
C93   C     C_R   0.290640 0.498331 0.534567 -0.124351
C94   C     C_R   0.191473 0.932537 0.454769 -0.165034
C95   C     C_R   0.790640 0.998332 0.534567 -0.124353
C96   C     C_3   0.884334 0.372488 0.466935 -0.260283
C97   C     C_3   0.149041 0.254864 0.550553 -0.276027
C98   C     C_3   0.384334 0.872484 0.466934 -0.260284
C99   C     C_3   0.649041 0.754863 0.550553 -0.276027
C100  C     C_3   0.877718 0.358521 0.546525 -0.279857
C101  C     C_3   0.147462 0.252901 0.469974 -0.259465
C102  C     C_3   0.377718 0.858516 0.546525 -0.279856
C103  C     C_R   0.804144 0.906458 0.957430 -0.031295
C104  C     C_3   0.647462 0.752900 0.469973 -0.259466
C105  C     C_R   0.744475 0.386244 0.569677 0.012487
C106  C     C_R   0.252839 0.392766 0.428287 0.016047
C107  C     C_R   0.244475 0.886243 0.569677 0.012487
C108  C     C_R   0.752839 0.892767 0.428287 0.016050
C109  C     C_R   0.738858 0.363067 0.853035 0.589512
C110  C     C_R   0.263082 0.362243 0.146707 0.545113
C111  C     C_R   0.238858 0.863064 0.853036 0.589514
C112  C     C_R   0.763077 0.862253 0.146709 0.545091
C113  C     C_R   0.727393 0.957402 0.646987 0.532329
C114  C     C_R   0.694210 0.451343 0.963716 0.018458
C115  C     C_R   0.272662 0.954515 0.352244 0.537267
C116  C     C_R   0.227393 0.457401 0.646987 0.532328
C117  C     C_R   0.772663 0.454515 0.352244 0.537273
C118  C     C_R   0.564058 0.181593 0.637834 0.560866
C119  C     C_R   0.471560 0.177443 0.354399 0.524972
C120  C     C_R   0.064058 0.681593 0.637834 0.560863
C121  C     C_R   0.971560 0.677443 0.354399 0.524975
C122  C     C_R   0.738031 0.357490 0.644585 0.525838
C123  C     C_R   0.260901 0.360573 0.354223 0.535892
C124  C     C_R   0.238030 0.857490 0.644585 0.525839
Cr1   Cr    Cr6+3 0.769260 0.163750 0.750730 1.018956
Cr2   Cr    Cr6+3 0.385810 0.322400 0.252290 0.985293
Cr3   Cr    Cr6+3 0.114190 0.822400 0.747710 1.016156
Cr4   Cr    Cr6+3 0.885810 0.822400 0.252290 0.985294
Cr5   Cr    Cr6+3 0.230740 0.163750 0.249270 1.005296
Cr6   Cr    Cr6+3 0.269260 0.663750 0.750730 1.018959
Cr7   Cr    Cr6+3 0.730740 0.663750 0.249270 1.005289
Cr8   Cr    Cr6+3 0.612640 0.009910 0.748780 1.008226
Cr9   Cr    Cr6+3 0.387360 0.009910 0.251220 1.031221
Cr10  Cr    Cr6+3 0.112640 0.509910 0.748780 1.008227
Cr11  Cr    Cr6+3 0.887360 0.509910 0.251220 1.031194
Cr12  Cr    Cr6+3 0.614190 0.322400 0.747710 1.016153
H1    H     H_    0.921612 0.883043 0.444566 0.179904
H2    H     H_    0.317694 0.575355 0.557727 0.146457
H3    H     H_    0.147864 0.965638 0.423958 0.149722
H4    H     H_    0.817694 0.075355 0.557727 0.146456
H5    H     H_    0.899062 0.466622 0.450511 0.162081
H6    H     H_    0.106654 0.308058 0.574261 0.148594
H7    H     H_    0.399062 0.966617 0.450511 0.162082
H8    H     H_    0.606654 0.808057 0.574261 0.148593
H9    H     H_    0.915184 0.298816 0.442320 0.128012
H10   H     H_    0.154829 0.163149 0.574848 0.133500
H11   H     H_    0.415183 0.798811 0.442319 0.128012
H12   H     H_    0.012840 0.964388 0.567344 0.127886
H13   H     H_    0.654829 0.663149 0.574848 0.133501
H14   H     H_    0.903545 0.275391 0.567676 0.134643
H15   H     H_    0.147239 0.160935 0.447440 0.162762
H16   H     H_    0.403544 0.775385 0.567675 0.134642
H17   H     H_    0.647239 0.660935 0.447440 0.162763
H18   H     H_    0.889329 0.443472 0.575987 0.131786
H19   H     H_    0.108122 0.315232 0.446466 0.127880
H20   H     H_    0.389330 0.943467 0.575987 0.131787
H21   H     H_    0.608122 0.815231 0.446466 0.127879
H22   H     H_    0.552644 0.254644 0.086136 0.078518
H23   H     H_    0.421611 0.383045 0.444566 0.179901
H24   H     H_    0.436710 0.159544 0.915846 0.023020
H25   H     H_    0.052648 0.754649 0.086142 0.078511
H26   H     H_    0.936707 0.659536 0.915842 0.023030
H27   H     H_    0.840674 0.292512 0.069930 0.173847
H28   H     H_    0.127119 0.413507 0.950773 0.149040
H29   H     H_    0.340667 0.792496 0.069936 0.173839
H30   H     H_    0.627119 0.913434 0.950763 0.149009
H31   H     H_    0.208323 0.156377 0.052742 0.174637
H32   H     H_    0.861532 0.066496 0.923228 0.184973
H33   H     H_    0.708304 0.656362 0.052749 0.174656
H34   H     H_    0.512840 0.464387 0.567345 0.127886
H35   H     H_    0.361572 0.566406 0.923214 0.184936
H36   H     H_    0.616859 0.594200 0.060641 0.153917
H37   H     H_    0.410013 0.419499 0.918551 0.138485
H38   H     H_    0.116874 0.094236 0.060634 0.153922
H39   H     H_    0.910020 0.919633 0.918568 0.138483
H40   H     H_    0.610928 0.575397 0.934543 0.149732
H41   H     H_    0.424657 0.418609 0.044533 0.160417
H42   H     H_    0.110944 0.075425 0.934536 0.149736
H43   H     H_    0.924652 0.918753 0.044552 0.160414
H44   H     H_    0.701579 0.639925 0.927069 0.126659
H45   H     H_    0.638772 0.451327 0.554290 0.130778
H46   H     H_    0.374290 0.563741 0.051132 0.133644
H47   H     H_    0.201601 0.139932 0.927063 0.126660
H48   H     H_    0.874240 0.063843 0.051146 0.133638
H49   H     H_    0.570957 0.985694 0.548401 0.135856
H50   H     H_    0.532220 0.982467 0.423468 0.120699
H51   H     H_    0.070956 0.485694 0.548401 0.135856
H52   H     H_    0.032220 0.482467 0.423468 0.120701
H53   H     H_    0.393782 0.040046 0.010728 0.102464
H54   H     H_    0.640266 0.164785 0.020233 0.100667
H55   H     H_    0.893722 0.540197 0.010811 0.102406
H56   H     H_    0.325266 0.545520 0.429106 0.121501
H57   H     H_    0.140259 0.664867 0.020230 0.100665
H58   H     H_    0.486898 0.585659 0.461051 0.238083
H59   H     H_    0.537463 0.614895 0.348937 0.121313
H60   H     H_    0.459581 0.523721 0.336574 0.164473
H61   H     H_    0.545753 0.453677 0.338224 0.177740
H62   H     H_    0.423033 0.369950 0.632581 0.271457
H63   H     H_    0.339121 0.224458 0.592112 0.140511
H64   H     H_    0.421779 0.154196 0.589791 0.153359
H65   H     H_    0.383264 0.213769 0.508500 0.144334
H66   H     H_    0.986897 0.085659 0.461050 0.238083
H67   H     H_    0.138772 0.951327 0.554290 0.130777
H68   H     H_    0.037462 0.114894 0.348936 0.121314
H69   H     H_    0.959580 0.023720 0.336574 0.164474
H70   H     H_    0.045753 0.953677 0.338224 0.177740
H71   H     H_    0.923030 0.869960 0.632579 0.271454
H72   H     H_    0.839121 0.724460 0.592107 0.140513
H73   H     H_    0.921779 0.654202 0.589808 0.153362
H74   H     H_    0.883278 0.713750 0.508506 0.144334
H75   H     H_    0.899366 0.248607 0.967809 0.250347
H76   H     H_    0.959915 0.400840 0.912027 0.140975
H77   H     H_    0.880432 0.468950 0.878650 0.118749
H78   H     H_    0.825266 0.045520 0.429106 0.121501
H79   H     H_    0.916235 0.335708 0.837366 0.159483
H80   H     H_    0.079759 0.401988 0.063277 0.287648
H81   H     H_    0.070138 0.495604 0.171870 0.172512
H82   H     H_    0.136904 0.591665 0.130892 0.103973
H83   H     H_    0.158483 0.474938 0.192886 0.163106
H84   H     H_    0.399344 0.748531 0.967820 0.250277
H85   H     H_    0.459919 0.900737 0.912041 0.140878
H86   H     H_    0.380451 0.968865 0.878643 0.118768
H87   H     H_    0.416245 0.835598 0.837380 0.159500
H88   H     H_    0.579744 0.901913 0.063253 0.287597
H89   H     H_    0.647864 0.465637 0.423958 0.149722
H90   H     H_    0.570089 0.995530 0.171840 0.172568
H91   H     H_    0.636888 0.091580 0.130900 0.103963
H92   H     H_    0.658423 0.974834 0.192897 0.163116
N1    N     N_2   0.507449 0.509938 0.437053 -0.564619
N2    N     N_2   0.423508 0.346236 0.579842 -0.523211
N3    N     N_2   0.007449 0.009938 0.437052 -0.564619
N4    N     N_2   0.923508 0.846238 0.579841 -0.523212
N5    N     N_2   0.867968 0.301078 0.935353 -0.491265
N6    N     N_2   0.126174 0.412831 0.090211 -0.492903
N7    N     N_2   0.367956 0.801015 0.935360 -0.491269
N8    N     N_2   0.626157 0.912759 0.090198 -0.492877
O1    O     O_R   0.784290 0.290360 0.830540 -0.485027
O2    O     O_R   0.456020 0.282110 0.333230 -0.540076
O3    O     O_R   0.043980 0.782110 0.666770 -0.535403
O4    O     O_R   0.956020 0.782110 0.333230 -0.540075
O5    O     O_R   0.679070 0.374030 0.674430 -0.534547
O6    O     O_R   0.320930 0.374030 0.325570 -0.516399
O7    O     O_R   0.179070 0.874030 0.674430 -0.534547
O8    O     O_R   0.820930 0.874030 0.325570 -0.516397
O9    O     O_3   0.665360 0.165350 0.749070 -0.245599
O10   O     O_3   0.334640 0.165350 0.250930 -0.249992
O11   O     O_3   0.165360 0.665350 0.749070 -0.245599
O12   O     O_R   0.215710 0.290360 0.169460 -0.497685
O13   O     O_3   0.834640 0.665350 0.250930 -0.249983
O14   O     O_R   0.762610 0.041070 0.825230 -0.477401
O15   O     O_R   0.237390 0.041070 0.174770 -0.506073
O16   O     O_R   0.262610 0.541070 0.825230 -0.477389
O17   O     O_R   0.737390 0.541070 0.174770 -0.506062
O18   O     O_R   0.667390 0.924160 0.829970 -0.523630
O19   O     O_R   0.332610 0.924160 0.170030 -0.488826
O20   O     O_R   0.167390 0.424160 0.829970 -0.523629
O21   O     O_R   0.832610 0.424160 0.170030 -0.488884
O22   O     O_R   0.553980 0.081420 0.821780 -0.476663
O23   O     O_R   0.284290 0.790360 0.830540 -0.485018
O24   O     O_R   0.446020 0.081420 0.178220 -0.458453
O25   O     O_R   0.053980 0.581420 0.821780 -0.476666
O26   O     O_R   0.946020 0.581420 0.178220 -0.458523
O27   O     O_R   0.543210 0.283170 0.826740 -0.491456
O28   O     O_R   0.456790 0.283170 0.173260 -0.533309
O29   O     O_R   0.043210 0.783170 0.826740 -0.491451
O30   O     O_R   0.956790 0.783170 0.173260 -0.533293
O31   O     O_R   0.678350 0.375000 0.822720 -0.472878
O32   O     O_R   0.321650 0.375000 0.177280 -0.507593
O33   O     O_R   0.178350 0.875000 0.822720 -0.472876
O34   O     O_R   0.715710 0.790360 0.169460 -0.497696
O35   O     O_R   0.821650 0.875000 0.177280 -0.507579
O36   O     O_R   0.785060 0.289300 0.670580 -0.527035
O37   O     O_R   0.214940 0.289300 0.329420 -0.521892
O38   O     O_R   0.285060 0.789300 0.670580 -0.527037
O39   O     O_R   0.714940 0.789300 0.329420 -0.521901
O40   O     O_R   0.763330 0.040090 0.676940 -0.517582
O41   O     O_R   0.236670 0.040090 0.323060 -0.509646
O42   O     O_R   0.263330 0.540090 0.676940 -0.517584
O43   O     O_R   0.736670 0.540090 0.323060 -0.509642
O44   O     O_R   0.668160 0.923110 0.670000 -0.537844
O45   O     O_R   0.554690 0.080440 0.673480 -0.524573
O46   O     O_R   0.331840 0.923110 0.330000 -0.522384
O47   O     O_R   0.168160 0.423110 0.670000 -0.537844
O48   O     O_R   0.831840 0.423110 0.330000 -0.522381
O49   O     O_2   0.451354 0.921898 0.066157 -0.528371
O50   O     O_2   0.646516 0.176631 0.916690 -0.472769
O51   O     O_2   0.951365 0.421867 0.066070 -0.528457
O52   O     O_2   0.146512 0.676634 0.916688 -0.472771
O53   O     O_R   0.445310 0.080440 0.326520 -0.513843
O54   O     O_R   0.054690 0.580440 0.673480 -0.524576
O55   O     O_R   0.945310 0.580440 0.326520 -0.513837
O56   O     O_R   0.543980 0.282110 0.666770 -0.535406

loop_
_geom_bond_atom_site_label_1
_geom_bond_atom_site_label_2
_ccdc_geom_bond_type
C41   H38   S    
C72   N3    S    
C87   C91   A    
Cr2   O10   S    
C104  H21   S    
C90   C95   A    
Cr3   O3    S    
C96   H9    S    
C99   H13   S    
Cr12  O31   S    
C67   O29   A    
Cr8   O9    S    
C101  H19   S    
C58   C60   A    
C56   C57   A    
C88   H56   S    
C20   O52   D    
C89   C94   A    
C76   C94   A    
C7    C68   S    
Cr1   O9    S    
C78   C96   S    
Cr8   O18   S    
Cr9   O10   S    
C24   C51   A    
Cr8   O45   S    
C94   H3    S    
C107  C124  S    
C77   C113  S    
C113  O40   A    
C115  O46   A    
C31   N6    S    
C11   C20   S    
C73   H12   S    
C121  O55   A    
C22   H63   S    
C6    C11   D    
Cr8   O22   S    
C100  H14   S    
C98   C102  S    
C101  H15   S    
C83   C105  A    
C26   H79   S    
Cr9   O53   S    
C48   O16   A    
C22   N2    S    
C71   H34   S    
C57   C71   S    
C33   N8    S    
C83   C100  S    
Cr4   O8    S    
C33   C51   A    
Cr2   O2    S    
C90   H78   S    
C1    O18   A    
C75   C93   A    
C18   H54   S    
Cr3   O29   S    
C22   H65   S    
C46   H43   S    
C79   C97   S    
C86   C108  A    
Cr11  O48   S    
C33   C38   A    
C21   H61   S    
C72   C73   S    
C5    C8    D    
Cr6   O11   S    
Cr7   O17   S    
C119  O2    A    
C18   O50   D    
Cr4   O13   S    
C24   C46   S    
C119  O53   A    
C116  O42   A    
C39   H33   S    
C8    C17   S    
C13   C45   S    
C77   C82   A    
C30   N5    S    
C97   H6    S    
C120  O3    A    
C27   H82   S    
C28   H86   S    
C5    H22   S    
C41   C45   S    
C116  O47   A    
C26   H76   S    
C14   C81   A    
C75   C79   A    
C40   H35   S    
C23   N3    S    
C19   H55   S    
H66   N3    S    
C47   C114  A    
Cr5   O15   S    
C25   N4    S    
C59   O17   A    
C86   C104  S    
C42   C103  S    
Cr9   O19   S    
C68   O26   A    
C7    H25   S    
Cr12  O5    S    
C26   H77   S    
C32   C36   A    
C66   O24   A    
C79   C84   A    
C98   H11   S    
C88   C106  A    
C46   H48   S    
C15   C37   S    
C53   C61   A    
Cr9   O24   S    
C2    C44   S    
C55   C63   A    
Cr2   O6    S    
C104  H17   S    
C25   H72   S    
C62   H50   S    
C21   H60   S    
C23   H69   S    
Cr12  O27   S    
Cr2   O32   S    
C29   H90   S    
C112  O35   A    
C67   O25   A    
C122  O5    A    
Cr8   O44   S    
C30   C34   A    
Cr3   O7    S    
C53   C118  S    
C14   C48   S    
C47   C109  S    
H75   N5    S    
C69   N1    S    
C87   C105  A    
C61   H49   S    
C113  O44   A    
C64   H52   S    
C45   H42   S    
C6    C67   S    
C54   C121  S    
Cr10  O25   S    
C63   H51   S    
C102  H20   S    
C20   H57   S    
C100  H18   S    
C12   C70   A    
C68   O30   A    
C76   C80   A    
C5    C66   S    
C2    C81   A    
C87   H45   S    
C3    O39   A    
C3    C108  S    
C23   H68   S    
C24   C103  A    
C117  O48   A    
C90   C108  A    
C52   C62   A    
Cr7   O34   S    
C54   C64   A    
C96   C100  S    
C36   H29   S    
C69   H23   S    
C105  C122  S    
C3    O8    A    
C25   H74   S    
C10   C11   S    
C13   C50   A    
C52   C119  S    
C9    C18   S    
C40   C44   S    
Cr11  O26   S    
C56   C69   S    
Cr3   O33   S    
Cr4   O30   S    
C29   H92   S    
C4    C9    D    
Cr5   O12   S    
C85   C102  S    
Cr7   O13   S    
C102  H16   S    
C49   C110  S    
C7    C10   D    
C27   H83   S    
C51   C112  S    
H80   N6    S    
C82   C99   S    
C15   C36   A    
H84   N7    S    
Cr5   O37   S    
C120  O54   A    
C109  O31   A    
C110  O32   A    
C22   H64   S    
C31   C49   A    
C43   C114  S    
H71   N4    S    
Cr9   O46   S    
C60   C73   S    
C76   C115  S    
C42   C46   S    
C93   H2    S    
C27   N6    S    
C96   H5    S    
C12   C59   S    
C78   C83   A    
C84   C106  A    
Cr6   O38   S    
Cr7   O43   S    
C122  O36   A    
Cr5   O10   S    
C99   C104  S    
C55   C60   A    
H58   N1    S    
C118  O56   A    
C65   O27   A    
Cr11  O13   S    
C66   O28   A    
C111  O23   A    
C42   H32   S    
C55   C120  S    
C43   H44   S    
Cr11  O21   S    
Cr1   O36   S    
C99   H8    S    
C118  O45   A    
Cr12  O56   S    
C112  O34   A    
C53   C57   A    
C82   C86   A    
C74   C91   A    
C80   C85   A    
C43   H40   S    
C16   C103  A    
C10   C19   S    
C21   N1    S    
C89   C107  A    
Cr2   O28   S    
C1    C16   S    
C21   H59   S    
C124  O7    A    
Cr1   O40   S    
C27   H81   S    
C13   C92   A    
C31   C35   A    
Cr3   O11   S    
C111  O33   A    
C12   C34   A    
C44   H46   S    
Cr10  O11   S    
Cr1   O1    S    
C45   H47   S    
C110  O12   A    
C38   H30   S    
C80   C98   S    
Cr10  O54   S    
Cr6   O16   S    
Cr4   O4    S    
C121  O4    A    
C35   H28   S    
C65   O22   A    
H88   N8    S    
Cr10  O20   S    
C37   O15   A    
C40   H37   S    
C74   C78   A    
C59   O21   A    
C75   C116  S    
C32   N7    S    
C98   H7    S    
C97   H10   S    
Cr6   O23   S    
C70   C114  A    
C95   H4    S    
C39   H36   S    
Cr1   O14   S    
C42   H39   S    
C4    C65   S    
C69   C71   S    
C50   C111  S    
C15   C92   A    
C124  O38   A    
C71   N2    S    
C6    H26   S    
C8    C9    S    
C37   O19   A    
C106  C123  S    
Cr5   O41   S    
C48   O20   A    
C115  O41   A    
C91   H89   S    
C84   C101  S    
C61   C62   A    
C30   C47   A    
C34   H27   S    
C14   C35   A    
C1    O14   A    
C28   H85   S    
C39   C43   S    
C17   H53   S    
C77   C95   A    
C63   C64   A    
Cr6   O42   S    
C29   N8    S    
Cr7   O39   S    
C2    C49   A    
C17   O49   D    
C19   O51   D    
C25   H73   S    
C32   C50   A    
C26   N5    S    
C72   H1    S    
C89   H67   S    
C23   H70   S    
Cr4   O35   S    
C29   H91   S    
C54   C58   A    
C74   C117  S    
C88   C93   A    
C40   C81   S    
C44   H41   S    
H62   N2    S    
C109  O1    A    
Cr10  O47   S    
C117  O43   A    
C58   C72   S    
C4    H24   S    
C28   H87   S    
C41   H31   S    
C39   C70   S    
Cr12  O9    S    
C73   N4    S    
C28   N7    S    
C123  O37   A    
C41   C92   S    
C85   C107  A    
Cr11  O55   S    
C123  O6    A    
C97   C101  S    
C52   C56   A    
C16   C38   A    
