data_mof_unit_63165.cif
_audit_creation_date              2013-03-05T15:45:59-0500
_audit_creation_method            fapswitch 2.2
_symmetry_space_group_name_H-M    P1
_symmetry_Int_Tables_number       1
_space_group_crystal_system       triclinic
_cell_length_a                    8.226126
_cell_length_b                    15.098641
_cell_length_c                    18.985035
_cell_angle_alpha                 97.119895
_cell_angle_beta                  94.397255
_cell_angle_gamma                 98.184146
_cell_volume                      2305.28951607

loop_
_atom_site_label
_atom_site_type_symbol
_atom_site_description
_atom_site_fract_x
_atom_site_fract_y
_atom_site_fract_z
_atom_type_partial_charge
P1    P     P_3+3 0.990670 0.707470 0.561860 0.511837
O1    O     O_2   0.164990 0.721870 0.541490 -0.325361
O2    O     O_3   0.893010 0.608480 0.539150 -0.424280
O3    O     O_3   0.389100 0.667490 0.413860 -0.387938
O4    O     O_2   0.314015 0.825725 0.467097 -0.258778
O5    O     O_3   0.016008 0.729454 0.655095 -0.545852
O6    O     O_3   0.365232 0.808739 0.333127 -0.430868
H1    H     H_    0.467035 0.702189 0.283098 0.072992
C1    C     C_3   0.414583 0.794808 0.210322 -0.874768
H2    H     H_    0.291149 0.755315 0.191688 0.269531
H3    H     H_    0.408721 0.867923 0.210815 0.274451
P2    P     P_3+3 0.340140 0.430100 0.338890 0.508529
P3    P     P_3+3 0.937309 0.622061 0.285627 0.502933
O7    O     O_2   0.172070 0.457600 0.329050 -0.338258
O8    O     O_3   0.964370 0.622050 0.377340 -0.354017
O9    O     O_2   0.047909 0.556876 0.252373 -0.349266
O10   O     O_3   0.309889 0.313437 0.310452 -0.636618
O11   O     O_3   0.028323 0.727896 0.268011 -0.483454
C2    C     C_3   0.915482 0.788773 0.276884 0.191757
H4    H     H_    0.865222 0.788267 0.329660 0.078899
H5    H     H_    0.814131 0.770830 0.233026 -0.038816
C3    C     C_3   0.003900 0.883819 0.272927 0.601101
H6    H     H_    0.081229 0.882610 0.227460 0.071116
C4    C     C_3   0.798957 0.335922 0.305913 0.338765
H7    H     H_    0.674977 0.353517 0.292520 0.043011
H8    H     H_    0.879700 0.396913 0.333993 0.132235
C5    C     C_3   0.870575 0.302445 0.237165 -0.299753
H9    H     H_    0.813751 0.231445 0.217816 0.208970
H10   H     H_    0.005426 0.303900 0.247562 0.208781
Ba1   Ba    Ba6+2 0.161750 0.544670 0.467760 1.626156
C6    C     C_3   0.047705 0.652385 0.684081 0.441824
H11   H     H_    0.158736 0.629567 0.663411 0.089701
H12   H     H_    0.941176 0.597281 0.671233 0.113904
C7    C     C_3   0.076780 0.676862 0.764739 -0.925026
H13   H     H_    0.189247 0.728120 0.779111 0.289477
H14   H     H_    0.092914 0.616536 0.790497 0.213353
H15   H     H_    0.969091 0.704768 0.785397 0.260198
C8    C     C_3   0.272042 0.266207 0.367074 1.107747
H16   H     H_    0.372217 0.281344 0.410849 0.056918
C9    C     C_3   0.243388 0.165444 0.340500 -0.835888
H17   H     H_    0.134312 0.148435 0.300343 0.251934
H18   H     H_    0.221262 0.126406 0.385536 0.240746
H19   H     H_    0.352824 0.145936 0.315363 0.268212
P4    P     P_3+3 0.819620 0.292520 0.438080 0.617262
O12   O     O_2   0.645300 0.278070 0.458480 -0.344109
O13   O     O_3   0.917280 0.391520 0.460790 -0.377913
O14   O     O_3   0.421200 0.332510 0.586090 -0.397125
O15   O     O_3   0.780759 0.263043 0.345248 -0.493206
P5    P     P_3+3 0.863983 0.379591 0.714915 0.504888
O16   O     O_3   0.383620 0.545480 0.584560 -0.394354
O17   O     O_3   0.845920 0.377940 0.622610 -0.381665
O18   O     O_2   0.732210 0.432886 0.745414 -0.364642
O19   O     O_3   0.798267 0.268704 0.729474 -0.453390
Ba2   Ba    Ba6+2 0.648430 0.455320 0.532180 1.622350
P6    P     P_3+3 0.431777 0.784378 0.417247 0.536706
C10   C     C_3   0.469980 0.776252 0.284571 0.436985
H20   H     H_    0.597142 0.812145 0.299356 0.007006
H21   H     H_    0.504071 0.774880 0.172766 0.199800
O20   O     O_3   0.426680 0.454510 0.415380 -0.403037
C11   C     C_3   0.559780 0.726886 0.638381 0.221458
H22   H     H_    0.669096 0.698101 0.620648 0.014330
H23   H     H_    0.461376 0.715935 0.593399 0.118071
C12   C     C_3   0.610289 0.827589 0.659580 0.498964
H24   H     H_    0.716054 0.841075 0.701464 0.063966
H25   H     H_    0.647490 0.858457 0.612156 -0.016314
P7    P     P_3+3 0.463279 0.571638 0.674158 0.450306
O21   O     O_2   0.638220 0.542340 0.670930 -0.360890
O22   O     O_3   0.501924 0.688743 0.697201 -0.551610
C13   C     C_3   0.931710 0.221223 0.721834 0.330131
H26   H     H_    0.978122 0.224446 0.668522 0.039832
H27   H     H_    0.030179 0.249635 0.764791 -0.003257
C14   C     C_3   0.880505 0.122667 0.730151 -0.201127
H28   H     H_    0.988053 0.086548 0.725471 0.106305
H29   H     H_    0.836360 0.116544 0.783287 0.198566
P8    P     P_3+3 0.378628 0.215340 0.580525 0.580324
C15   C     C_3   0.374680 0.256817 0.716456 0.429387
H30   H     H_    0.263580 0.284382 0.697490 -0.088220
O23   O     O_2   0.512416 0.175518 0.539426 -0.296555
O24   O     O_3   0.408348 0.186100 0.666769 -0.460384
H31   H     H_    0.480635 0.312299 0.725512 0.153424
H32   H     H_    0.291493 0.275177 0.821822 0.097370
C16   C     C_3   0.341277 0.222780 0.787246 -0.250580
H33   H     H_    0.250157 0.159980 0.777943 0.161609
C17   C     C_R   0.650448 0.827882 0.451336 0.126109
H34   H     H_    0.690671 0.695097 0.470059 0.179971
H35   H     H_    0.517741 0.958849 0.394720 0.219622
C18   C     C_R   0.891359 0.794570 0.519350 0.201723
C19   C     C_R   0.066013 0.232517 0.521099 -0.521085
C20   C     C_R   0.170122 0.171343 0.537262 0.002476
C21   C     C_R   0.116581 0.078643 0.519846 0.724984
C22   C     C_R   0.949149 0.045359 0.496683 -0.190894
C23   C     C_R   0.852028 0.107811 0.469162 -0.318135
C24   C     C_R   0.879586 0.951355 0.494843 0.082222
C25   C     C_R   0.721448 0.919904 0.456733 -0.093592
C26   C     C_R   0.636056 0.980817 0.425090 -0.219419
C27   C     C_R   0.699043 0.071766 0.430279 0.882022
C28   C     C_R   0.953055 0.888672 0.533879 0.186919
C29   C     C_R   0.742541 0.765965 0.477248 -0.527810
C30   C     C_R   0.914571 0.203238 0.480739 0.431457
H36   H     H_    0.110895 0.304148 0.533553 0.203676
C31   C     C_R   0.618049 0.540996 0.301965 -0.483784
C32   C     C_R   0.460853 0.493918 0.277964 0.319000
C33   C     C_R   0.403201 0.487982 0.205723 -0.229115
C34   C     C_R   0.501192 0.530192 0.157864 0.043024
C35   C     C_R   0.659162 0.577349 0.183093 -0.251502
C36   C     C_R   0.719150 0.580387 0.254464 0.208800
C37   C     C_R   0.457397 0.593030 0.042525 -0.161863
C38   C     C_R   0.405175 0.581641 0.969546 -0.143146
C39   C     C_R   0.341546 0.495457 0.933012 0.175819
C40   C     C_R   0.335236 0.420678 0.970596 -0.084010
C41   C     C_R   0.384183 0.432268 0.043790 -0.101825
C42   C     C_R   0.445158 0.518617 0.080583 0.152483
C43   C     C_R   0.121350 0.441379 0.829326 0.073149
C44   C     C_R   0.073860 0.430368 0.755207 0.151267
C45   C     C_R   0.340641 0.510032 0.735108 0.293346
C46   C     C_R   0.390888 0.519226 0.808056 -0.261420
C47   C     C_R   0.283833 0.483687 0.855717 -0.062085
C48   C     C_R   0.185856 0.462305 0.708964 -0.530820
H37   H     H_    0.512056 0.555719 0.827898 0.166978
H38   H     H_    0.412766 0.640287 0.941687 0.135909
H39   H     H_    0.505479 0.660133 0.069454 0.123838
H40   H     H_    0.283222 0.449445 0.186629 0.165702
H41   H     H_    0.291092 0.353238 0.943369 0.142352
H42   H     H_    0.377220 0.373491 0.071485 0.144863
H43   H     H_    0.739260 0.606367 0.146463 0.154097
H44   H     H_    0.148202 0.455420 0.652423 0.169056
H45   H     H_    0.665514 0.542139 0.356858 0.163293
I1    I     I_    0.824997 0.376683 0.151234 -0.352384
F1    F     F_    0.131093 0.289857 0.391730 -0.734313
F2    F     F_    0.479062 0.865323 0.685181 -0.589417
I2    I     I_    0.832495 0.974810 0.256428 -0.434338
I3    I     I_    0.693428 0.059901 0.648807 -0.170315
I4    I     I_    0.554914 0.196105 0.846464 -0.211982
I5    I     I_    0.107839 0.933238 0.632299 -0.153003
F3    F     F_    0.231994 0.022712 0.516976 -0.618432
F4    F     F_    0.608058 0.121758 0.393801 -0.679065
I6    I     I_    0.943154 0.404471 0.901085 -0.302680
F5    F     F_    0.103580 0.916152 0.335470 -0.614526

loop_
_geom_bond_atom_site_label_1
_geom_bond_atom_site_label_2
_geom_bond_distance
_ccdc_geom_bond_type
P1    C18   1.875129 S    
P7    O22   1.745173 S    
C12   H25   1.107758 S    
C31   C32   1.397385 A    
C3    I2    2.136380 S    
C5    H10   1.108337 S    
C7    H15   1.111159 S    
C37   C42   1.405255 A    
C38   H38   1.083114 S    
C26   C27   1.385612 A    
C15   O24   1.407547 S    
O6    P6    1.747659 S    
O19   C13   1.400955 S    
H1    C10   1.111889 S    
H32   C16   1.108703 S    
C39   C47   1.488240 S    
C27   F4    1.349249 S    
C10   H20   1.105698 S    
Ba1   Ba2   4.532062 S    
C24   C25   1.426829 A    
P3    O11   1.748187 S    
C11   C12   1.513030 S    
C28   I5    2.155209 S    
C2    H5    1.111359 S    
C4    H8    1.106008 S    
C7    H13   1.111048 S    
C13   H26   1.112977 S    
C8    H16   1.102847 S    
P4    C30   1.885897 S    
C45   C46   1.398701 A    
C23   C27   1.409910 A    
C38   C39   1.405347 A    
C11   H23   1.110310 S    
O11   C2    1.401196 S    
C12   F2    1.383128 S    
C13   H27   1.103765 S    
C40   C41   1.399130 A    
H34   C29   1.081903 S    
C31   H45   1.081687 S    
P2    O20   1.544509 S    
C9    H19   1.109710 S    
C2    H4    1.113299 S    
P5    O17   1.744097 S    
P2    O10   1.753564 S    
C37   C38   1.400847 A    
C4    C5    1.531416 S    
C1    H2    1.109934 S    
C18   C29   1.392094 A    
P5    O18   1.544944 D    
C9    H18   1.108988 S    
P7    O21   1.567949 D    
Ba1   O16   2.759468 S    
C25   C26   1.398702 A    
O6    C10   1.401038 S    
O7    Ba1   2.806815 S    
C34   C35   1.407697 A    
P4    O13   1.584566 S    
C14   I3    2.123410 S    
Ba2   O20   2.758877 S    
P7    C45   1.844063 S    
P1    O5    1.750672 S    
C4    O15   1.401741 S    
C8    F1    1.360382 S    
C2    C3    1.527091 S    
C15   H30   1.110454 S    
C14   H29   1.108060 S    
C15   C16   1.527554 S    
C22   C23   1.439787 A    
C34   C42   1.485064 S    
P3    C36   1.841179 S    
C17   C25   1.416524 A    
Ba2   O21   2.807065 S    
C11   H22   1.110087 S    
P1    O2    1.584438 S    
O2    Ba1   2.897321 S    
P2    C32   1.852677 S    
C40   H41   1.082289 S    
C22   C24   1.447962 A    
C1    H3    1.110752 S    
C5    I1    2.130175 S    
C6    H11   1.103598 S    
C45   C48   1.392863 A    
Ba1   O20   2.903962 S    
O13   Ba2   2.898029 S    
C6    H12   1.108597 S    
C6    C7    1.522179 S    
C1    C10   1.519522 S    
O16   Ba2   2.903129 S    
C4    H7    1.108820 S    
O16   P7    1.751494 S    
C44   C48   1.398049 A    
O14   Ba2   2.785104 S    
C43   C47   1.421447 A    
C9    H17   1.110505 S    
P2    O7    1.503943 D    
O12   Ba2   2.857839 S    
P3    O8    1.738351 S    
O3    P6    1.741858 S    
C43   I6    2.139414 S    
C37   H39   1.082047 S    
C19   H36   1.082349 S    
C24   C28   1.441629 A    
C5    H9    1.111760 S    
C13   C14   1.518767 S    
P4    O12   1.506960 D    
O8    Ba1   2.749179 S    
P5    C44   1.851725 S    
C43   C44   1.414054 A    
C31   C36   1.402061 A    
C1    H21   1.109585 S    
C41   C42   1.404859 A    
P2    Ba1   3.369839 S    
C41   H42   1.083107 S    
O4    P6    1.546012 D    
C15   H31   1.106547 S    
C14   H28   1.106976 S    
C35   H43   1.083187 S    
C35   C36   1.399011 A    
C3    F5    1.383338 S    
C46   H37   1.083331 S    
Ba1   O13   2.822792 S    
O1    Ba1   2.857245 S    
O17   Ba2   2.749845 S    
C17   C29   1.395843 A    
C16   I4    2.127308 S    
P6    C17   1.861647 S    
O14   P8    1.742167 S    
C39   C40   1.405459 A    
C8    C9    1.521218 S    
C21   F3    1.357296 S    
C21   C22   1.413576 A    
P5    O19   1.746895 S    
P1    O1    1.506729 D    
P1    Ba1   3.390578 S    
O2    Ba2   2.823436 S    
C46   C47   1.410746 A    
O5    C6    1.395719 S    
C7    H14   1.105101 S    
O10   C8    1.392525 S    
C32   C33   1.404153 A    
P8    O23   1.544449 D    
C19   C30   1.395489 A    
H35   C26   1.079047 S    
P8    C20   1.839054 S    
C12   H24   1.110887 S    
P4    Ba2   3.391085 S    
C19   C20   1.391362 A    
C11   O22   1.402887 S    
C16   H33   1.108127 S    
P3    O9    1.544022 D    
C33   C34   1.411059 A    
C3    H6    1.110711 S    
C48   H44   1.082221 S    
C20   C21   1.396337 A    
C33   H40   1.083247 S    
P8    O24   1.756166 S    
O3    Ba1   2.785699 S    
P4    O15   1.756432 S    
C23   C30   1.442941 A    
C18   C28   1.424225 A    
