data_mof_unit_19056.cif
_audit_creation_date              2012-12-10T16:49:23-0500
_audit_creation_method            fapswitch 2.2
_symmetry_space_group_name_H-M    P1
_symmetry_Int_Tables_number       1
_space_group_crystal_system       triclinic
_cell_length_a                    19.348968
_cell_length_b                    8.689363
_cell_length_c                    7.447174
_cell_angle_alpha                 102.875742
_cell_angle_beta                  94.794553
_cell_angle_gamma                 92.386523
_cell_volume                      1213.99770963

loop_
_atom_site_label
_atom_site_type_symbol
_atom_type_description
_atom_site_fract_x
_atom_site_fract_y
_atom_site_fract_z
_atom_type_partial_charge
C1    C     C_R   0.497912 0.199709 0.453298 0.889331
C2    C     C_R   0.502088 0.800291 0.546702 0.889330
C3    C     C_2   0.496908 0.031902 0.426935 -0.367540
C4    C     C_2   0.503092 0.968098 0.573065 -0.367539
C5    C     C_R   0.367484 0.498982 0.501130 0.807898
C6    C     C_R   0.632516 0.501019 0.498870 0.807896
C7    C     C_R   0.260151 0.526344 0.666789 -0.197907
C8    C     C_R   0.739849 0.473652 0.333212 -0.197907
C9    C     C_R   0.188098 0.525540 0.663734 -0.233129
C10   C     C_R   0.811902 0.474459 0.336267 -0.233133
C11   C     C_R   0.145959 0.494372 0.494837 0.030614
C12   C     C_R   0.854042 0.505638 0.505164 0.030617
C13   C     C_R   0.177091 0.461535 0.326726 0.438585
C14   C     C_R   0.822908 0.538484 0.673275 0.438581
C15   C     C_R   0.249744 0.463790 0.331704 -0.282252
C16   C     C_R   0.750256 0.536227 0.668297 -0.282253
C17   C     C_R   0.291503 0.496516 0.500821 -0.063879
C18   C     C_R   0.708497 0.503488 0.499180 -0.063881
C19   C     C_R   0.930113 0.503270 0.503064 0.422158
C20   C     C_R   0.069886 0.496740 0.496937 0.422162
Cu1   Cu    Cu3+1 0.507710 0.517380 0.684380 0.951069
Cu2   Cu    Cu3+1 0.492290 0.482620 0.315620 0.951070
H1    H     H_    0.291238 0.551697 0.799022 0.162996
H2    H     H_    0.708762 0.448290 0.200979 0.162997
H3    H     H_    0.165348 0.551541 0.794322 0.183050
H4    H     H_    0.834652 0.448453 0.205679 0.183051
H5    H     H_    0.273524 0.438841 0.202511 0.147952
H6    H     H_    0.726476 0.561183 0.797490 0.147951
H7    H     H_    0.491078 0.960487 0.286011 0.179864
H8    H     H_    0.508922 0.039513 0.713989 0.179864
H9    H     H_    0.445081 0.379118 0.948439 0.224161
H10   H     H_    0.554919 0.620882 0.051561 0.224161
N1    N     N_R   0.029194 0.518797 0.348416 -0.128236
N2    N     N_R   0.970804 0.481213 0.651585 -0.128238
N3    N     N_R   0.960662 0.521627 0.351146 -0.221246
N4    N     N_R   0.039338 0.478383 0.648855 -0.221249
N5    N     N_2   0.480680 0.456420 0.038530 -0.218515
N6    N     N_2   0.519320 0.543580 0.961470 -0.218515
O1    O     O_R   0.505010 0.286130 0.619770 -0.582204
O2    O     O_R   0.494990 0.713870 0.380230 -0.582205
O3    O     O_R   0.491990 0.256780 0.308370 -0.584648
O4    O     O_R   0.508010 0.743220 0.691630 -0.584648
O5    O     O_R   0.406650 0.514660 0.655750 -0.592253
O6    O     O_R   0.593350 0.485340 0.344250 -0.592253
O7    O     O_R   0.393640 0.485310 0.344340 -0.584776
O8    O     O_R   0.606360 0.514690 0.655660 -0.584775
O9    O     O_3   0.136089 0.424705 0.159988 -0.699954
H11   H     H_    0.166193 0.402889 0.056925 0.318862
O10   O     O_3   0.863912 0.575326 0.840013 -0.699950
H12   H     H_    0.833807 0.597143 0.943077 0.318863

loop_
_geom_bond_atom_site_label_1
_geom_bond_atom_site_label_2
_ccdc_geom_bond_type
C16   H6    S    
C7    C17   A    
C2    C4    S    
N5    N6    D    
H10   N6    S    
C11   C13   A    
C15   H5    S    
O9    H11   S    
Cu1   O1    S    
Cu2   O2    S    
C7    C9    A    
C10   H4    S    
C8    C18   A    
C5    O5    A    
C9    H3    S    
C6    O6    A    
Cu1   Cu2   S    
C9    C11   A    
C3    H7    S    
C10   C12   A    
C2    O4    A    
C7    H1    S    
C20   N1    A    
C12   C19   S    
C1    O3    A    
C13   O9    S    
N1    N3    A    
C12   C14   A    
C19   N3    A    
O10   H12   S    
N2    N4    A    
C13   C15   A    
C6    C18   S    
C14   C16   A    
C11   C20   S    
Cu2   O3    S    
C5    C17   S    
C1    O1    A    
C3    C4    D    
C14   O10   S    
C2    O2    A    
Cu2   O7    S    
C16   C18   A    
Cu1   O8    S    
C15   C17   A    
Cu2   O6    S    
C6    O8    A    
C8    H2    S    
Cu1   O5    S    
Cu2   N5    S    
C5    O7    A    
C8    C10   A    
C4    H8    S    
Cu1   N6    S    
Cu1   O4    S    
H9    N5    S    
C1    C3    S    
C19   N2    A    
C20   N4    A    
