data_mof_unit_27069.cif
_audit_creation_date              2012-12-11T15:49:13-0500
_audit_creation_method            fapswitch 2.2
_symmetry_space_group_name_H-M    P1
_symmetry_Int_Tables_number       1
_space_group_crystal_system       triclinic
_cell_length_a                    21.50243
_cell_length_b                    7.244516
_cell_length_c                    14.656246
_cell_angle_alpha                 89.999757
_cell_angle_beta                  106.693183
_cell_angle_gamma                 90.000082
_cell_volume                      2186.85604594

loop_
_atom_site_label
_atom_site_type_symbol
_atom_type_description
_atom_site_fract_x
_atom_site_fract_y
_atom_site_fract_z
_atom_type_partial_charge
O1    O     O_R   0.335860 0.638190 0.002110 -0.538602
O2    O     O_R   0.664140 0.361810 0.997890 -0.540664
O3    O     O_R   0.164140 0.138190 0.997890 -0.538605
O4    O     O_R   0.835860 0.861810 0.002110 -0.540667
O5    O     O_R   0.217530 0.305920 0.861960 -0.529952
O6    O     O_R   0.782470 0.694080 0.138040 -0.526449
O7    O     O_R   0.282470 0.805920 0.138040 -0.529953
O8    O     O_R   0.717530 0.194080 0.861960 -0.526450
C1    C     C_R   0.206578 0.476922 0.824783 0.731831
C2    C     C_R   0.793166 0.523246 0.175304 0.731388
C3    C     C_R   0.293421 0.976922 0.175217 0.731829
C4    C     C_R   0.706835 0.023246 0.824696 0.731387
O9    O     O_R   0.338690 0.308320 0.993240 -0.539711
O10   O     O_R   0.661310 0.691680 0.006760 -0.537567
O11   O     O_R   0.161310 0.808320 0.006760 -0.539708
O12   O     O_R   0.838690 0.191680 0.993240 -0.537564
O13   O     O_R   0.286170 0.140430 0.130100 -0.527537
O14   O     O_R   0.713830 0.859570 0.869900 -0.531595
O15   O     O_R   0.213830 0.640430 0.869900 -0.527538
O16   O     O_R   0.786170 0.359570 0.130100 -0.531594
C5    C     C_R   0.364848 0.477095 0.998133 0.708653
C6    C     C_R   0.635172 0.522850 0.001969 0.707662
C7    C     C_R   0.135152 0.977095 0.001867 0.708651
C8    C     C_R   0.864828 0.022850 0.998031 0.707662
O17   O     O_3   0.232630 0.472410 0.044750 -0.368096
O18   O     O_3   0.767370 0.527590 0.955250 -0.368701
O19   O     O_3   0.267370 0.972410 0.955250 -0.368095
O20   O     O_3   0.732630 0.027590 0.044750 -0.368700
V1    V     V_3+5 0.253220 0.196620 0.991700 1.500355
V2    V     V_3+5 0.746780 0.803380 0.008300 1.497920
V3    V     V_3+5 0.246780 0.696620 0.008300 1.500358
V4    V     V_3+5 0.753220 0.303380 0.991700 1.497926
C9    C     C_R   0.030027 0.827576 0.004029 -0.109154
C10   C     C_R   0.969926 0.172294 0.995725 -0.111963
C11   C     C_R   0.469965 0.327580 0.995930 -0.109146
C12   C     C_R   0.530082 0.672290 0.004316 -0.111955
H1    H     H_    0.052005 0.692342 0.007152 0.132079
H2    H     H_    0.947948 0.307528 0.992611 0.132633
H3    H     H_    0.447980 0.192350 0.992773 0.132104
H4    H     H_    0.552066 0.807520 0.007463 0.132659
C13   C     C_R   0.964872 0.839038 0.002520 -0.104613
C14   C     C_R   0.035070 0.160828 0.997196 -0.106685
C15   C     C_R   0.535120 0.339043 0.997437 -0.104622
C16   C     C_R   0.464937 0.660824 0.002846 -0.106694
H5    H     H_    0.938904 0.711809 0.004690 0.131009
H6    H     H_    0.061042 0.288056 0.995032 0.131764
H7    H     H_    0.561082 0.211816 0.995232 0.130989
H8    H     H_    0.438973 0.788048 0.005045 0.131743
C17   C     C_R   0.933916 0.011589 0.998414 -0.032995
C18   C     C_R   0.066038 0.988286 0.001357 -0.032501
C19   C     C_R   0.566084 0.511588 0.001585 -0.032997
C20   C     C_R   0.433962 0.488286 0.998644 -0.032500
C21   C     C_R   0.682329 0.016808 0.719344 -0.107964
C22   C     C_R   0.318115 0.987196 0.280350 -0.107611
C23   C     C_R   0.817671 0.516808 0.280656 -0.107967
C24   C     C_R   0.181886 0.487197 0.719650 -0.107614
C25   C     C_R   0.694870 0.052586 0.558206 0.079167
C26   C     C_R   0.304625 0.036409 0.439989 0.080868
C27   C     C_R   0.805130 0.552586 0.441794 0.079161
C28   C     C_R   0.195376 0.536408 0.560012 0.080865
C29   C     C_R   0.721808 0.057967 0.660134 0.174293
C30   C     C_R   0.278175 0.034188 0.337950 0.175776
C31   C     C_R   0.778191 0.557961 0.339865 0.174299
C32   C     C_R   0.221826 0.534179 0.662051 0.175778
C33   C     C_R   0.616937 0.981584 0.680101 -0.246389
C34   C     C_R   0.383860 0.959763 0.320666 -0.247798
C35   C     C_R   0.883064 0.481596 0.319899 -0.246384
C36   C     C_R   0.116140 0.459775 0.679334 -0.247796
C37   C     C_R   0.585655 0.009483 0.582857 0.060807
C38   C     C_R   0.414427 0.997233 0.417166 0.061745
C39   C     C_R   0.914346 0.509494 0.417143 0.060808
C40   C     C_R   0.085573 0.497242 0.582834 0.061745
C41   C     C_R   0.624530 0.037561 0.518988 -0.012202
C42   C     C_R   0.374994 0.024955 0.480212 -0.010722
C43   C     C_R   0.875470 0.537568 0.481011 -0.012203
C44   C     C_R   0.125007 0.524962 0.519789 -0.010722
C45   C     C_R   0.515866 0.010648 0.549017 0.034878
C46   C     C_R   0.484059 0.007035 0.451032 0.034526
C47   C     C_R   0.984134 0.510662 0.450983 0.034877
C48   C     C_R   0.015941 0.507044 0.548968 0.034527
C49   C     C_R   0.522253 0.029971 0.388563 -0.162581
C50   C     C_R   0.477148 0.030418 0.611045 -0.162743
C51   C     C_R   0.977747 0.529973 0.611437 -0.162579
C52   C     C_R   0.022852 0.530436 0.388956 -0.162744
C53   C     C_R   0.589711 0.051059 0.419351 0.132841
C54   C     C_R   0.409370 0.042377 0.579870 0.128968
C55   C     C_R   0.910289 0.551065 0.580649 0.132842
C56   C     C_R   0.090630 0.542390 0.420131 0.128969
H9    H     H_    0.411002 0.912542 0.273498 0.118437
H10   H     H_    0.590676 0.937035 0.728859 0.119094
H11   H     H_    0.088998 0.412560 0.726503 0.118435
H12   H     H_    0.909325 0.437057 0.271139 0.119090
H13   H     H_    0.499336 0.048982 0.313506 0.153000
H14   H     H_    0.499463 0.053068 0.685916 0.152275
H15   H     H_    0.000662 0.548978 0.686495 0.153000
H16   H     H_    0.000538 0.553091 0.314086 0.152277
I1    I     I_    0.622205 0.118164 0.297384 -0.445775
I2    I     I_    0.375341 0.097356 0.701797 -0.447685
I3    I     I_    0.877795 0.618177 0.702616 -0.445786
I4    I     I_    0.124659 0.597371 0.298204 -0.447681
I5    I     I_    0.181177 0.112853 0.259148 -0.383399
I6    I     I_    0.819558 0.135237 0.736058 -0.386957
I7    I     I_    0.318828 0.612819 0.740854 -0.383391
I8    I     I_    0.680441 0.635211 0.263941 -0.386962
C57   C     C_3   0.737365 0.057552 0.489536 -0.345627
C58   C     C_3   0.811532 0.043942 0.522202 -0.682816
H17   H     H_    0.834123 0.177554 0.549877 0.248447
H18   H     H_    0.829403 0.934283 0.574975 0.263208
H19   H     H_    0.828978 0.010790 0.459686 0.219833
H20   H     H_    0.721756 0.940944 0.439477 0.229731
H21   H     H_    0.727963 0.186903 0.449262 0.227314
C59   C     C_3   0.261555 0.046101 0.507653 -0.348743
C60   C     C_3   0.187349 0.035443 0.473782 -0.683429
H22   H     H_    0.165606 0.168301 0.443386 0.250905
H23   H     H_    0.169425 0.922483 0.422923 0.262519
H24   H     H_    0.169108 0.008744 0.536234 0.219770
H25   H     H_    0.276054 0.929969 0.558245 0.229059
H26   H     H_    0.271605 0.176059 0.547391 0.226465
C61   C     C_3   0.762636 0.557550 0.510464 -0.345630
C62   C     C_3   0.688468 0.543951 0.477801 -0.682812
H27   H     H_    0.665880 0.677561 0.450117 0.248449
H28   H     H_    0.670595 0.434278 0.425038 0.263205
H29   H     H_    0.671024 0.510827 0.540321 0.219833
H30   H     H_    0.778245 0.440939 0.560522 0.229733
H31   H     H_    0.772040 0.686899 0.550737 0.227316
C63   C     C_3   0.238445 0.546102 0.492347 -0.348740
C64   C     C_3   0.312652 0.535448 0.526217 -0.683425
H32   H     H_    0.334395 0.668301 0.556619 0.250907
H33   H     H_    0.330578 0.422479 0.577070 0.262515
H34   H     H_    0.330893 0.508765 0.463763 0.219768
H35   H     H_    0.223947 0.429971 0.441755 0.229062
H36   H     H_    0.228396 0.676060 0.452609 0.226463

loop_
_geom_bond_atom_site_label_1
_geom_bond_atom_site_label_2
_ccdc_geom_bond_type
O17   V3    S    
C32   I7    S    
C51   C55   A    
C57   H20   S    
O1    C5    A    
C63   C64   S    
C50   H14   S    
O19   V1    S    
O13   V1    S    
C37   C45   A    
C25   C57   S    
C10   C14   A    
C40   C44   A    
O15   V3    S    
C39   C47   A    
C34   C38   A    
C61   H30   S    
O7    C3    A    
C26   C59   S    
C45   C50   A    
O9    V1    S    
C14   H6    S    
C47   C52   A    
O4    C8    A    
C38   C46   A    
C58   H17   S    
O1    V3    S    
C36   H11   S    
O2    V4    S    
C52   H16   S    
C25   C41   A    
O3    V1    S    
C38   C42   A    
C21   C29   A    
C1    O15   A    
C2    O16   A    
C23   C31   A    
O2    C6    A    
C24   C32   A    
C37   C41   A    
O14   V2    S    
C21   C33   A    
C44   C56   A    
O5    V1    S    
C4    C21   S    
C62   H29   S    
C36   C40   A    
C60   H24   S    
C16   C20   A    
O11   C7    A    
C57   H21   S    
O12   C8    A    
O10   V2    S    
C48   C51   A    
C13   C17   A    
C59   C60   S    
C62   H28   S    
C34   H9    S    
C55   I3    S    
C33   H10   S    
O7    V3    S    
O8    V4    S    
C12   H4    S    
O18   V4    S    
C7    C18   S    
C22   C30   A    
O3    C7    A    
C50   C54   A    
C28   C44   A    
C9    H1    S    
C11   H3    S    
C64   H33   S    
O5    C1    A    
C59   H26   S    
C49   H13   S    
C63   H36   S    
O8    C4    A    
C51   H15   S    
O9    C5    A    
C1    C24   S    
C42   C54   A    
C25   C29   A    
C2    C23   S    
C3    C22   S    
C41   C53   A    
C56   I4    S    
C12   C19   A    
C26   C30   A    
C14   C18   A    
C61   H31   S    
C43   C55   A    
O6    V2    S    
C12   C16   A    
C64   H32   S    
C27   C43   A    
C11   C15   A    
C62   H27   S    
C26   C42   A    
C60   H22   S    
O16   V4    S    
C8    C17   S    
C3    O13   A    
C10   C17   A    
C27   C61   S    
C10   H2    S    
C52   C56   A    
C31   I8    S    
O6    C2    A    
C23   C35   A    
C61   C62   S    
O11   V3    S    
C22   C34   A    
O12   V4    S    
C57   C58   S    
C27   C31   A    
C28   C32   A    
C9    C13   A    
C30   I5    S    
O20   V2    S    
C29   I6    S    
C9    C18   A    
C64   H34   S    
C40   C48   A    
C24   C36   A    
C39   C43   A    
C46   C49   A    
O10   C6    A    
C59   H25   S    
C58   H18   S    
C63   H35   S    
C15   C19   A    
C33   C37   A    
C28   C63   S    
C35   H12   S    
C35   C39   A    
C54   I2    S    
O4    V2    S    
C53   I1    S    
C47   C48   A    
C4    O14   A    
C11   C20   A    
C13   H5    S    
C45   C46   A    
C15   H7    S    
C5    C20   S    
C49   C53   A    
C16   H8    S    
C6    C19   S    
C60   H23   S    
C58   H19   S    
