data_mof_unit_22125.cif
_audit_creation_date              2012-12-10T18:02:52-0500
_audit_creation_method            fapswitch 2.2
_symmetry_space_group_name_H-M    P1
_symmetry_Int_Tables_number       1
_space_group_crystal_system       triclinic
_cell_length_a                    10.862525
_cell_length_b                    9.480626
_cell_length_c                    27.928155
_cell_angle_alpha                 90.432642
_cell_angle_beta                  91.080297
_cell_angle_gamma                 91.642945
_cell_volume                      2874.35259711

loop_
_atom_site_label
_atom_site_type_symbol
_atom_type_description
_atom_site_fract_x
_atom_site_fract_y
_atom_site_fract_z
_atom_type_partial_charge
C1    C     C_R   0.262086 0.497648 0.503519 0.856719
C2    C     C_R   0.737913 0.502352 0.496479 0.856706
C3    C     C_R   0.506985 0.495624 0.101947 -0.108721
C4    C     C_R   0.493008 0.504367 0.898053 -0.108721
C5    C     C_R   0.399043 0.460418 0.127442 -0.070995
C6    C     C_R   0.600950 0.539575 0.872558 -0.070994
C7    C     C_R   0.292556 0.412260 0.101905 0.220695
C8    C     C_R   0.707436 0.587735 0.898095 0.220695
C9    C     C_R   0.618108 0.528899 0.127624 -0.078382
C10   C     C_R   0.381885 0.471091 0.872376 -0.078382
C11   C     C_R   0.505909 0.499298 0.354541 -0.174501
C12   C     C_R   0.494083 0.500702 0.645459 -0.174512
C13   C     C_R   0.389093 0.462921 0.974479 0.029588
C14   C     C_R   0.610901 0.537067 0.025521 0.029588
C15   C     C_R   0.606785 0.541626 0.974482 0.028792
C16   C     C_R   0.393209 0.458365 0.025518 0.028792
C17   C     C_R   0.496343 0.502686 0.949158 0.075054
C18   C     C_R   0.503651 0.497304 0.050842 0.075053
C19   C     C_R   0.280372 0.429326 0.947767 -0.226492
C20   C     C_R   0.719623 0.570658 0.052232 -0.226493
C21   C     C_R   0.276020 0.430661 0.898055 0.219590
C22   C     C_R   0.723975 0.569326 0.101945 0.219590
C23   C     C_R   0.502058 0.499815 0.407430 0.867290
C24   C     C_R   0.497940 0.500184 0.592570 0.867283
C25   C     C_R   0.290941 0.411770 0.052221 -0.225445
C26   C     C_R   0.709051 0.588225 0.947779 -0.225446
C27   C     C_R   0.057933 0.371042 0.491980 0.111769
C28   C     C_R   0.942066 0.628961 0.508012 0.111755
C29   C     C_R   0.932725 0.382372 0.481265 0.126128
C30   C     C_R   0.067272 0.617631 0.518728 0.126127
C31   C     C_R   0.872493 0.507046 0.493372 -0.209029
C32   C     C_R   0.127505 0.492955 0.506623 -0.209029
C33   C     C_R   0.440158 0.071762 0.464530 0.044456
C34   C     C_R   0.559843 0.928238 0.535470 0.044459
C35   C     C_R   0.560391 0.077240 0.535368 0.047879
C36   C     C_R   0.439609 0.922760 0.464631 0.047877
C37   C     C_R   0.402058 0.474592 0.177648 0.574233
C38   C     C_R   0.597935 0.525403 0.822352 0.574235
C39   C     C_R   0.618959 0.518036 0.178023 0.579529
C40   C     C_R   0.381034 0.481957 0.821977 0.579533
C41   C     C_R   0.566509 0.609318 0.279716 -0.120008
C42   C     C_R   0.433482 0.390680 0.720283 -0.120005
C43   C     C_R   0.567221 0.609805 0.329669 0.070415
C44   C     C_R   0.432771 0.390194 0.670330 0.070420
C45   C     C_R   0.446317 0.388037 0.328204 0.402883
C46   C     C_R   0.553672 0.611961 0.671796 0.402858
C47   C     C_R   0.457567 0.383835 0.278094 -0.204239
C48   C     C_R   0.542425 0.616162 0.721906 -0.204208
C49   C     C_R   0.512838 0.496295 0.253621 0.245264
C50   C     C_R   0.487154 0.503702 0.746378 0.245246
Cu1   Cu    Cu3+1 0.500000 0.640660 0.500000 1.028194
Cu2   Cu    Cu3+1 0.500000 0.359340 0.500000 1.028199
H1    H     H_    0.392086 0.125907 0.436259 0.169857
H2    H     H_    0.607917 0.874093 0.563741 0.169855
H3    H     H_    0.609294 0.135608 0.563566 0.136304
H4    H     H_    0.390707 0.864391 0.436434 0.136302
H5    H     H_    0.419978 0.294685 0.257663 0.160764
H6    H     H_    0.580019 0.705311 0.742337 0.160788
H7    H     H_    0.390308 0.303300 0.738983 0.189699
H8    H     H_    0.609683 0.696697 0.261016 0.189696
H9    H     H_    0.194786 0.401234 0.964284 0.162209
H10   H     H_    0.805211 0.598745 0.035715 0.162210
H11   H     H_    0.207483 0.369863 0.035751 0.163183
H12   H     H_    0.792507 0.630137 0.964249 0.163184
N1    N     N_R   0.511443 0.496741 0.201922 -0.452865
N2    N     N_R   0.488550 0.503254 0.798078 -0.452863
N3    N     N_R   0.500000 0.852070 0.500000 -0.168011
N4    N     N_R   0.500000 0.147930 0.500000 -0.168012
O1    O     O_R   0.319640 0.618740 0.500000 -0.567460
O2    O     O_R   0.680360 0.381260 0.500000 -0.567460
O3    O     O_R   0.680360 0.618740 0.500000 -0.555490
O4    O     O_R   0.319640 0.381260 0.500000 -0.555480
O5    O     O_R   0.500020 0.618770 0.430260 -0.583993
O6    O     O_R   0.499980 0.381230 0.569740 -0.583993
O7    O     O_R   0.499980 0.618770 0.569740 -0.540030
O8    O     O_R   0.500020 0.381230 0.430260 -0.540030
O9    O     O_2   0.296569 0.471050 0.202259 -0.500986
O10   O     O_2   0.703423 0.528946 0.797741 -0.500988
O11   O     O_2   0.274107 0.475221 0.796800 -0.478224
O12   O     O_2   0.725886 0.524772 0.203201 -0.478222
O13   O     O_3   0.380306 0.283627 0.352423 -0.580273
C51   C     C_3   0.265862 0.250788 0.329168 0.035214
H13   H     H_    0.277928 0.166968 0.301747 0.177180
H14   H     H_    0.224580 0.344758 0.311962 0.180466
C52   C     C_3   0.174792 0.195565 0.365592 -0.686737
H15   H     H_    0.160550 0.278122 0.393163 0.252947
H16   H     H_    0.085048 0.168872 0.347568 0.236958
H17   H     H_    0.209939 0.099233 0.382869 0.245263
O14   O     O_3   0.619684 0.716373 0.647580 -0.580275
C53   C     C_3   0.734160 0.749123 0.670818 0.035224
H18   H     H_    0.775422 0.655111 0.688002 0.180444
H19   H     H_    0.722160 0.832908 0.698254 0.177214
C54   C     C_3   0.825204 0.804352 0.634386 -0.686821
H20   H     H_    0.790082 0.900730 0.617135 0.245279
H21   H     H_    0.914978 0.830962 0.652395 0.236977
H22   H     H_    0.839368 0.721833 0.606798 0.252940
I1    I     I_    0.132329 0.316850 0.132862 -0.205883
I2    I     I_    0.867664 0.683145 0.867138 -0.205875
I3    I     I_    0.329556 0.221261 0.636666 -0.246128
I4    I     I_    0.670438 0.778739 0.363332 -0.246137
I5    I     I_    0.104544 0.353866 0.867626 -0.180000
I6    I     I_    0.895451 0.646121 0.132374 -0.180002
I7    I     I_    0.127812 0.161337 0.495367 -0.245529
I8    I     I_    0.872189 0.838665 0.504615 -0.245515
I9    I     I_    0.842956 0.221865 0.436760 -0.229076
I10   I     I_    0.157035 0.778144 0.563233 -0.229086

loop_
_geom_bond_atom_site_label_1
_geom_bond_atom_site_label_2
_ccdc_geom_bond_type
C54   H20   S    
C5    C37   A    
C27   C29   A    
C8    C26   A    
C14   C18   A    
C23   O8    A    
O13   C51   S    
C36   N3    A    
C47   C49   A    
C46   O14   S    
C52   H15   S    
C49   N1    S    
Cu2   O4    S    
C19   C21   A    
Cu1   O7    S    
Cu2   O6    S    
C44   I3    S    
C9    C22   A    
C9    C39   A    
C33   C36   A    
C3    C18   A    
C10   C40   A    
C34   C35   A    
C25   H11   S    
C11   C23   S    
C26   H12   S    
C8    I2    S    
C38   N2    A    
C37   N1    A    
C6    C38   A    
C11   C43   A    
Cu2   N4    S    
C21   I5    S    
C48   C50   A    
C54   H21   S    
C40   N2    A    
C30   I10   S    
C41   C43   A    
C29   I9    S    
C42   C44   A    
C23   O5    A    
C41   C49   A    
C45   C47   A    
C10   C21   A    
C33   H1    S    
C46   C48   A    
C1    O4    A    
C13   C19   A    
C52   H16   S    
C35   H3    S    
Cu1   Cu2   S    
C14   C20   A    
C43   I4    S    
C4    C6    A    
C5    C7    A    
C15   C26   A    
C6    C8    A    
C38   O10   S    
C3    C5    A    
C37   O9    S    
C1    C32   S    
C1    O1    A    
C2    C31   S    
C34   N3    A    
C36   H4    S    
C47   H5    S    
C28   I8    S    
C53   H19   S    
C40   O11   S    
Cu1   N3    S    
C3    C9    A    
C50   N2    S    
C42   C50   A    
C4    C17   A    
C12   C46   A    
C20   C22   A    
C34   H2    S    
C54   H22   S    
C51   H14   S    
C11   C45   A    
C4    C10   A    
C2    O3    A    
C53   C54   S    
C52   H17   S    
C16   C25   A    
C15   C17   A    
C12   C24   S    
C7    I1    S    
C27   C32   A    
C28   C31   A    
C45   O13   S    
Cu1   O5    S    
C41   H8    S    
Cu2   O8    S    
C22   I6    S    
C42   H7    S    
Cu1   O3    S    
C24   O7    A    
C48   H6    S    
C51   C52   S    
C39   N1    A    
C7    C25   A    
C13   C17   A    
C39   O12   S    
C28   C30   A    
C29   C31   A    
C30   C32   A    
C24   O6    A    
C53   H18   S    
C35   N4    A    
C19   H9    S    
C27   I7    S    
C20   H10   S    
Cu2   O2    S    
C16   C18   A    
C51   H13   S    
C13   C16   A    
C14   C15   A    
C12   C44   A    
Cu1   O1    S    
O14   C53   S    
C2    O2    A    
C33   N4    A    
