data_mof_unit_37832.cif
_audit_creation_date              2012-12-11T14:50:49-0500
_audit_creation_method            fapswitch 2.2
_symmetry_space_group_name_H-M    P1
_symmetry_Int_Tables_number       1
_space_group_crystal_system       triclinic
_cell_length_a                    10.973274
_cell_length_b                    11.154953
_cell_length_c                    18.855269
_cell_angle_alpha                 89.322377
_cell_angle_beta                  89.547203
_cell_angle_gamma                 61.340436
_cell_volume                      2025.0910549

loop_
_atom_site_label
_atom_site_type_symbol
_atom_type_description
_atom_site_fract_x
_atom_site_fract_y
_atom_site_fract_z
_atom_type_partial_charge
C1    C     C_R   0.230009 0.647030 0.607064 0.640988
C2    C     C_R   0.554390 0.192534 0.791501 0.243779
C3    C     C_R   0.564218 0.169156 0.719813 0.293073
C4    C     C_R   0.654340 0.619474 0.600591 0.581582
C5    C     C_R   0.663255 0.185497 0.679357 -0.028016
C6    C     C_R   0.191236 0.559913 0.723667 0.247572
C7    C     C_R   0.172938 0.578624 0.796738 0.210985
C8    C     C_R   0.123100 0.709584 0.823976 -0.025845
C9    C     C_R   0.095920 0.819212 0.777304 0.204997
C10   C     C_R   0.099483 0.799398 0.704340 0.258977
C11   C     C_R   0.162899 0.668792 0.677413 0.035007
C12   C     C_3   0.628985 0.589702 0.803551 0.113347
C13   C     C_R   0.774972 0.623102 0.288722 0.163844
C14   C     C_R   0.787490 0.633691 0.216767 -0.153604
C15   C     C_R   0.672775 0.675322 0.171632 -0.014006
C16   C     C_R   0.627326 0.230627 0.604312 0.621998
C17   C     C_R   0.541669 0.709698 0.198974 0.196761
C18   C     C_R   0.526959 0.702039 0.273104 0.191115
C19   C     C_R   0.645924 0.654813 0.317386 0.043482
C20   C     C_R   0.595058 0.101840 0.296874 0.250920
C21   C     C_R   0.600858 0.078344 0.223768 0.259034
C22   C     C_R   0.650975 0.145731 0.177538 0.081465
C23   C     C_3   0.700510 0.678534 0.811299 -0.074683
C24   C     C_R   0.697666 0.232629 0.203642 -0.158759
C25   C     C_R   0.695740 0.252376 0.276000 -0.184381
C26   C     C_R   0.645336 0.186660 0.322441 0.055382
C27   C     C_R   0.069453 0.798648 0.310163 -0.127051
C28   C     C_R   0.225514 0.646573 0.400739 0.589748
C29   C     C_R   0.027756 0.824565 0.239680 0.223644
C30   C     C_R   0.070753 0.714490 0.192808 0.028832
C31   C     C_R   0.156473 0.580720 0.215712 -0.082033
C32   C     C_R   0.201352 0.554917 0.285074 0.264155
C33   C     C_R   0.158922 0.665619 0.332627 0.067503
C34   C     C_3   0.674001 0.646463 0.675390 -0.002262
C35   C     C_R   0.698393 0.108745 0.898227 0.501004
C36   C     C_R   0.725881 0.691287 0.887576 0.550424
C37   C     C_R   0.070943 0.735648 0.897139 0.568695
C38   C     C_R   0.675298 0.104309 0.104226 0.573472
C39   C     C_R   0.698052 0.690459 0.097521 0.596909
C40   C     C_R   0.638382 0.619300 0.391122 0.614367
C41   C     C_R   0.033693 0.741805 0.118848 0.581075
C42   C     C_R   0.615722 0.233071 0.394583 0.600778
C43   C     C_3   0.608775 0.821524 0.772879 0.207212
C44   C     C_3   0.575306 0.798194 0.694906 0.452906
C45   C     C_3   0.829313 0.615997 0.690543 0.354945
C46   C     C_3   0.846955 0.606527 0.772505 0.076595
C47   C     C_3   0.639541 0.551247 0.724747 0.070165
C48   C     C_R   0.768399 0.200465 0.716599 0.262281
C49   C     C_R   0.770782 0.198630 0.791399 0.215956
C50   C     C_R   0.670588 0.180106 0.828793 -0.123387
Cl1   Cl    Cl    0.951615 0.430870 0.801871 -0.411110
Cl2   Cl    Cl    0.400723 0.755610 0.140299 -0.536470
Cl3   Cl    Cl    0.391410 0.847237 0.686974 -0.276901
Cl4   Cl    Cl    0.499801 0.523430 0.698164 -0.615449
Cl5   Cl    Cl    0.961856 0.465954 0.647497 -0.341359
Cl6   Cl    Cl    0.897918 0.225547 0.673113 -0.270592
Cl7   Cl    Cl    0.444013 0.124420 0.684345 -0.284886
Cl8   Cl    Cl    0.244050 0.401504 0.690716 -0.340133
Cl9   Cl    Cl    0.093289 0.968255 0.807196 -0.267929
Cl10  Cl    Cl    0.451982 0.938035 0.820667 -0.249570
Cl11  Cl    Cl    0.013337 0.933406 0.644203 -0.439823
Cl12  Cl    Cl    0.923462 0.569850 0.341793 -0.619585
Cr1   Cr    Cr6+3 0.392930 0.397900 0.502230 1.185247
Cr2   Cr    Cr6+3 0.398240 0.708600 0.501260 1.166769
Cr3   Cr    Cr6+3 0.708800 0.393470 0.496460 1.166265
Cr4   Cr    Cr6+3 0.937620 0.938540 0.007640 1.138408
Cr5   Cr    Cr6+3 0.625150 0.937450 0.994520 1.169076
Cr6   Cr    Cr6+3 0.937990 0.625080 0.001190 1.095794
H1    H     H_    0.672066 0.875147 0.770710 0.125586
H2    H     H_    0.834876 0.249548 0.876049 0.338151
H3    H     H_    0.424254 0.269444 0.868399 0.362014
H4    H     H_    0.200398 0.396425 0.819797 0.441094
H5    H     H_    0.324752 0.788629 0.269693 0.367969
H6    H     H_    0.459638 0.043279 0.321362 0.346530
H7    H     H_    0.573282 0.920422 0.234384 0.323318
H8    H     H_    0.945712 0.020354 0.252210 0.326951
H9    H     H_    0.243190 0.395671 0.340256 0.377123
H10   H     H_    0.552784 0.892283 0.602789 0.375322
H11   H     H_    0.853464 0.722142 0.613751 0.377168
H12   H     H_    0.729113 0.450568 0.721444 0.203318
H13   H     H_    0.463898 0.591606 0.844023 0.354678
H14   H     H_    0.888617 0.609247 0.195845 0.166169
H15   H     H_    0.738468 0.282159 0.168270 0.151519
H16   H     H_    0.729181 0.322936 0.295440 0.160268
H17   H     H_    0.038454 0.883013 0.346520 0.136576
H18   H     H_    0.192276 0.495845 0.179373 0.175780
H19   H     H_    0.904584 0.661079 0.787690 0.124626
H20   H     H_    0.684970 0.494657 0.836166 0.151997
O1    O     O_R   0.507430 0.255570 0.581420 -0.426747
O2    O     O_R   0.837200 0.593290 0.915250 -0.470724
O3    O     O_R   0.065330 0.635370 0.931590 -0.425859
O4    O     O_R   0.280190 0.527390 0.578910 -0.439165
O5    O     O_R   0.068300 0.828790 0.091860 -0.398940
O6    O     O_R   0.798730 0.057480 0.079370 -0.497312
O7    O     O_R   0.584680 0.080480 0.076790 -0.451321
O8    O     O_R   0.626790 0.809640 0.067050 -0.418005
O9    O     O_R   0.816010 0.596460 0.076500 -0.536824
O10   O     O_R   0.045680 0.638310 0.081070 -0.527084
O11   O     O_3   0.833590 0.833690 0.001120 -0.365429
O12   O     O_R   0.524460 0.695920 0.424060 -0.459863
O13   O     O_R   0.260310 0.739740 0.584580 -0.409372
O14   O     O_R   0.532250 0.695150 0.573830 -0.471444
O15   O     O_R   0.744930 0.503430 0.576380 -0.429569
O16   O     O_R   0.699250 0.276390 0.571950 -0.447738
O17   O     O_R   0.499020 0.256400 0.419850 -0.449461
O18   O     O_R   0.272400 0.528160 0.429140 -0.497140
O19   O     O_R   0.251910 0.740570 0.423020 -0.484898
O20   O     O_3   0.864793 0.225600 0.826126 -0.532739
O21   O     O_3   0.433298 0.216047 0.825129 -0.542663
O22   O     O_3   0.207933 0.470817 0.843252 -0.634354
O23   O     O_R   0.736530 0.504260 0.414810 -0.470865
O24   O     O_3   0.400255 0.734870 0.303518 -0.668179
O25   O     O_3   0.540005 0.044734 0.344143 -0.674614
O26   O     O_3   0.564908 0.985503 0.196483 -0.662197
O27   O     O_3   0.951262 0.956472 0.214674 -0.678786
O28   O     O_3   0.291547 0.421891 0.303635 -0.670110
O29   O     O_3   0.606688 0.877055 0.647029 -0.657321
O30   O     O_3   0.853644 0.722669 0.666433 -0.696135
O31   O     O_3   0.490069 0.660673 0.826796 -0.570807
O32   O     O_R   0.691460 0.277160 0.422180 -0.534588
O33   O     O_3   0.499990 0.499990 0.499980 -0.325078
O34   O     O_R   0.089490 0.825610 0.930610 -0.430186
O35   O     O_R   0.818370 0.054540 0.929880 -0.499306
O36   O     O_R   0.605870 0.077310 0.915530 -0.474510
O37   O     O_R   0.646440 0.806700 0.917570 -0.445522

loop_
_geom_bond_atom_site_label_1
_geom_bond_atom_site_label_2
_ccdc_geom_bond_type
C45   O30   S    
C4    O15   A    
C2    O21   S    
C27   C29   A    
C6    Cl8   S    
C36   O37   A    
C1    C11   S    
Cr5   O36   S    
H8    O27   S    
C7    C8    A    
C45   C46   S    
C27   C33   A    
Cr2   O14   S    
C12   C23   S    
Cr2   O19   S    
C35   O36   A    
C24   H15   S    
C18   O24   S    
Cr5   O37   S    
C30   C31   A    
C39   O9    A    
C28   O19   A    
Cr2   O33   S    
C22   C38   S    
H11   O30   S    
Cr6   O3    S    
C23   C43   S    
C15   C17   A    
C18   C19   A    
C27   H17   S    
Cr6   O9    S    
Cr3   O23   S    
C5    C16   S    
C2    C50   A    
C44   Cl3   S    
C16   O16   A    
C41   O5    A    
C13   Cl12  S    
C28   O18   A    
C8    C9    A    
C4    O14   A    
C38   O7    A    
C25   H16   S    
Cr6   O2    S    
Cr4   O34   S    
C30   C41   S    
Cr3   O33   S    
C40   O23   A    
H9    O28   S    
C9    C10   A    
Cr5   O11   S    
Cr4   O6    S    
C29   O27   S    
C16   O1    A    
C43   H1    S    
C23   C46   S    
C13   C14   A    
Cr5   O7    S    
Cr1   O1    S    
C47   H12   S    
C12   C47   S    
C17   Cl2   S    
Cr1   O33   S    
C49   O20   S    
C4    C34   S    
Cr2   O13   S    
C5    C48   A    
H4    O22   S    
C12   H20   S    
H10   O29   S    
C34   C44   S    
C24   C25   A    
C10   C11   A    
C6    C11   A    
H7    O26   S    
C13   C19   A    
C25   C26   A    
H6    O25   S    
C46   Cl1   S    
C9    Cl9   S    
Cr4   O11   S    
Cr1   O4    S    
C43   C44   S    
C29   C30   A    
C12   O31   S    
C31   C32   A    
C38   O6    A    
C35   C50   S    
C17   C18   A    
C34   C45   S    
C32   O28   S    
Cr1   O18   S    
C15   C39   S    
C43   Cl10  S    
C47   Cl4   S    
C3    Cl7   S    
C48   C49   A    
C28   C33   S    
C49   C50   A    
C1    O4    A    
Cr4   O5    S    
Cr5   O8    S    
C22   C24   A    
C10   Cl11  S    
Cr1   O17   S    
C8    C37   S    
C14   H14   S    
C1    O13   A    
C26   C42   S    
H5    O24   S    
C46   H19   S    
C36   O2    A    
C48   Cl6   S    
C14   C15   A    
C21   O26   S    
C3    C5    A    
C40   O12   A    
C6    C7    A    
H13   O31   S    
C7    O22   S    
C32   C33   A    
C35   O35   A    
C2    C3    A    
Cr6   O11   S    
H2    O20   S    
C42   O32   A    
C20   O25   S    
C20   C26   A    
C44   O29   S    
H3    O21   S    
Cr3   O32   S    
C42   O17   A    
Cr6   O10   S    
C39   O8    A    
C19   C40   S    
C37   O34   A    
Cr4   O35   S    
Cr2   O12   S    
C20   C21   A    
C45   Cl5   S    
C23   C36   S    
C31   H18   S    
Cr3   O15   S    
C41   O10   A    
C34   C47   S    
Cr3   O16   S    
C21   C22   A    
C37   O3    A    
