data_mof_unit_29350.cif
_audit_creation_date              2012-12-10T16:54:04-0500
_audit_creation_method            fapswitch 2.2
_symmetry_space_group_name_H-M    P1
_symmetry_Int_Tables_number       1
_space_group_crystal_system       triclinic
_cell_length_a                    9.661546
_cell_length_b                    10.91598
_cell_length_c                    13.570145
_cell_angle_alpha                 89.721399
_cell_angle_beta                  73.357709
_cell_angle_gamma                 87.94625
_cell_volume                      1370.32601531

loop_
_atom_site_label
_atom_site_type_symbol
_atom_type_description
_atom_site_fract_x
_atom_site_fract_y
_atom_site_fract_z
_atom_type_partial_charge
C1    C     C_R   0.494724 0.735065 0.505339 0.806832
C2    C     C_R   0.446834 0.499472 0.973654 0.084148
C3    C     C_R   0.481223 0.531196 0.868551 0.086389
C4    C     C_R   0.547588 0.520991 0.029154 0.026150
C5    C     C_R   0.691899 0.545281 0.974854 0.148596
C6    C     C_R   0.723964 0.581260 0.872446 -0.242984
C7    C     C_R   0.615885 0.584916 0.823179 -0.200070
C8    C     C_R   0.506158 0.530560 0.137125 -0.083417
C9    C     C_R   0.761328 0.519482 0.131218 -0.220924
C10   C     C_R   0.381702 0.504676 0.812305 -0.102938
C11   C     C_2   0.569691 0.064210 0.560022 0.174226
C12   C     C_R   0.423782 0.506212 0.699386 0.774169
C13   C     C_2   0.513006 0.133534 0.497303 -0.299587
C14   C     C_2   0.580499 0.930467 0.544583 -0.266807
C15   C     C_2   0.473898 0.866613 0.525680 -0.175874
C16   C     C_2   0.054924 0.580816 0.549868 -0.055152
C17   C     C_2   0.900018 0.582939 0.547286 -0.075409
C18   C     C_R   0.502382 0.265430 0.501381 0.857157
C19   C     C_R   0.575474 0.505775 0.300717 0.805445
C20   C     C_R   0.798912 0.541473 0.025859 -0.207130
C21   C     C_R   0.614985 0.517206 0.188322 -0.094576
C22   C     C_R   0.247003 0.457111 0.863552 -0.203657
C23   C     C_R   0.216533 0.422719 0.965747 -0.165360
C24   C     C_R   0.318091 0.438349 0.018676 -0.163983
Cu1   Cu    Cu3+1 0.361370 0.499980 0.499980 0.944779
Cu2   Cu    Cu3+1 0.638630 0.500020 0.500020 0.921706
H1    H     H_    0.846146 0.512721 0.168886 0.162561
H2    H     H_    0.477622 0.092119 0.436625 0.121806
H3    H     H_    0.680111 0.883661 0.548212 0.153956
H4    H     H_    0.085922 0.651570 0.594434 0.154291
H5    H     H_    0.125945 0.435673 0.456706 0.187255
H6    H     H_    0.829978 0.658054 0.586792 0.142877
H7    H     H_    0.910352 0.427721 0.466370 0.182041
H8    H     H_    0.830466 0.612472 0.832086 0.140108
H9    H     H_    0.911058 0.555080 0.984359 0.145054
H10   H     H_    0.169309 0.437029 0.822536 0.158560
H11   H     H_    0.298589 0.396237 0.092981 0.122916
H12   H     H_    0.116896 0.377817 0.002540 0.139049
H13   H     H_    0.641213 0.629022 0.749291 0.164605
N1    N     N_2   0.152660 0.501340 0.501130 -0.279425
N2    N     N_2   0.846520 0.501370 0.501160 -0.291735
O1    O     O_R   0.382960 0.678040 0.499980 -0.570438
O2    O     O_R   0.617100 0.678080 0.500020 -0.586841
O3    O     O_R   0.325800 0.499940 0.650950 -0.579478
O4    O     O_R   0.559930 0.499980 0.650990 -0.574211
O5    O     O_R   0.382900 0.321920 0.499980 -0.572715
O6    O     O_R   0.617040 0.321960 0.500020 -0.578300
O7    O     O_R   0.440070 0.500020 0.349010 -0.577109
O8    O     O_R   0.674200 0.500060 0.349050 -0.585250
C25   C     C_R   0.326001 0.921194 0.537163 0.141245
C26   C     C_R   0.267383 0.920376 0.453562 -0.131564
C27   C     C_R   0.129108 0.971210 0.463840 -0.145079
C28   C     C_R   0.047991 0.022296 0.557670 -0.125919
C29   C     C_R   0.104521 0.021965 0.641644 -0.147442
C30   C     C_R   0.242795 0.971135 0.631721 -0.122209
H14   H     H_    0.329758 0.881704 0.380318 0.133265
H15   H     H_    0.084983 0.971493 0.399003 0.123504
H16   H     H_    0.941386 0.062032 0.565190 0.115034
H17   H     H_    0.041099 0.060933 0.714461 0.127608
H18   H     H_    0.284789 0.970114 0.697562 0.127207
C31   C     C_R   0.369312 0.603271 0.185668 0.149487
C32   C     C_R   0.241379 0.548409 0.242407 -0.095294
C33   C     C_R   0.112775 0.618599 0.277362 -0.137771
C34   C     C_R   0.111009 0.744445 0.258968 -0.101808
C35   C     C_R   0.237833 0.800372 0.204694 -0.168167
C36   C     C_R   0.366177 0.730245 0.167899 -0.153671
H19   H     H_    0.240622 0.451221 0.258684 0.104228
H20   H     H_    0.014125 0.575231 0.318074 0.138310
H21   H     H_    0.011284 0.798505 0.286557 0.122490
H22   H     H_    0.236495 0.897978 0.190414 0.123794
H23   H     H_    0.463077 0.774577 0.124246 0.127656
C37   C     C_3   0.625667 0.116297 0.644403 -0.389547
C38   C     C_3   0.503220 0.167939 0.734218 -0.785606
H24   H     H_    0.436647 0.238707 0.708119 0.245173
H25   H     H_    0.432772 0.093252 0.772568 0.233234
H26   H     H_    0.549358 0.210521 0.791401 0.240496
H27   H     H_    0.683855 0.042856 0.675449 0.183067
H28   H     H_    0.705534 0.187490 0.613601 0.216972

loop_
_geom_bond_atom_site_label_1
_geom_bond_atom_site_label_2
_ccdc_geom_bond_type
C38   H24   S    
C4    C8    A    
C18   O6    A    
C5    C20   A    
C28   C29   A    
C10   C22   A    
C37   H27   S    
C13   C18   S    
C19   C21   S    
C3    C7    A    
Cu1   N1    S    
C5    C6    A    
C11   C14   S    
C16   H4    S    
C35   H22   S    
H5    N1    S    
C26   H14   S    
C15   C25   S    
C37   H28   S    
Cu2   O4    S    
C33   H20   S    
C20   H9    S    
C31   C36   A    
C1    O2    A    
C16   C17   S    
C23   C24   A    
C13   H2    S    
C1    C15   S    
C8    C31   S    
C37   C38   S    
C30   H18   S    
C38   H25   S    
C18   O5    A    
Cu1   O3    S    
Cu2   O2    S    
C25   C26   A    
C29   H17   S    
C26   C27   A    
C24   H11   S    
Cu2   O8    S    
C11   C37   S    
C12   O4    A    
Cu1   Cu2   S    
C6    H8    S    
C2    C4    A    
C32   C33   A    
C19   O8    A    
C9    C20   A    
C36   H23   S    
C14   C15   D    
C8    C21   A    
C34   H21   S    
Cu1   O7    S    
C10   C12   S    
Cu2   O6    S    
C16   N1    D    
C32   H19   S    
C2    C24   A    
C38   H26   S    
C14   H3    S    
C27   C28   A    
C9    H1    S    
C29   C30   A    
C19   O7    A    
C4    C5    A    
Cu1   O1    S    
C28   H16   S    
C6    C7    A    
C23   H12   S    
C22   H10   S    
C25   C30   A    
H7    N2    S    
C34   C35   A    
C2    C3    A    
C12   O3    A    
C3    C10   A    
C11   C13   D    
C9    C21   A    
C31   C32   A    
C17   N2    D    
C27   H15   S    
C33   C34   A    
C1    O1    A    
C35   C36   A    
C17   H6    S    
C7    H13   S    
C22   C23   A    
Cu1   O5    S    
Cu2   N2    S    
