data_mof_unit_53507.cif
_audit_creation_date              2012-12-10T19:28:36-0500
_audit_creation_method            fapswitch 2.2
_symmetry_space_group_name_H-M    P1
_symmetry_Int_Tables_number       1
_space_group_crystal_system       triclinic
_cell_length_a                    27.378565
_cell_length_b                    10.506518
_cell_length_c                    9.828985
_cell_angle_alpha                 89.763679
_cell_angle_beta                  90.063439
_cell_angle_gamma                 89.984561
_cell_volume                      2827.31492731

loop_
_atom_site_label
_atom_site_type_symbol
_atom_type_description
_atom_site_fract_x
_atom_site_fract_y
_atom_site_fract_z
_atom_type_partial_charge
C1    C     C_R   0.499949 0.258155 0.500471 1.089106
C2    C     C_R   0.876018 0.489864 0.378592 -0.219205
C3    C     C_R   0.354240 0.525764 0.499423 -0.271570
C4    C     C_R   0.646554 0.501132 0.500443 -0.270338
C5    C     C_R   0.978088 0.532006 0.373620 -0.054811
C6    C     C_R   0.025512 0.620708 0.615766 -0.054056
C7    C     C_R   0.975646 0.583879 0.618906 0.117657
C8    C     C_R   0.027826 0.569935 0.370758 0.117041
C9    C     C_R   0.951645 0.547393 0.496663 0.046660
C10   C     C_R   0.051958 0.602831 0.493545 0.047390
C11   C     C_R   0.953915 0.472303 0.261557 0.018546
C12   C     C_R   0.499919 0.741841 0.499558 1.092188
C13   C     C_R   0.050427 0.677797 0.728022 0.017144
C14   C     C_R   0.902899 0.463706 0.260721 0.683751
C15   C     C_R   0.101591 0.677118 0.731299 0.685203
C16   C     C_R   0.406296 0.501468 0.499864 0.972621
C17   C     C_R   0.593687 0.500490 0.500130 0.982914
C18   C     C_R   0.053943 0.584162 0.247968 -0.216734
C19   C     C_R   0.949923 0.570414 0.742433 -0.217623
C20   C     C_3   0.540178 0.042501 0.437901 0.477918
C21   C     C_3   0.459580 0.957456 0.562304 0.493363
C22   C     C_3   0.500470 0.960860 0.370652 0.518088
C23   C     C_R   0.103231 0.618142 0.493331 -0.132765
C24   C     C_3   0.499276 0.039138 0.629513 0.516354
C25   C     C_3   0.499883 0.876242 0.498351 -0.636284
C26   C     C_3   0.499876 0.123739 0.501808 -0.641163
C27   C     C_3   0.539577 0.957392 0.565414 0.448879
C28   C     C_3   0.460162 0.042604 0.434803 0.462767
C29   C     C_3   0.500022 0.385863 0.048431 0.768243
C30   C     C_3   0.499972 0.614097 0.951544 0.768063
C31   C     C_3   0.538049 0.442760 0.952373 -0.075981
C32   C     C_3   0.461952 0.557225 0.047580 -0.073749
C33   C     C_3   0.461931 0.442769 0.952312 -0.019797
C34   C     C_R   0.900845 0.522572 0.499023 -0.132889
C35   C     C_3   0.538060 0.557214 0.047629 -0.021219
C36   C     C_R   0.180494 0.601551 0.375866 0.561644
C37   C     C_R   0.824052 0.516760 0.621015 0.566753
C38   C     C_R   0.179557 0.638214 0.615416 0.657934
C39   C     C_R   0.824934 0.477820 0.381982 0.653137
C40   C     C_R   0.289296 0.678442 0.456648 -0.003463
C41   C     C_R   0.721786 0.385739 0.544548 -0.008798
C42   C     C_R   0.338684 0.645922 0.453948 0.594888
C43   C     C_R   0.670814 0.391254 0.545467 0.588361
C44   C     C_R   0.320441 0.435692 0.548652 -0.109515
C45   C     C_R   0.129562 0.605282 0.371244 0.001755
C46   C     C_R   0.672987 0.608580 0.455494 -0.122645
C47   C     C_R   0.270914 0.467902 0.549420 0.675433
C48   C     C_R   0.723912 0.603078 0.455837 0.682448
C49   C     C_R   0.255328 0.587768 0.503248 0.049362
C50   C     C_R   0.748210 0.493127 0.500024 0.054913
C51   C     C_3   0.335396 0.304800 0.597266 -0.620365
C52   C     C_3   0.648697 0.730835 0.410362 -0.576897
C53   C     C_3   0.582368 0.373230 0.896592 -0.550086
C54   C     C_3   0.417707 0.627152 0.103158 -0.557683
C55   C     C_3   0.417583 0.373353 0.896450 -0.656493
C56   C     C_R   0.874792 0.530422 0.622283 -0.000710
C57   C     C_3   0.582285 0.627232 0.103226 -0.655647
C58   C     C_3   0.746651 0.264784 0.589971 -0.591905
C59   C     C_3   0.274158 0.809662 0.410442 -0.578281
C60   C     C_3   0.980168 0.395705 0.153749 -0.790350
C61   C     C_3   0.025331 0.759310 0.833583 -0.791404
C62   C     C_R   0.104385 0.596330 0.248104 -0.099159
C63   C     C_R   0.900010 0.548891 0.743988 -0.101121
C64   C     C_R   0.128299 0.643461 0.615275 -0.217433
F1    F     F_    0.581452 0.089911 0.374549 -0.538938
F2    F     F_    0.372000 0.732840 0.409887 -0.624805
F3    F     F_    0.880234 0.418928 0.147314 -0.613611
F4    F     F_    0.124858 0.718798 0.845082 -0.614787
F5    F     F_    0.501087 0.918340 0.237675 -0.527553
F6    F     F_    0.498663 0.081652 0.762495 -0.527493
F7    F     F_    0.418338 0.910068 0.625834 -0.542252
F8    F     F_    0.580172 0.909997 0.632366 -0.565412
F9    F     F_    0.419489 0.090172 0.368325 -0.563042
F10   F     F_    0.500047 0.264324 0.102864 -0.547745
F11   F     F_    0.499946 0.735632 0.897093 -0.547686
F12   F     F_    0.237289 0.381703 0.592776 -0.631816
F13   F     F_    0.750367 0.705689 0.414698 -0.626934
F14   F     F_    0.644628 0.288443 0.587798 -0.618338
H1    H     H_    0.123514 0.597409 0.151659 0.226244
H2    H     H_    0.658000 0.750527 0.302402 0.249624
H3    H     H_    0.601951 0.325203 0.981340 0.243003
H4    H     H_    0.570610 0.300812 0.821550 0.295141
H5    H     H_    0.607593 0.442157 0.847829 0.232857
H6    H     H_    0.398033 0.674594 0.018199 0.241779
H7    H     H_    0.392525 0.558642 0.152735 0.231004
H8    H     H_    0.429613 0.700135 0.177363 0.302581
H9    H     H_    0.398017 0.325396 0.981127 0.251800
H10   H     H_    0.392369 0.442388 0.847616 0.235623
H11   H     H_    0.429297 0.300892 0.821464 0.275678
H12   H     H_    0.881382 0.545686 0.841157 0.225152
H13   H     H_    0.601979 0.674368 0.018254 0.253703
H14   H     H_    0.570328 0.700494 0.176981 0.272996
H15   H     H_    0.607453 0.558862 0.153287 0.238121
H16   H     H_    0.737701 0.245519 0.698265 0.262048
H17   H     H_    0.733540 0.184072 0.527148 0.266207
H18   H     H_    0.786939 0.269106 0.579917 0.204117
H19   H     H_    0.283510 0.822454 0.301348 0.261931
H20   H     H_    0.234493 0.827221 0.422998 0.204273
H21   H     H_    0.293910 0.882324 0.471061 0.268846
H22   H     H_    0.960938 0.304045 0.136428 0.273909
H23   H     H_    0.035919 0.585461 0.150488 0.165478
H24   H     H_    0.980791 0.448755 0.055910 0.232710
H25   H     H_    0.017557 0.368108 0.185712 0.240090
H26   H     H_    0.045577 0.850109 0.846582 0.273031
H27   H     H_    0.987974 0.787664 0.801993 0.239189
H28   H     H_    0.024651 0.709411 0.933295 0.234387
H29   H     H_    0.967989 0.573761 0.839734 0.164907
H30   H     H_    0.375123 0.286678 0.587391 0.213536
H31   H     H_    0.325300 0.293107 0.705974 0.252158
H32   H     H_    0.316076 0.231428 0.536576 0.276447
H33   H     H_    0.608398 0.728713 0.419650 0.202578
H34   H     H_    0.662103 0.810800 0.473782 0.295612
N1    N     N_R   0.204107 0.612747 0.497679 -0.333404
N2    N     N_R   0.800331 0.493878 0.501450 -0.333244
N3    N     N_3   0.499960 0.500030 0.863290 -0.172614
N4    N     N_3   0.500040 0.499970 0.136710 -0.172171
O1    O     O_R   0.500000 0.313960 0.616610 -0.610957
O2    O     O_2   0.798415 0.528159 0.737580 -0.511272
O3    O     O_2   0.799771 0.451243 0.267438 -0.438131
O4    O     O_2   0.204804 0.655703 0.731805 -0.437987
O5    O     O_R   0.500000 0.686040 0.383390 -0.608490
O6    O     O_R   0.500020 0.313950 0.383350 -0.523707
O7    O     O_R   0.499980 0.686050 0.616650 -0.524718
O8    O     O_R   0.428750 0.500030 0.616610 -0.627738
O9    O     O_R   0.571250 0.499970 0.383390 -0.630001
O10   O     O_R   0.428770 0.500020 0.383360 -0.606550
O11   O     O_R   0.571230 0.499980 0.616640 -0.611096
O12   O     O_2   0.206266 0.583071 0.260614 -0.517937
Zn1   Zn    Zn3+2 0.499990 0.500010 0.655740 1.050991
Zn2   Zn    Zn3+2 0.500010 0.499990 0.344260 1.052289

loop_
_geom_bond_atom_site_label_1
_geom_bond_atom_site_label_2
_ccdc_geom_bond_type
C33   C55   S    
C49   N1    S    
C3    C42   A    
C34   C56   A    
C23   C45   A    
C57   H14   S    
C29   C33   S    
C59   H21   S    
C24   C27   S    
O5    Zn2   S    
C32   N4    S    
C54   H6    S    
C24   F6    S    
C47   C49   A    
C4    C46   A    
C43   F14   S    
C30   C35   S    
C21   F7    S    
C24   C26   S    
C41   C58   S    
C5    C11   A    
C11   C14   A    
C36   N1    A    
C40   C49   A    
C46   C52   S    
C45   C62   A    
C53   H3    S    
C31   N3    S    
C55   H10   S    
C58   H18   S    
C1    O6    A    
C37   C56   A    
O9    Zn2   S    
C12   O5    A    
O10   Zn2   S    
C19   C63   A    
C51   H30   S    
C22   C25   S    
C14   F3    S    
C60   H25   S    
C61   H27   S    
C22   F5    S    
C44   C47   A    
C38   O4    S    
C2    C34   A    
C40   C42   A    
C51   H31   S    
C40   C59   S    
C22   C28   S    
O7    Zn1   S    
C41   C43   A    
C36   O12   S    
C60   H24   S    
C28   F9    S    
C2    C39   A    
C32   C54   S    
C38   C64   A    
C30   N3    S    
C46   C48   A    
C3    C44   A    
C33   N3    S    
C37   O2    S    
C62   H1    S    
C35   N4    S    
C61   H26   S    
C16   O8    A    
C54   H8    S    
C38   N1    A    
C17   O11   A    
C37   N2    A    
C52   H33   S    
C8    C18   A    
C53   H4    S    
C50   N2    S    
C18   H23   S    
C48   F13   S    
C58   H17   S    
O11   Zn1   S    
C5    C9    A    
C5    C8    A    
C20   F1    S    
C15   C64   A    
C39   N2    A    
C56   C63   A    
N4    Zn2   S    
C36   C45   A    
C1    O1    A    
C31   C53   S    
C61   H28   S    
C4    C17   S    
C44   C51   S    
C8    C10   A    
C23   C64   A    
C4    C43   A    
C29   N4    S    
C20   C22   S    
C51   H32   S    
C7    C19   A    
C13   C15   A    
C9    C34   A    
C59   H19   S    
C31   C35   S    
C11   C60   S    
C41   C50   A    
O1    Zn1   S    
N3    Zn1   S    
C7    C9    A    
C21   C25   S    
C57   H13   S    
C21   C28   S    
C18   C62   A    
C60   H22   S    
C47   F12   S    
C54   H7    S    
C6    C7    A    
C29   F10   S    
C20   C27   S    
C10   C23   A    
C25   C27   S    
C26   C28   S    
C53   H5    S    
C12   C25   S    
C35   C57   S    
C32   C33   S    
C58   H16   S    
C29   C31   S    
C6    C13   A    
C30   C32   S    
C30   F11   S    
C17   O9    A    
C1    C26   S    
C12   O7    A    
C20   C26   S    
C39   O3    S    
C15   F4    S    
C63   H12   S    
C48   C50   A    
O8    Zn1   S    
C55   H9    S    
C2    C14   A    
C6    C10   A    
C3    C16   S    
C13   C61   S    
C55   H11   S    
C21   C24   S    
C42   F2    S    
C59   H20   S    
C52   H34   S    
C57   H15   S    
C52   H2    S    
C16   O10   A    
O6    Zn2   S    
C27   F8    S    
C19   H29   S    
