data_mof_unit_17829.cif
_audit_creation_date              2013-03-05T15:44:48-0500
_audit_creation_method            fapswitch 2.2
_symmetry_space_group_name_H-M    P1
_symmetry_Int_Tables_number       1
_space_group_crystal_system       triclinic
_cell_length_a                    12.93016
_cell_length_b                    13.076634
_cell_length_c                    15.296497
_cell_angle_alpha                 116.188825
_cell_angle_beta                  63.222672
_cell_angle_gamma                 97.150767
_cell_volume                      2063.04809198

loop_
_atom_site_label
_atom_site_type_symbol
_atom_site_description
_atom_site_fract_x
_atom_site_fract_y
_atom_site_fract_z
_atom_type_partial_charge
C1    C     C_R   0.005482 0.833198 0.047084 0.353907
N1    N     N_R   0.037310 0.720000 0.995790 -0.093647
C2    C     C_R   0.677844 0.478117 0.219478 -0.110837
H1    H     H_    0.608620 0.450240 0.195704 0.116941
N2    N     N_R   0.790790 0.446160 0.152010 -0.044114
C3    C     C_R   0.757360 0.513047 0.888617 -0.098399
H2    H     H_    0.781398 0.539728 0.824841 0.124579
N3    N     N_R   0.824890 0.517960 0.936420 -0.049811
C4    C     C_R   0.011569 0.698741 0.304032 -0.142533
H3    H     H_    0.986359 0.665203 0.363307 0.113557
N4    N     N_R   0.003210 0.648190 0.211380 -0.045910
C5    C     C_R   0.679153 0.416795 0.987533 -0.096891
H4    H     H_    0.637322 0.353367 0.015156 0.169714
N5    N     N_R   0.774330 0.457010 0.995840 -0.059151
C6    C     C_R   0.094679 0.798848 0.209163 -0.020205
H5    H     H_    0.149385 0.857844 0.181486 0.186916
N6    N     N_R   0.053760 0.709140 0.151960 -0.058534
C7    C     C_R   0.779828 0.562506 0.314642 -0.097272
H6    H     H_    0.805003 0.612041 0.378654 0.095667
N7    N     N_R   0.853860 0.498840 0.211410 -0.044206
C8    C     C_R   0.899980 0.746999 0.956427 -0.182685
H7    H     H_    0.835793 0.730073 0.925918 0.147672
N8    N     N_R   0.974240 0.667310 0.936390 -0.068612
C9    C     C_R   0.914681 0.851905 0.028475 0.025747
C10   C     C_R   0.668155 0.553037 0.322236 0.045433
C11   C     C_R   0.666205 0.447972 0.918461 0.156996
C12   C     C_R   0.069433 0.792564 0.303359 0.017982
C13   C     C_R   0.340966 0.530585 0.965410 0.161132
N9    N     N_R   0.225670 0.542990 0.004160 -0.056915
C14   C     C_R   0.959677 0.180363 0.782229 -0.111936
H8    H     H_    0.921457 0.112831 0.805649 0.126584
N10   N     N_R   0.946240 0.290860 0.848040 -0.051360
C15   C     C_R   0.196354 0.516746 0.698261 -0.087709
H9    H     H_    0.152283 0.511592 0.651799 0.129989
N11   N     N_R   0.146140 0.501160 0.788590 -0.050719
C16   C     C_R   0.050764 0.255498 0.088721 -0.116834
H10   H     H_    0.085944 0.274480 0.145696 0.142522
N12   N     N_R   0.025760 0.332690 0.063610 -0.060582
C17   C     C_R   0.952868 0.172017 0.992391 -0.211943
H11   H     H_    0.899403 0.114259 0.958759 0.109232
N13   N     N_R   0.962690 0.280000 0.004210 -0.040848
C18   C     C_R   0.298837 0.596775 0.790389 -0.074599
H12   H     H_    0.350252 0.658061 0.823209 0.153998
N14   N     N_R   0.209210 0.553840 0.847990 -0.048255
C19   C     C_R   0.258342 0.417089 0.048702 -0.085806
H13   H     H_    0.244026 0.356679 0.082045 0.168384
N15   N     N_R   0.175110 0.482040 0.063580 -0.065770
C20   C     C_R   0.036549 0.279730 0.683282 0.224932
N16   N     N_R   0.996790 0.351810 0.788620 -0.070109
Ni1   Ni    Ni4+2 0.130310 0.630310 0.999970 0.279560
Ni2   Ni    Ni4+2 0.869690 0.369690 0.000030 0.240513
Ni3   Ni    Ni4+2 0.985640 0.509470 0.863740 0.229653
Ni4   Ni    Ni4+2 0.014360 0.490530 0.136260 0.224528
C21   C     C_R   0.363853 0.442027 0.983526 -0.075452
C22   C     C_R   0.019404 0.172190 0.679229 -0.019544
C23   C     C_R   0.293249 0.574546 0.695851 0.011882
C24   C     C_R   0.008450 0.152382 0.043588 0.248334
C25   C     C_R   0.155761 0.918035 0.420101 -0.139831
H14   H     H_    0.240176 0.869850 0.363749 0.145688
C26   C     C_R   0.141159 0.012097 0.515310 -0.155706
H15   H     H_    0.214661 0.038553 0.533756 0.149647
C27   C     C_R   0.031379 0.072743 0.585635 0.051592
C28   C     C_R   0.935565 0.042156 0.563016 0.245797
C29   C     C_R   0.950339 0.947733 0.469168 -0.187285
H16   H     H_    0.877413 0.922350 0.449629 0.173758
C30   C     C_R   0.059699 0.887208 0.398954 0.091806
C31   C     C_R   0.563903 0.660286 0.523129 -0.136190
H17   H     H_    0.642551 0.694024 0.528526 0.122610
C32   C     C_R   0.469844 0.664787 0.617213 -0.128860
H18   H     H_    0.479941 0.701053 0.691233 0.140408
C33   C     C_R   0.371156 0.610221 0.611391 0.122393
C34   C     C_R   0.359103 0.571713 0.515331 -0.144661
H19   H     H_    0.282156 0.534152 0.508673 0.137883
C35   C     C_R   0.453206 0.567064 0.421351 -0.145420
H20   H     H_    0.444628 0.526892 0.346518 0.135735
C36   C     C_R   0.559932 0.600032 0.422881 0.124888
C37   C     C_2   0.476169 0.383638 0.943773 0.323331
C38   C     C_2   0.574195 0.416591 0.883477 -0.231018
H21   H     H_    0.572101 0.456983 0.835872 0.153270
C39   C     C_2   0.840091 0.957760 0.078926 -0.259215
H22   H     H_    0.824631 0.982294 0.026607 0.126398
C40   C     C_2   0.777130 0.016106 0.186572 0.297795
N17   N     N_R   0.077764 0.918075 0.081022 0.216704
O1    O     O_R   0.190290 0.896358 0.026839 -0.400313
O2    O     O_R   0.033765 0.021610 0.154105 -0.392460
I1    I     I_    0.062104 0.317787 0.554109 -0.391216
I2    I     I_    0.770404 0.138006 0.660914 -0.290165
N18   N     N_R   0.479447 0.293968 0.973252 0.229798
O3    O     O_R   0.424531 0.310033 0.074178 -0.427268
O4    O     O_R   0.542962 0.198037 0.899792 -0.348783
I3    I     I_    0.772153 0.972135 0.306453 -0.336376
I4    I     I_    0.442670 0.670925 0.960743 -0.439898

loop_
_geom_bond_atom_site_label_1
_geom_bond_atom_site_label_2
_geom_bond_distance
_ccdc_geom_bond_type
C20   C22   1.374184 A    
C17   N13   1.339193 A    
N2    N7    1.393015 A    
C37   C38   1.343266 D    
C11   C38   1.458904 S    
C35   C36   1.401001 A    
N9    N15   1.364939 A    
C16   H10   1.079920 S    
C7    H6    1.076642 S    
C14   H8    1.078646 S    
C39   H22   1.081724 S    
C25   C26   1.377851 A    
C6    H5    1.075801 S    
C17   C24   1.387894 A    
C22   C27   1.404215 S    
C26   C27   1.397289 A    
C1    N1    1.345985 A    
C32   C33   1.401786 A    
N1    Ni1   1.819962 S    
C18   C23   1.377978 A    
C25   C30   1.390044 A    
N4    N6    1.364927 A    
N5    Ni2   1.820602 S    
C37   N18   1.440951 S    
C4    H3    1.081569 S    
N3    Ni3   1.853359 S    
N4    Ni4   1.850758 S    
N15   Ni4   1.853358 S    
C21   C37   1.460264 S    
C23   C33   1.464184 S    
C15   C23   1.374602 A    
C8    H7    1.080581 S    
C7    C10   1.389557 A    
C18   N14   1.337599 A    
C9    C39   1.469908 S    
N9    Ni1   1.820603 S    
C19   N15   1.329530 A    
C35   H20   1.080603 S    
C31   H17   1.080456 S    
C2    C10   1.392865 A    
N12   N13   1.393032 A    
C34   C35   1.384197 A    
C16   C24   1.388948 A    
C17   H11   1.077269 S    
C13   C21   1.395659 A    
C38   H21   1.082033 S    
N7    Ni4   1.853753 S    
C3    N3    1.349492 A    
C25   H14   1.084195 S    
C19   H13   1.073590 S    
C40   I3    2.124279 S    
C5    C11   1.366440 A    
C26   H15   1.084499 S    
C31   C32   1.385547 A    
C29   C30   1.392601 A    
N10   Ni2   1.874217 S    
C27   C28   1.398296 A    
C6    C12   1.365069 A    
N17   O1    1.301188 A    
N16   Ni3   1.850758 S    
C15   H9    1.071196 S    
C13   I4    2.128982 S    
C5    H4    1.072742 S    
N11   N14   1.393015 A    
C4    N4    1.323081 A    
C39   C40   1.339433 D    
C20   N16   1.335182 A    
N17   O2    1.299681 A    
C5    N5    1.314532 A    
C19   C21   1.382813 A    
C8    N8    1.343069 A    
C20   I1    2.121241 S    
C18   H12   1.072016 S    
C2    H1    1.077661 S    
N1    N8    1.393032 A    
C4    C12   1.356772 A    
N14   Ni1   1.873579 S    
C6    N6    1.333533 A    
C13   N9    1.333885 A    
N3    N5    1.364938 A    
C28   I2    2.121851 S    
N18   O4    1.300597 A    
C34   H19   1.080278 S    
C2    N2    1.336314 A    
N6    Ni1   1.874216 S    
C3    H2    1.081774 S    
C1    N17   1.430119 S    
C14   C22   1.365922 A    
C10   C36   1.464176 S    
C29   H16   1.084942 S    
C16   N12   1.344004 A    
C33   C34   1.403790 A    
C12   C30   1.400485 S    
C14   N10   1.323788 A    
N8    Ni3   1.849439 S    
C3    C11   1.389285 A    
N12   Ni4   1.849438 S    
C15   N11   1.333982 A    
C7    N7    1.333782 A    
C32   H18   1.080639 S    
N10   N16   1.364925 A    
C28   C29   1.367093 A    
N18   O3    1.301862 A    
C1    C9    1.397657 A    
C8    C9    1.386355 A    
N11   Ni3   1.853751 S    
N2    Ni2   1.873579 S    
C31   C36   1.403325 A    
N13   Ni2   1.819964 S    
