data_mof_unit_24280.cif
_audit_creation_date              2012-12-10T17:17:55-0500
_audit_creation_method            fapswitch 2.2
_symmetry_space_group_name_H-M    P1
_symmetry_Int_Tables_number       1
_space_group_crystal_system       triclinic
_cell_length_a                    14.930139
_cell_length_b                    15.746216
_cell_length_c                    9.562482
_cell_angle_alpha                 89.714641
_cell_angle_beta                  91.160768
_cell_angle_gamma                 89.977631
_cell_volume                      2247.58495519

loop_
_atom_site_label
_atom_site_type_symbol
_atom_type_description
_atom_site_fract_x
_atom_site_fract_y
_atom_site_fract_z
_atom_type_partial_charge
C1    C     C_R   0.386102 0.877002 0.500029 0.806926
C2    C     C_R   0.386796 0.123449 0.499556 0.799043
C3    C     C_R   0.886102 0.377002 0.500029 0.806926
C4    C     C_R   0.886796 0.623449 0.499556 0.799041
C5    C     C_R   0.278146 0.216543 0.378611 -0.211805
C6    C     C_R   0.275895 0.786385 0.378918 -0.218983
C7    C     C_R   0.778149 0.716545 0.378611 -0.211806
C8    C     C_R   0.775893 0.286386 0.378918 -0.218984
C9    C     C_R   0.710719 0.776332 0.381398 -0.215278
C10   C     C_R   0.707682 0.227206 0.380860 -0.219287
C11   C     C_R   0.210717 0.276330 0.381399 -0.215274
C12   C     C_R   0.207683 0.727205 0.380861 -0.219291
C13   C     C_R   0.683266 0.810303 0.508740 -0.105836
C14   C     C_R   0.680210 0.192070 0.507811 -0.102598
C15   C     C_R   0.183266 0.310303 0.508740 -0.105839
C16   C     C_R   0.180210 0.692070 0.507811 -0.102596
C17   C     C_R   0.665153 0.000831 0.149046 -0.158589
C18   C     C_R   0.165153 0.500831 0.149046 -0.158589
C19   C     C_R   0.745560 0.001815 0.078712 -0.256974
C20   C     C_R   0.245560 0.501816 0.078712 -0.256974
C21   C     C_R   0.745319 0.000910 0.934684 -0.182597
C22   C     C_R   0.245319 0.500911 0.934684 -0.182593
C23   C     C_R   0.664605 0.999961 0.860145 -0.141112
C24   C     C_R   0.164605 0.499962 0.860145 -0.141117
C25   C     C_R   0.581039 0.000000 0.927459 0.172302
C26   C     C_R   0.081039 0.500000 0.927459 0.172298
C27   C     C_R   0.581122 0.000180 0.077253 0.209365
C28   C     C_R   0.081122 0.500181 0.077253 0.209369
C29   C     C_R   0.422866 0.000192 0.071575 -0.100714
C30   C     C_R   0.922866 0.500191 0.071575 -0.100709
C31   C     C_R   0.615553 0.122095 0.501758 0.773848
C32   C     C_R   0.616648 0.878695 0.502289 0.776833
C33   C     C_R   0.115553 0.622095 0.501758 0.773848
C34   C     C_R   0.116648 0.378695 0.502289 0.776832
C35   C     C_R   0.422904 0.000224 0.923427 -0.076318
C36   C     C_R   0.922904 0.500223 0.923427 -0.076320
C37   C     C_R   0.366573 0.236001 0.745058 -0.191735
C38   C     C_R   0.361313 0.764624 0.748023 -0.188931
C39   C     C_R   0.866571 0.736000 0.745061 -0.191736
C40   C     C_R   0.861315 0.264621 0.748020 -0.188938
C41   C     C_R   0.336357 0.256796 0.877885 0.136752
C42   C     C_R   0.330822 0.738996 0.879007 0.138663
C43   C     C_R   0.836354 0.756794 0.877887 0.136752
C44   C     C_R   0.830824 0.238995 0.879004 0.138662
C45   C     C_R   0.747948 0.784307 0.891172 -0.162660
C46   C     C_R   0.742145 0.212395 0.890418 -0.174286
C47   C     C_R   0.247951 0.284310 0.891171 -0.162656
C48   C     C_R   0.242144 0.712394 0.890419 -0.174289
C49   C     C_R   0.694393 0.799282 0.772024 -0.213892
C50   C     C_R   0.688700 0.201846 0.770517 -0.201613
C51   C     C_R   0.194396 0.299284 0.772025 -0.213893
C52   C     C_R   0.188699 0.701845 0.770517 -0.201612
C53   C     C_R   0.727308 0.784389 0.636062 0.092449
C54   C     C_R   0.722947 0.217835 0.635603 0.096130
C55   C     C_R   0.227309 0.284390 0.636062 0.092449
C56   C     C_R   0.222946 0.717835 0.635604 0.096129
C57   C     C_R   0.308374 0.239491 0.626668 0.077086
C58   C     C_R   0.304190 0.762560 0.628075 0.066720
C59   C     C_R   0.808374 0.739490 0.626669 0.077088
C60   C     C_R   0.804191 0.262559 0.628073 0.066724
C61   C     C_R   0.326902 0.196796 0.500497 -0.114981
C62   C     C_R   0.324386 0.805058 0.501564 -0.108932
C63   C     C_R   0.826903 0.696797 0.500498 -0.114980
C64   C     C_R   0.824386 0.305058 0.501563 -0.108934
Cu1   Cu    Cu3+1 0.499990 1.000000 0.640660 0.908858
Cu2   Cu    Cu3+1 0.999990 0.500000 0.640660 0.908858
Cu3   Cu    Cu3+1 0.500010 0.000000 0.359340 0.919302
Cu4   Cu    Cu3+1 0.000010 0.500000 0.359340 0.919304
H1    H     H_    0.291478 0.185258 0.280894 0.158026
H2    H     H_    0.290349 0.817876 0.281042 0.156038
H3    H     H_    0.791481 0.685261 0.280893 0.158026
H4    H     H_    0.790346 0.317878 0.281042 0.156036
H5    H     H_    0.808133 0.001224 0.879987 0.150649
H6    H     H_    0.308133 0.501225 0.879987 0.150653
H7    H     H_    0.671856 0.999472 0.750036 0.208971
H8    H     H_    0.171856 0.499472 0.750036 0.208972
H9    H     H_    0.359780 0.000346 0.865889 0.152112
H10   H     H_    0.859780 0.500345 0.865889 0.152113
H11   H     H_    0.435517 0.216114 0.735231 0.145956
H12   H     H_    0.430166 0.785182 0.741094 0.153463
H13   H     H_    0.935516 0.716113 0.735234 0.145956
H14   H     H_    0.930169 0.285177 0.741089 0.153461
H15   H     H_    0.720702 0.795516 0.993576 0.140637
H16   H     H_    0.714588 0.197982 0.991769 0.138440
H17   H     H_    0.220707 0.295520 0.993576 0.140631
H18   H     H_    0.214586 0.697981 0.991769 0.138440
H19   H     H_    0.626146 0.817670 0.790408 0.174520
H20   H     H_    0.619841 0.184733 0.787315 0.168197
H21   H     H_    0.126148 0.317672 0.790409 0.174521
H22   H     H_    0.119840 0.684732 0.787315 0.168198
H23   H     H_    0.678489 0.794238 0.283335 0.161818
H24   H     H_    0.675110 0.210352 0.282609 0.160879
H25   H     H_    0.178485 0.294234 0.283336 0.161815
H26   H     H_    0.175111 0.710351 0.282609 0.160878
H27   H     H_    0.359742 0.000301 0.125130 0.137340
H28   H     H_    0.859742 0.500300 0.125130 0.137340
H29   H     H_    0.673431 0.000678 0.259467 0.207857
H30   H     H_    0.173431 0.500678 0.259467 0.207856
H31   H     H_    0.808599 0.003066 0.136723 0.153185
H32   H     H_    0.308599 0.503067 0.136723 0.153186
N1    N     N_R   0.501200 1.000000 0.147910 -0.194357
N2    N     N_R   0.001200 0.500000 0.147910 -0.194356
N3    N     N_R   0.501270 1.000000 0.852040 -0.206463
N4    N     N_R   0.001270 0.500000 0.852040 -0.206464
O1    O     O_R   0.409820 0.909830 0.618810 -0.584900
O2    O     O_R   0.409820 0.090170 0.618810 -0.582279
O3    O     O_R   0.909820 0.409830 0.618810 -0.584898
O4    O     O_R   0.909820 0.590170 0.618810 -0.582279
O5    O     O_R   0.409840 0.909830 0.381240 -0.577699
O6    O     O_R   0.409840 0.090170 0.381240 -0.583591
O7    O     O_R   0.909840 0.409830 0.381240 -0.577699
O8    O     O_R   0.909840 0.590170 0.381240 -0.583592
O9    O     O_R   0.590170 0.090170 0.618760 -0.616822
O10   O     O_R   0.590170 0.909830 0.618760 -0.616649
O11   O     O_R   0.090170 0.590170 0.618760 -0.616822
O12   O     O_R   0.090170 0.409830 0.618760 -0.616649
O13   O     O_R   0.590190 0.090180 0.381190 -0.598018
O14   O     O_R   0.590190 0.909820 0.381190 -0.598656
O15   O     O_R   0.090190 0.590180 0.381190 -0.598020
O16   O     O_R   0.090190 0.409820 0.381190 -0.598652
C65   C     C_3   0.396263 0.242295 0.004914 -0.405612
C66   C     C_3   0.412051 0.324266 0.087658 -0.354482
C67   C     C_3   0.482774 0.311249 0.203358 -0.824687
H33   H     H_    0.462591 0.259327 0.275096 0.265195
H34   H     H_    0.548342 0.295141 0.157429 0.243327
H35   H     H_    0.490541 0.370604 0.264600 0.238089
H36   H     H_    0.434797 0.375552 0.016335 0.219249
H37   H     H_    0.348559 0.344582 0.136015 0.222996
H38   H     H_    0.364995 0.193720 0.072604 0.190670
H39   H     H_    0.462090 0.216239 0.973258 0.196523
C68   C     C_3   0.391081 0.745927 0.006831 -0.415364
C69   C     C_3   0.470206 0.684020 0.000666 -0.345517
C70   C     C_3   0.534570 0.697258 0.124484 -0.842764
H40   H     H_    0.560915 0.763186 0.122704 0.250425
H41   H     H_    0.499903 0.685956 0.224594 0.259215
H42   H     H_    0.591732 0.652427 0.117699 0.235982
H43   H     H_    0.444908 0.617613 0.002334 0.218324
H44   H     H_    0.507822 0.693809 0.902804 0.211398
H45   H     H_    0.416082 0.812256 0.014716 0.206892
H46   H     H_    0.352970 0.731914 0.102798 0.194328
C71   C     C_3   0.896258 0.742292 0.004918 -0.405615
C72   C     C_3   0.912042 0.824262 0.087668 -0.354483
C73   C     C_3   0.982763 0.811245 0.203371 -0.824680
H47   H     H_    0.962583 0.759317 0.275099 0.265197
H48   H     H_    0.048334 0.795146 0.157443 0.243326
H49   H     H_    0.990522 0.870597 0.264623 0.238088
H50   H     H_    0.934786 0.875551 0.016351 0.219249
H51   H     H_    0.848548 0.844574 0.136025 0.222996
H52   H     H_    0.864992 0.693714 0.072603 0.190667
H53   H     H_    0.962088 0.716240 0.973262 0.196523
C74   C     C_3   0.891086 0.245922 0.006824 -0.415355
C75   C     C_3   0.970191 0.183990 0.000669 -0.345489
C76   C     C_3   0.034561 0.197218 0.124484 -0.842738
H54   H     H_    0.060946 0.263132 0.122669 0.250401
H55   H     H_    0.999885 0.185956 0.224599 0.259213
H56   H     H_    0.091696 0.152353 0.117725 0.235984
H57   H     H_    0.944869 0.117589 0.002354 0.218313
H58   H     H_    0.007809 0.193758 0.902798 0.211393
H59   H     H_    0.916109 0.312245 0.014693 0.206889
H60   H     H_    0.852971 0.231928 0.102796 0.194319

loop_
_geom_bond_atom_site_label_1
_geom_bond_atom_site_label_2
_ccdc_geom_bond_type
C58   C62   A    
C73   H49   S    
Cu2   Cu4   S    
C40   C60   A    
C48   H18   S    
Cu1   O10   S    
C49   H19   S    
C13   C32   S    
C52   H22   S    
C14   C31   S    
C1    C62   S    
C9    H23   S    
C53   C59   A    
C71   H52   S    
C67   H33   S    
C54   C60   A    
C3    C64   S    
C37   H11   S    
C4    C63   S    
C50   C54   A    
Cu2   O12   S    
C47   H17   S    
C19   C21   A    
Cu4   N2    S    
C38   C42   A    
C35   N3    A    
Cu4   O15   S    
C6    C12   A    
C67   H34   S    
C34   O12   A    
C73   H47   S    
C21   H5    S    
C7    C9    A    
Cu4   O8    S    
C41   C65   S    
C66   H36   S    
C9    C13   A    
C31   O13   A    
C5    H1    S    
C68   H46   S    
C1    O5    A    
C38   C58   A    
C11   C15   A    
Cu3   O5    S    
C73   H48   S    
C12   C16   A    
C3    O7    A    
C69   C70   S    
Cu1   Cu3   S    
C70   H42   S    
C30   H28   S    
C74   C75   S    
C42   C68   S    
C76   H55   S    
C65   H39   S    
C15   C34   S    
C18   C20   A    
C2    C61   S    
C50   H20   S    
C26   N4    A    
C11   H25   S    
C4    O8    A    
C10   H24   S    
C37   C41   A    
C12   H26   S    
C45   H15   S    
C27   N1    A    
Cu1   O1    S    
C44   C46   A    
C71   H53   S    
C13   C53   A    
C56   C58   A    
C34   O16   A    
C75   H58   S    
C33   O11   A    
C44   C74   S    
C8    H4    S    
Cu2   O11   S    
C5    C61   A    
C17   C27   A    
C40   H14   S    
C18   C28   A    
C39   H13   S    
C10   C14   A    
C32   O14   A    
C29   H27   S    
C19   H31   S    
C24   H8    S    
C67   H35   S    
C39   C43   A    
C3    O3    A    
C69   H43   S    
C35   H9    S    
Cu4   O7    S    
C15   C55   A    
C16   C56   A    
Cu2   N4    S    
C16   C33   S    
C4    O4    A    
Cu3   O6    S    
C20   H32   S    
C45   C49   A    
Cu2   O4    S    
C39   C59   A    
C30   N2    A    
C41   C47   A    
C29   N1    A    
Cu2   O3    S    
C42   C48   A    
C76   H56   S    
C57   C61   A    
Cu3   O13   S    
C72   H51   S    
C7    C63   A    
C65   C66   S    
C8    C64   A    
C46   H16   S    
C14   C54   A    
C20   C22   A    
C33   O15   A    
C21   C23   A    
C70   H40   S    
C22   C24   A    
C59   C63   A    
C43   C71   S    
Cu1   N3    S    
C40   C44   A    
C68   C69   S    
Cu1   O2    S    
C23   H7    S    
Cu3   N1    S    
C69   H44   S    
C6    H2    S    
C46   C50   A    
C75   H57   S    
C65   H38   S    
Cu1   O9    S    
C72   H50   S    
C25   N3    A    
C24   C26   A    
C47   C51   A    
C5    C11   A    
C25   C27   A    
C29   C35   A    
C26   C28   A    
C30   C36   A    
C60   C64   A    
C74   H60   S    
C6    C62   A    
C55   C57   A    
C66   C67   S    
C43   C45   A    
C36   H10   S    
C71   C72   S    
Cu4   O16   S    
C7    H3    S    
C36   N4    A    
C38   H12   S    
C49   C53   A    
C17   C19   A    
C2    O2    A    
C51   C55   A    
C23   C25   A    
C66   H37   S    
Cu3   O14   S    
C37   C57   A    
C68   H45   S    
C28   N2    A    
C48   C52   A    
C75   C76   S    
C8    C10   A    
C1    O1    A    
C70   H41   S    
C22   H6    S    
C72   C73   S    
C18   H30   S    
C32   O10   A    
C76   H54   S    
C17   H29   S    
C31   O9    A    
C51   H21   S    
C52   C56   A    
C74   H59   S    
C2    O6    A    
