data_mof_unit_65826.cif
_audit_creation_date              2012-12-11T16:04:11-0500
_audit_creation_method            fapswitch 2.2
_symmetry_space_group_name_H-M    P1
_symmetry_Int_Tables_number       1
_space_group_crystal_system       triclinic
_cell_length_a                    23.23034
_cell_length_b                    7.270377
_cell_length_c                    21.286454
_cell_angle_alpha                 89.999842
_cell_angle_beta                  102.460067
_cell_angle_gamma                 90.001567
_cell_volume                      3510.46239105

loop_
_atom_site_label
_atom_site_type_symbol
_atom_type_description
_atom_site_fract_x
_atom_site_fract_y
_atom_site_fract_z
_atom_type_partial_charge
O1    O     O_R   0.684260 0.291960 0.186200 -0.530654
O2    O     O_R   0.315740 0.708040 0.813800 -0.530654
O3    O     O_R   0.815740 0.791960 0.313800 -0.530653
O4    O     O_R   0.184260 0.208040 0.686200 -0.530653
O5    O     O_R   0.803220 0.618620 0.189870 -0.542937
O6    O     O_R   0.196780 0.381380 0.810130 -0.542937
O7    O     O_R   0.696780 0.118620 0.310130 -0.542949
O8    O     O_R   0.303220 0.881380 0.689870 -0.542948
C1    C     C_R   0.820700 0.453093 0.176334 0.709770
C2    C     C_R   0.179300 0.546907 0.823666 0.709770
C3    C     C_R   0.679299 0.953090 0.323664 0.709790
C4    C     C_R   0.320701 0.046910 0.676336 0.709789
O9    O     O_R   0.683940 0.621480 0.178600 -0.535870
O10   O     O_R   0.316060 0.378520 0.821400 -0.535870
O11   O     O_R   0.816060 0.121480 0.321400 -0.535873
O12   O     O_R   0.183940 0.878520 0.678600 -0.535873
O13   O     O_R   0.695610 0.794820 0.302450 -0.541016
O14   O     O_R   0.304390 0.205180 0.697550 -0.541015
O15   O     O_R   0.804390 0.294820 0.197550 -0.541009
O16   O     O_R   0.195610 0.705180 0.802450 -0.541009
C5    C     C_R   0.663012 0.453458 0.161298 0.709491
C6    C     C_R   0.336988 0.546542 0.838702 0.709491
C7    C     C_R   0.836990 0.953462 0.338699 0.709502
C8    C     C_R   0.163010 0.046538 0.661301 0.709503
O17   O     O_3   0.753970 0.459420 0.290650 -0.378424
O18   O     O_3   0.246030 0.540580 0.709350 -0.378424
O19   O     O_3   0.746030 0.959420 0.209350 -0.378420
O20   O     O_3   0.253970 0.040580 0.790650 -0.378420
V1    V     V_3+5 0.749260 0.733100 0.242460 1.435792
V2    V     V_3+5 0.250740 0.266900 0.757540 1.435792
V3    V     V_3+5 0.750740 0.233100 0.257540 1.435782
V4    V     V_3+5 0.249260 0.766900 0.742460 1.435782
C9    C     C_1   0.111101 0.053606 0.608905 -0.160987
C10   C     C_1   0.888899 0.946394 0.391095 -0.160988
C11   C     C_1   0.388880 0.553609 0.891120 -0.160975
C12   C     C_1   0.611120 0.446391 0.108880 -0.160975
C13   C     C_2   0.015594 0.074331 0.512640 -0.132333
C14   C     C_2   0.984406 0.925668 0.487360 -0.132333
C15   C     C_2   0.484320 0.574266 0.987470 -0.132450
C16   C     C_2   0.515680 0.425734 0.012530 -0.132450
C17   C     C_1   0.932380 0.939744 0.434859 0.023133
C18   C     C_1   0.067620 0.060256 0.565141 0.023133
C19   C     C_1   0.567663 0.439763 0.065086 0.023155
C20   C     C_1   0.432337 0.560237 0.934914 0.023155
H1    H     H_    0.997890 0.789731 0.506124 0.138371
H2    H     H_    0.002110 0.210269 0.493876 0.138371
H3    H     H_    0.502378 0.289943 0.993533 0.138461
H4    H     H_    0.497622 0.710057 0.006467 0.138461
C21   C     C_R   0.362462 0.055010 0.632723 -0.102001
C22   C     C_R   0.637538 0.944990 0.367277 -0.102000
C23   C     C_R   0.137540 0.555000 0.867284 -0.101955
C24   C     C_R   0.862460 0.445000 0.132716 -0.101955
C25   C     C_R   0.369677 0.902555 0.594637 -0.147689
C26   C     C_R   0.630322 0.097445 0.405363 -0.147689
C27   C     C_R   0.130364 0.402558 0.905415 -0.147637
C28   C     C_R   0.869635 0.597442 0.094585 -0.147637
C29   C     C_R   0.409185 0.909225 0.553762 -0.118608
C30   C     C_R   0.590815 0.090775 0.446238 -0.118608
C31   C     C_R   0.090847 0.409223 0.946279 -0.118597
C32   C     C_R   0.909153 0.590777 0.053720 -0.118597
C33   C     C_R   0.443455 0.067212 0.550832 0.090899
C34   C     C_R   0.556545 0.932787 0.449168 0.090899
C35   C     C_R   0.056557 0.567195 0.949185 0.090850
C36   C     C_R   0.943443 0.432805 0.050815 0.090850
C37   C     C_R   0.436046 0.221120 0.588704 0.298673
C38   C     C_R   0.563954 0.778880 0.411297 0.298673
C39   C     C_R   0.063944 0.721092 0.911290 0.298729
C40   C     C_R   0.936056 0.278908 0.088710 0.298729
C41   C     C_R   0.395730 0.214457 0.628966 -0.185288
C42   C     C_R   0.604270 0.785543 0.371034 -0.185288
C43   C     C_R   0.104244 0.714428 0.871008 -0.185313
C44   C     C_R   0.895756 0.285572 0.128992 -0.185313
C45   C     C_2   0.485392 0.074446 0.507140 -0.139165
C46   C     C_2   0.514608 0.925554 0.492860 -0.139166
C47   C     C_2   0.014630 0.574415 0.992888 -0.139243
C48   C     C_2   0.985370 0.425585 0.007112 -0.139243
H5    H     H_    0.344177 0.778326 0.595681 0.147769
H6    H     H_    0.655823 0.221674 0.404319 0.147769
H7    H     H_    0.155908 0.278348 0.904417 0.147700
H8    H     H_    0.844092 0.721652 0.095583 0.147700
H9    H     H_    0.608742 0.666506 0.341862 0.157526
H10   H     H_    0.391258 0.333494 0.658138 0.157526
H11   H     H_    0.891312 0.166550 0.158196 0.157520
H12   H     H_    0.108688 0.833450 0.841804 0.157521
H13   H     H_    0.507475 0.793583 0.513599 0.209263
H14   H     H_    0.492525 0.206417 0.486401 0.209263
H15   H     H_    0.992459 0.293690 0.986321 0.209306
H16   H     H_    0.007541 0.706310 0.013679 0.209306
H17   H     H_    0.588002 0.208861 0.476353 0.172194
H18   H     H_    0.411998 0.791139 0.523647 0.172194
H19   H     H_    0.911954 0.708852 0.023585 0.172223
H20   H     H_    0.088046 0.291148 0.976415 0.172223
Br1   Br    Br    0.481893 0.441139 0.589673 -0.577961
Br2   Br    Br    0.518107 0.558861 0.410327 -0.577961
Br3   Br    Br    0.018106 0.941112 0.910341 -0.577896
Br4   Br    Br    0.981894 0.058888 0.089659 -0.577896

loop_
_geom_bond_atom_site_label_1
_geom_bond_atom_site_label_2
_ccdc_geom_bond_type
O17   V3    S    
C16   H3    S    
C30   C34   A    
C27   C31   A    
O19   V1    S    
O13   V1    S    
C45   C46   D    
O3    C7    A    
O15   V3    S    
C4    C21   S    
C5    C12   S    
O1    C5    A    
C6    C11   S    
C10   C17   T    
C22   C26   A    
C9    C18   T    
C36   C40   A    
O9    V1    S    
C26   C30   A    
O4    C8    A    
C37   C41   A    
O1    V3    S    
O2    V4    S    
C13   C18   S    
O3    V1    S    
C42   H9    S    
C14   H1    S    
C41   H10   S    
C1    O15   A    
C16   C19   S    
C2    O16   A    
O2    C6    A    
O14   V2    S    
C39   C43   A    
C40   C44   A    
C38   Br2   S    
O11   C7    A    
O12   C8    A    
C21   C41   A    
C39   Br3   S    
C1    C24   S    
C23   C43   A    
O10   V2    S    
C2    C23   S    
O5    V1    S    
C35   C39   A    
O7    V3    S    
C29   H18   S    
C34   C38   A    
O8    V4    S    
C14   C17   S    
C15   C16   D    
C25   C29   A    
O18   V4    S    
C33   C45   S    
C28   C32   A    
O7    C3    A    
C47   C48   D    
O5    C1    A    
C13   C14   D    
C24   C44   A    
C27   H7    S    
O8    C4    A    
C7    C10   S    
C36   C48   S    
O9    C5    A    
C40   Br4   S    
O11   V3    S    
C11   C20   T    
C48   H15   S    
O6    V2    S    
C25   H5    S    
C43   H12   S    
O16   V4    S    
C32   H19   S    
C3    O13   A    
O6    C2    A    
C29   C33   A    
C15   C20   S    
O12   V4    S    
C31   C35   A    
C8    C9    S    
C28   H8    S    
C32   C36   A    
O10   C6    A    
O20   V2    S    
C22   C42   A    
C3    C22   S    
C38   C42   A    
C35   C47   S    
C21   C25   A    
C37   Br1   S    
C23   C27   A    
C31   H20   S    
C46   H13   S    
C30   H17   S    
C45   H14   S    
C44   H11   S    
C33   C37   A    
C47   H16   S    
C4    O14   A    
C34   C46   S    
C12   C19   T    
C13   H2    S    
O4    V2    S    
C24   C28   A    
C15   H4    S    
C26   H6    S    
