data_mof_unit_28013.cif
_audit_creation_date              2012-12-11T15:47:00-0500
_audit_creation_method            fapswitch 2.2
_symmetry_space_group_name_H-M    P1
_symmetry_Int_Tables_number       1
_space_group_crystal_system       triclinic
_cell_length_a                    20.16287
_cell_length_b                    7.257581
_cell_length_c                    13.565438
_cell_angle_alpha                 89.973862
_cell_angle_beta                  103.01042
_cell_angle_gamma                 90.02658
_cell_volume                      1934.12116817

loop_
_atom_site_label
_atom_site_type_symbol
_atom_type_description
_atom_site_fract_x
_atom_site_fract_y
_atom_site_fract_z
_atom_type_partial_charge
O1    O     O_R   0.449560 0.506810 0.599700 -0.534747
O2    O     O_R   0.550440 0.006810 0.400300 -0.534732
O3    O     O_R   0.587960 0.180060 0.595760 -0.545928
O4    O     O_R   0.412040 0.680060 0.404240 -0.545943
C1    C     C_R   0.614902 0.344210 0.617572 0.681746
C2    C     C_R   0.385098 0.844195 0.382431 0.681719
O5    O     O_R   0.452380 0.177430 0.611700 -0.538579
O6    O     O_R   0.547620 0.677430 0.388300 -0.538581
O7    O     O_R   0.413900 0.001890 0.416350 -0.540850
O8    O     O_R   0.586100 0.501890 0.583650 -0.540863
C3    C     C_R   0.436436 0.345633 0.637662 0.685260
C4    C     C_R   0.563562 0.845754 0.362341 0.685253
O9    O     O_3   0.487530 0.337490 0.435890 -0.378988
O10   O     O_3   0.512470 0.837490 0.564110 -0.378964
V1    V     V_3+5 0.502310 0.064660 0.511890 1.408097
V2    V     V_3+5 0.497690 0.564660 0.488110 1.408009
C5    C     C_R   0.609358 0.875346 0.109682 -0.159074
C6    C     C_R   0.390687 0.367286 0.890554 -0.159101
H1    H     H_    0.692434 0.890079 0.983769 0.124042
H2    H     H_    0.307636 0.378246 0.016581 0.123972
H3    H     H_    0.583236 0.885185 0.030754 0.114917
H4    H     H_    0.416829 0.373214 0.969595 0.114932
C7    C     C_R   0.603352 0.854208 0.284935 -0.023861
C8    C     C_R   0.396652 0.353503 0.715086 -0.023827
C9    C     C_R   0.931524 0.847183 0.316417 -0.168286
C10   C     C_R   0.068451 0.352437 0.683431 -0.168285
C11   C     C_R   0.896036 0.838321 0.392922 -0.119586
C12   C     C_R   0.103925 0.345728 0.606862 -0.119629
C13   C     C_R   0.825124 0.841826 0.369813 -0.157106
C14   C     C_R   0.174847 0.347225 0.630030 -0.157083
C15   C     C_R   0.787530 0.854499 0.268255 0.076082
C16   C     C_R   0.212466 0.355565 0.731717 0.076087
C17   C     C_R   0.824355 0.863608 0.190119 0.067331
C18   C     C_R   0.175656 0.362044 0.809930 0.067329
C19   C     C_R   0.714798 0.858396 0.241628 0.071251
C20   C     C_R   0.285208 0.357680 0.758395 0.071253
C21   C     C_R   0.680767 0.871300 0.137889 0.140163
C22   C     C_R   0.319266 0.365704 0.862277 0.140183
C23   C     C_R   0.718064 0.880142 0.062935 -0.202256
C24   C     C_R   0.281984 0.371973 0.937307 -0.202212
C25   C     C_R   0.788656 0.876379 0.088416 -0.191284
C26   C     C_R   0.211382 0.370292 0.911767 -0.191249
C27   C     C_R   0.674379 0.850000 0.314250 -0.211044
C28   C     C_R   0.325612 0.352008 0.685694 -0.211044
C29   C     C_R   0.570886 0.866830 0.182884 -0.174576
C30   C     C_R   0.429145 0.360945 0.817286 -0.174564
C31   C     C_R   0.896445 0.859743 0.215405 -0.067610
C32   C     C_R   0.103554 0.360435 0.784579 -0.067583
H5    H     H_    0.696174 0.840216 0.394230 0.093321
H6    H     H_    0.303797 0.345973 0.605607 0.093318
H7    H     H_    0.801533 0.834337 0.433416 0.107774
H8    H     H_    0.198428 0.341682 0.566371 0.107761
H9    H     H_    0.923722 0.828562 0.471012 0.120708
H10   H     H_    0.076221 0.339418 0.528670 0.120723
C33   C     C_R   0.217441 0.023152 0.223373 -0.153617
C34   C     C_R   0.782644 0.523123 0.776456 -0.153384
H11   H     H_    0.193527 0.156029 0.204523 0.119214
H12   H     H_    0.806628 0.655983 0.795163 0.119341
C35   C     C_R   0.282623 0.018702 0.286788 -0.160962
C36   C     C_R   0.717459 0.518694 0.713048 -0.160918
H13   H     H_    0.306585 0.147761 0.314868 0.118045
H14   H     H_    0.693563 0.647743 0.684832 0.118029
C37   C     C_R   0.316158 0.850161 0.313677 -0.038512
C38   C     C_R   0.683840 0.350179 0.686327 -0.038519
C39   C     C_R   0.282695 0.686182 0.275023 -0.158003
C40   C     C_R   0.717221 0.186205 0.725146 -0.158098
H15   H     H_    0.306728 0.553426 0.293811 0.118265
H16   H     H_    0.693119 0.053465 0.706495 0.118354
C41   C     C_R   0.217515 0.690592 0.211604 -0.156636
C42   C     C_R   0.782404 0.190593 0.788560 -0.156956
C43   C     C_R   0.183817 0.859112 0.185039 -0.035556
C44   C     C_R   0.816185 0.359087 0.814956 -0.035564
O11   O     O_R   0.913920 0.203370 0.916260 -0.539775
O12   O     O_R   0.086080 0.703370 0.083740 -0.539689
O13   O     O_R   0.047620 0.535540 0.888290 -0.537798
O14   O     O_R   0.952380 0.035540 0.111710 -0.537874
C45   C     C_R   0.063764 0.368357 0.862393 0.679709
C46   C     C_R   0.936240 0.868236 0.137606 0.679690
O15   O     O_R   0.912040 0.532780 0.904220 -0.545725
O16   O     O_R   0.087960 0.032780 0.095780 -0.545805
O17   O     O_R   0.949550 0.708160 0.099720 -0.534754
O18   O     O_R   0.050450 0.208160 0.900280 -0.534846
C47   C     C_R   0.885409 0.364918 0.883075 0.673798
C48   C     C_R   0.114592 0.864936 0.116921 0.673784
O19   O     O_3   0.012480 0.375300 0.064060 -0.378461
O20   O     O_3   0.987520 0.875300 0.935940 -0.378438
V3    V     V_3+5 0.997690 0.648180 0.988110 1.410013
V4    V     V_3+5 0.002310 0.148180 0.011890 1.409660
H17   H     H_    0.515833 0.870191 0.160045 0.105625
H18   H     H_    0.484209 0.361844 0.840195 0.105575
H19   H     H_    0.193671 0.561440 0.183438 0.118163
H20   H     H_    0.806180 0.061454 0.816863 0.118090
H21   H     H_    0.986675 0.844148 0.336003 0.103487
H22   H     H_    0.013289 0.351417 0.663785 0.103452
H23   H     H_    0.815055 0.883645 0.027285 0.116925
H24   H     H_    0.184995 0.375474 0.972961 0.116875

loop_
_geom_bond_atom_site_label_1
_geom_bond_atom_site_label_2
_ccdc_geom_bond_type
C10   H22   S    
C40   H16   S    
C37   C39   A    
C9    H21   S    
C7    C29   A    
C33   C35   A    
C11   C13   A    
O1    C3    A    
O16   C48   A    
O2    C4    A    
C2    O7    A    
O15   V3    S    
O3    V1    S    
C23   C25   A    
C40   C42   A    
O5    C3    A    
C4    C7    S    
C26   H24   S    
C16   C20   A    
C19   C21   A    
C5    C29   A    
H2    C24   S    
C39   C41   A    
C17   C31   A    
C3    C8    S    
C7    C27   A    
C36   H14   S    
C41   C43   A    
C14   H8    S    
C34   C44   A    
C18   C26   A    
C15   C17   A    
O12   V3    S    
C14   C16   A    
C19   C27   A    
C9    C31   A    
C10   C32   A    
C24   C26   A    
O6    V2    S    
C6    C30   A    
C21   C23   A    
C35   H13   S    
O14   C46   A    
O4    C2    A    
C12   H10   S    
O20   V3    S    
C27   H5    S    
C39   H15   S    
C5    H3    S    
C34   C36   A    
C1    C38   S    
C38   C40   A    
C2    C37   S    
O4    V2    S    
O11   V4    S    
O6    C4    A    
C32   C45   S    
O1    V2    S    
C5    C21   A    
O2    V1    S    
O13   C45   A    
O17   V3    S    
H1    C23   S    
O13   V3    S    
C33   H11   S    
C8    C28   A    
C15   C19   A    
C20   C28   A    
C18   C32   A    
C20   C22   A    
C29   H17   S    
C43   C48   S    
C13   H7    S    
O19   V4    S    
C28   H6    S    
O14   V4    S    
C6    H4    S    
C35   C37   A    
C42   H20   S    
O12   C48   A    
O3    C1    A    
C11   H9    S    
C30   H18   S    
C9    C11   A    
C10   C12   A    
C36   C38   A    
C8    C30   A    
C12   C14   A    
C6    C22   A    
C17   C25   A    
C1    O8    A    
O16   V4    S    
O8    V2    S    
C22   C24   A    
C46   O17   A    
C25   H23   S    
C45   O18   A    
O18   V4    S    
O5    V1    S    
C34   H12   S    
O7    V1    S    
C44   C47   S    
O15   C47   A    
C13   C15   A    
O9    V2    S    
O10   V1    S    
C42   C44   A    
C31   C46   S    
C41   H19   S    
O11   C47   A    
C33   C43   A    
C16   C18   A    
