data_mof_unit_51784.cif
_audit_creation_date              2012-12-11T14:19:32-0500
_audit_creation_method            fapswitch 2.2
_symmetry_space_group_name_H-M    P1
_symmetry_Int_Tables_number       1
_space_group_crystal_system       triclinic
_cell_length_a                    19.412832
_cell_length_b                    7.235496
_cell_length_c                    17.773894
_cell_angle_alpha                 89.999974
_cell_angle_beta                  107.829904
_cell_angle_gamma                 90.0
_cell_volume                      2376.63736897

loop_
_atom_site_label
_atom_site_type_symbol
_atom_type_description
_atom_site_fract_x
_atom_site_fract_y
_atom_site_fract_z
_atom_type_partial_charge
O1    O     O_R   0.414820 0.494320 0.416790 -0.531842
O2    O     O_R   0.585180 0.994320 0.583210 -0.531842
O3    O     O_R   0.560270 0.819500 0.430140 -0.534903
O4    O     O_R   0.439730 0.319500 0.569860 -0.534903
C1    C     C_R   0.579054 0.654841 0.412351 0.776538
C2    C     C_R   0.420946 0.154841 0.587649 0.776533
O5    O     O_R   0.413840 0.823740 0.407440 -0.548828
O6    O     O_R   0.586160 0.323740 0.592560 -0.548828
O7    O     O_R   0.437710 0.998590 0.560350 -0.520016
O8    O     O_R   0.562290 0.498590 0.439650 -0.520018
C3    C     C_R   0.387367 0.654971 0.385517 0.757861
C4    C     C_R   0.612633 0.154971 0.614483 0.757854
O9    O     O_3   0.508000 0.662290 0.550200 -0.353183
O10   O     O_3   0.492000 0.162290 0.449800 -0.353185
V1    V     V_3+5 0.498520 0.935380 0.490690 1.594805
V2    V     V_3+5 0.501480 0.435380 0.509310 1.594800
C5    C     C_2   0.787827 0.272031 0.784999 -0.066945
C6    C     C_2   0.212173 0.772031 0.215001 -0.066948
C7    C     C_2   0.820110 0.113127 0.817442 -0.257500
C8    C     C_2   0.179890 0.613127 0.182558 -0.257504
H1    H     H_    0.812734 0.402923 0.808168 0.153706
H2    H     H_    0.187266 0.902923 0.191832 0.153705
H3    H     H_    0.797146 0.980572 0.794719 0.116588
H4    H     H_    0.202854 0.480572 0.205281 0.116586
C9    C     C_2   0.719207 0.284697 0.717958 -0.139091
C10   C     C_2   0.280793 0.784697 0.282042 -0.139093
C11   C     C_2   0.679779 0.138489 0.681936 -0.244264
C12   C     C_2   0.320221 0.638489 0.318064 -0.244267
H5    H     H_    0.700939 0.423012 0.697630 0.139192
H6    H     H_    0.299061 0.923012 0.302370 0.139189
H7    H     H_    0.696992 0.999244 0.700949 0.137544
H8    H     H_    0.303007 0.499244 0.299051 0.137540
C13   C     C_R   0.323559 0.285445 0.635747 -0.247718
C14   C     C_R   0.676442 0.785443 0.364254 -0.247714
C15   C     C_R   0.375178 0.145310 0.641291 -0.190720
C16   C     C_R   0.624822 0.645310 0.358709 -0.190716
C17   C     C_R   0.381179 0.999374 0.696804 0.396087
C18   C     C_R   0.618820 0.499376 0.303196 0.396092
C19   C     C_R   0.328476 0.984260 0.737111 -0.031911
C20   C     C_R   0.671523 0.484262 0.262889 -0.031919
C21   C     C_R   0.278447 0.129346 0.732303 0.025449
C22   C     C_R   0.721554 0.629346 0.267698 0.025449
C23   C     C_R   0.276713 0.281044 0.682036 0.104377
C24   C     C_R   0.723289 0.781042 0.317965 0.104383
C25   C     C_R   0.323562 0.826638 0.781559 -0.097291
C26   C     C_R   0.676437 0.326641 0.218439 -0.097272
C27   C     C_R   0.276989 0.822072 0.827519 -0.094669
C28   C     C_R   0.723009 0.322076 0.172479 -0.094672
C29   C     C_R   0.233049 0.974482 0.830646 -0.025942
C30   C     C_R   0.766950 0.474484 0.169353 -0.025941
C31   C     C_R   0.230560 0.124031 0.778733 0.028871
C32   C     C_R   0.769441 0.624030 0.221267 0.028872
C33   C     C_R   0.181184 0.269887 0.774037 0.108614
C34   C     C_R   0.818817 0.769885 0.225964 0.108616
C35   C     C_R   0.179803 0.419319 0.723276 -0.180324
C36   C     C_R   0.820200 0.919315 0.276726 -0.180323
C37   C     C_R   0.227173 0.424969 0.677811 -0.183867
C38   C     C_R   0.772830 0.924965 0.322192 -0.183866
C39   C     C_R   0.191054 0.980368 0.883375 0.345892
C40   C     C_R   0.808945 0.480371 0.116624 0.345891
C41   C     C_R   0.136484 0.117906 0.872821 -0.200063
C42   C     C_R   0.863517 0.617907 0.127179 -0.200062
C43   C     C_R   0.133189 0.262815 0.819084 -0.235927
C44   C     C_R   0.866812 0.762813 0.180917 -0.235927
H9    H     H_    0.319690 0.399011 0.594826 0.150462
H10   H     H_    0.680312 0.899007 0.405176 0.150454
H11   H     H_    0.354466 0.703175 0.780158 0.201801
H12   H     H_    0.645531 0.203179 0.219839 0.201827
H13   H     H_    0.274584 0.695547 0.858969 0.202868
H14   H     H_    0.725413 0.195552 0.141027 0.202871
H15   H     H_    0.093151 0.371109 0.812495 0.150132
H16   H     H_    0.906851 0.871105 0.187507 0.150128
H17   H     H_    0.142243 0.532531 0.718982 0.122869
H18   H     H_    0.857760 0.032525 0.281021 0.122868
H19   H     H_    0.225158 0.542474 0.639387 0.122025
H20   H     H_    0.774845 0.042469 0.360617 0.122022
O11   O     O_R   0.937810 0.773680 0.060480 -0.534789
O12   O     O_R   0.062190 0.273680 0.939520 -0.534789
O13   O     O_R   0.086190 0.439740 0.092580 -0.556180
O14   O     O_R   0.913810 0.939740 0.907420 -0.556180
C45   C     C_R   0.112412 0.608307 0.114887 0.788644
C46   C     C_R   0.887588 0.108307 0.885113 0.788642
O15   O     O_R   0.939760 0.444210 0.069890 -0.510263
O16   O     O_R   0.060240 0.944210 0.930110 -0.510262
O17   O     O_R   0.914790 0.269640 0.916760 -0.511912
O18   O     O_R   0.085210 0.769640 0.083240 -0.511911
C47   C     C_R   0.917301 0.612097 0.082759 0.747621
C48   C     C_R   0.082699 0.112097 0.917241 0.747623
O19   O     O_3   0.992050 0.601530 0.949880 -0.381211
O20   O     O_3   0.007950 0.101530 0.050120 -0.381213
V3    V     V_3+5 0.001480 0.328340 0.009300 1.563027
V4    V     V_3+5 0.998520 0.828340 0.990700 1.563029
S1    S     S_3+6 0.459124 0.853050 0.725032 0.008406
O21   O     O_2   0.442101 0.676864 0.678231 -0.352873
O22   O     O_2   0.523207 0.945365 0.710608 -0.332418
O23   O     O_3   0.481690 0.802998 0.822030 -0.479419
H21   H     H_    0.519753 0.707100 0.830782 0.386691
S2    S     S_3+6 0.540874 0.353058 0.274966 0.008398
O24   O     O_2   0.557893 0.176872 0.321766 -0.352836
O25   O     O_2   0.476791 0.445382 0.289388 -0.332458
O26   O     O_3   0.518309 0.303002 0.177968 -0.479428
H22   H     H_    0.480191 0.207245 0.169200 0.386702
S3    S     S_3+6 0.215713 0.840394 0.970398 0.018676
O27   O     O_2   0.172632 0.664299 0.954365 -0.330418
O28   O     O_2   0.294980 0.793564 0.995646 -0.303640
O29   O     O_3   0.198759 0.953918 0.045319 -0.502484
H23   H     H_    0.230061 0.064959 0.053934 0.331850
S4    S     S_3+6 0.784285 0.340400 0.029600 0.018686
O30   O     O_2   0.827364 0.164301 0.045632 -0.330417
O31   O     O_2   0.705018 0.293577 0.004351 -0.303630
O32   O     O_3   0.801241 0.453924 0.954681 -0.502483
H24   H     H_    0.769941 0.564969 0.946067 0.331855

loop_
_geom_bond_atom_site_label_1
_geom_bond_atom_site_label_2
_ccdc_geom_bond_type
O15   C47   A    
O11   V4    S    
O4    V2    S    
S1    O21   D    
C30   C40   A    
C7    H3    S    
O32   H24   S    
O1    C3    A    
C18   S2    S    
O2    C4    A    
C14   H10   S    
C2    O7    A    
O17   V3    S    
C13   H9    S    
C27   C29   A    
S4    O30   D    
O5    C3    A    
O26   H22   S    
C15   C17   A    
C28   C30   A    
O29   H23   S    
C1    C16   S    
C2    C15   S    
C40   C42   A    
C25   C27   A    
C41   C43   A    
C27   H13   S    
C42   C44   A    
C5    C7    D    
C38   H20   S    
C8    H4    S    
C24   C38   A    
C29   C31   A    
C6    C10   S    
C25   H11   S    
C30   C32   A    
C7    C46   S    
O13   V3    S    
C45   O18   A    
C40   S4    S    
C19   C25   A    
O5    V1    S    
S1    O22   D    
C8    C45   S    
C21   C23   A    
C22   C24   A    
C32   C34   A    
C34   C36   A    
C33   C35   A    
C9    H5    S    
C26   C28   A    
C39   C41   A    
C36   H18   S    
C4    C11   S    
C11   H7    S    
C13   C23   A    
C12   H8    S    
C14   C24   A    
O4    C2    A    
O13   C45   A    
C5    H1    S    
C31   C33   A    
O14   V4    S    
C20   C26   A    
C26   H12   S    
C41   C48   S    
O6    C4    A    
O23   H21   S    
C17   S1    S    
S3    O28   D    
O1    V2    S    
O19   V4    S    
O2    V1    S    
O11   C47   A    
O14   C46   A    
C43   H15   S    
C10   H6    S    
S1    O23   S    
S2    O25   D    
C35   C37   A    
C46   O17   A    
O3    V1    S    
O12   C48   A    
C6    H2    S    
O16   C48   A    
C28   H14   S    
O3    C1    A    
S4    O31   D    
O12   V3    S    
C9    C11   D    
S2    O26   S    
O15   V3    S    
C42   C47   S    
C10   C12   D    
C29   C39   A    
S4    O32   S    
C5    C9    S    
C37   H19   S    
C16   C18   A    
O7    V1    S    
C39   S3    S    
C1    O8    A    
C17   C19   A    
O8    V2    S    
C18   C20   A    
C33   C43   A    
O20   V3    S    
C34   C44   A    
C3    C12   S    
C20   C22   A    
C13   C15   A    
C14   C16   A    
C36   C38   A    
S3    O29   S    
C6    C8    D    
C44   H16   S    
C23   C37   A    
C35   H17   S    
C19   C21   A    
O6    V2    S    
S2    O24   D    
O9    V2    S    
S3    O27   D    
O10   V1    S    
O18   V4    S    
O16   V4    S    
C21   C31   A    
C22   C32   A    
