data_mof_unit_46162.cif
_audit_creation_date              2013-03-05T15:56:33-0500
_audit_creation_method            fapswitch 2.2
_symmetry_space_group_name_H-M    P1
_symmetry_Int_Tables_number       1
_space_group_crystal_system       triclinic
_cell_length_a                    12.303135
_cell_length_b                    13.104623
_cell_length_c                    27.461492
_cell_angle_alpha                 77.581968
_cell_angle_beta                  101.087339
_cell_angle_gamma                 116.544318
_cell_volume                      3844.6570744

loop_
_atom_site_label
_atom_site_type_symbol
_atom_site_description
_atom_site_fract_x
_atom_site_fract_y
_atom_site_fract_z
_atom_type_partial_charge
O1    O     O_R   0.972510 0.318140 0.514280 -0.577490
O2    O     O_R   0.806530 0.359640 0.495100 -0.608750
C1    C     C_R   0.855059 0.286743 0.502375 0.773949
O3    O     O_R   0.082990 0.479270 0.579320 -0.579217
O4    O     O_R   0.917010 0.520770 0.560140 -0.592573
C2    C     C_R   0.998011 0.497700 0.592730 0.803925
Cu1   Cu    Cu3+1 0.098270 0.475420 0.511360 0.948698
Cu2   Cu    Cu3+1 0.901730 0.524580 0.488640 0.936324
O5    O     O_R   0.193470 0.640360 0.504900 -0.591055
O6    O     O_R   0.027490 0.681860 0.485720 -0.581811
O7    O     O_R   0.082990 0.479230 0.439860 -0.573340
O8    O     O_R   0.917010 0.520730 0.420680 -0.566036
C3    C     C_R   0.145283 0.713920 0.492822 0.837185
C4    C     C_R   0.001371 0.501512 0.407416 0.853472
C5    C     C_R   0.972415 0.374453 0.835539 0.571837
O9    O     O_2   0.008996 0.302334 0.822229 -0.535339
N1    N     N_R   0.952387 0.456935 0.800145 -0.454647
C6    C     C_R   0.911023 0.528645 0.812073 0.540850
C7    C     C_R   0.863145 0.436398 0.713329 -0.148863
C8    C     C_R   0.874041 0.448906 0.662694 -0.214833
C9    C     C_R   0.093330 0.513791 0.681520 -0.247029
C10   C     C_R   0.083279 0.504586 0.732413 0.217644
C11   C     C_R   0.967032 0.464529 0.748559 0.316317
C12   C     C_R   0.908573 0.434592 0.898649 -0.058069
C13   C     C_R   0.954816 0.364312 0.885653 -0.015166
C14   C     C_R   0.985056 0.287257 0.923057 -0.151107
C15   C     C_R   0.881970 0.515493 0.861124 -0.070272
C16   C     C_R   0.988976 0.487245 0.646347 -0.065285
H1    H     H_    0.182767 0.544645 0.669293 0.168015
H2    H     H_    0.026021 0.236176 0.914436 0.185245
C17   C     C_R   0.000440 0.498888 0.354280 -0.116090
C18   C     C_R   0.884645 0.324449 0.036435 -0.028362
C19   C     C_R   0.854092 0.503172 0.014368 0.066636
C20   C     C_R   0.870173 0.414598 0.050984 0.056732
C21   C     C_R   0.868903 0.223018 0.072270 -0.057588
C22   C     C_R   0.864257 0.223361 0.123586 -0.045328
C23   C     C_R   0.873874 0.323972 0.139191 -0.086973
C24   C     C_R   0.870928 0.416384 0.102376 -0.064167
C25   C     C_R   0.859628 0.507436 0.117055 -0.008390
C26   C     C_R   0.867106 0.510949 0.168103 0.561998
N2    N     N_R   0.909242 0.441255 0.202981 -0.436071
C27   C     C_R   0.880939 0.335669 0.190231 0.596403
C28   C     C_R   0.001866 0.396848 0.291064 0.225683
C29   C     C_R   0.009425 0.405988 0.341221 -0.281492
C30   C     C_R   0.006092 0.593408 0.317106 0.067145
C31   C     C_R   0.998110 0.582827 0.266039 0.005759
C32   C     C_R   0.965668 0.471684 0.253347 0.162421
O10   O     O_2   0.849751 0.242194 0.225699 -0.545560
C33   C     C_R   0.911388 0.339155 0.986320 0.040874
C34   C     C_R   0.890204 0.424447 0.949345 0.071447
C35   C     C_R   0.853286 0.501234 0.962906 0.027119
C36   C     C_R   0.966437 0.277004 0.972558 -0.189960
H3    H     H_    0.028566 0.343595 0.370121 0.196148
H4    H     H_    0.001709 0.223985 0.000046 0.159550
O11   O     O_2   0.901048 0.613860 0.776612 -0.526600
C37   C     C_R   0.828736 0.580610 0.874243 0.010207
H5    H     H_    0.792106 0.427120 0.636434 0.150021
H6    H     H_    0.773538 0.406154 0.725292 0.141769
C38   C     C_R   0.841569 0.592384 0.030555 -0.213837
C39   C     C_R   0.842974 0.593590 0.081001 -0.155187
O12   O     O_2   0.824514 0.577050 0.182459 -0.558401
C40   C     C_R   0.817285 0.574178 0.924547 -0.248438
H7    H     H_    0.835707 0.665439 0.005189 0.131497
H8    H     H_    0.835438 0.664823 0.091800 0.174889
H9    H     H_    0.774109 0.623653 0.932582 0.141556
C41   C     C_R   0.268344 0.032276 0.444895 0.164042
H10   H     H_    0.088765 0.895626 0.451306 0.167524
H11   H     H_    0.450174 0.237033 0.413560 0.190592
C42   C     C_R   0.228519 0.836171 0.483030 -0.081024
C43   C     C_R   0.818663 0.081236 0.519968 -0.178278
C44   C     C_R   0.741427 0.964578 0.522892 -0.138748
C45   C     C_R   0.616788 0.928842 0.508389 -0.174840
C46   C     C_R   0.567203 0.010227 0.488485 0.096571
C47   C     C_R   0.648999 0.127830 0.478411 0.081495
C48   C     C_R   0.439280 0.978923 0.478197 0.048452
C49   C     C_R   0.395387 0.062418 0.453010 0.110611
C50   C     C_R   0.479343 0.173198 0.435930 -0.191301
C51   C     C_R   0.603798 0.204628 0.447534 -0.200504
C52   C     C_R   0.353825 0.867673 0.494101 -0.253782
C53   C     C_R   0.185962 0.919054 0.459330 -0.183897
C54   C     C_R   0.773531 0.164249 0.499060 -0.106518
H12   H     H_    0.382772 0.803499 0.515709 0.155882
H13   H     H_    0.913858 0.106362 0.534628 0.162482
H14   H     H_    0.562315 0.836945 0.512100 0.127853
H15   H     H_    0.777708 0.901260 0.538113 0.149151
H16   H     H_    0.663393 0.289244 0.430674 0.186537
C55   C     C_R   0.342600 0.322695 0.577876 -0.287882
H17   H     H_    0.165361 0.304730 0.586875 0.128136
H18   H     H_    0.541567 0.286522 0.593560 0.151276
H19   H     H_    0.339648 0.253069 0.607983 0.142539
N3    N     N_R   0.246290 0.438210 0.528570 -0.182322
C56   C     C_R   0.765038 0.652955 0.435532 0.031694
C57   C     C_R   0.673064 0.692352 0.423142 -0.035717
C58   C     C_R   0.566812 0.632857 0.447490 -0.237448
C59   C     C_R   0.553152 0.536836 0.484846 -0.018933
C60   C     C_R   0.652195 0.503920 0.497391 0.285376
C61   C     C_R   0.447072 0.475037 0.511502 -0.018702
C62   C     C_R   0.443966 0.383894 0.550740 0.180784
C63   C     C_R   0.542568 0.355069 0.563135 -0.281704
C64   C     C_R   0.644536 0.414247 0.537299 -0.180618
C65   C     C_R   0.343038 0.499231 0.501145 0.036406
C66   C     C_R   0.244186 0.351666 0.566181 0.084360
N4    N     N_R   0.754320 0.561170 0.471730 -0.214822
H20   H     H_    0.335903 0.565065 0.471326 0.127527
H21   H     H_    0.847250 0.697137 0.416880 0.158005
H22   H     H_    0.498642 0.666403 0.438206 0.136989
H23   H     H_    0.716586 0.388175 0.550884 0.200816
C67   C     C_R   0.776283 0.651017 0.836763 0.167692
C68   C     C_R   0.673620 0.597665 0.803173 -0.082401
C69   C     C_R   0.622167 0.663730 0.768647 -0.097443
C70   C     C_R   0.672212 0.783090 0.767674 -0.095295
C71   C     C_R   0.773631 0.836567 0.801310 -0.125204
C72   C     C_R   0.825359 0.770823 0.835920 -0.127357
H24   H     H_    0.633690 0.505149 0.803814 0.119818
H25   H     H_    0.543294 0.622363 0.742746 0.145967
H26   H     H_    0.632205 0.834089 0.740956 0.136499
H27   H     H_    0.812029 0.928948 0.800627 0.148769
H28   H     H_    0.903687 0.813082 0.861912 0.131548
I1    I     I_    0.049208 0.754708 0.340207 -0.449354
C73   C     C_R   0.056572 0.687920 0.229297 0.158450
C74   C     C_R   0.013960 0.774707 0.215778 -0.014048
C75   C     C_R   0.067696 0.869509 0.179578 -0.162917
C76   C     C_R   0.165040 0.879504 0.156954 -0.119750
C77   C     C_R   0.208734 0.794481 0.170321 -0.129019
C78   C     C_R   0.154753 0.699074 0.206166 -0.171810
H29   H     H_    0.936559 0.766898 0.231965 0.157156
H30   H     H_    0.033203 0.934795 0.168588 0.132747
H31   H     H_    0.206247 0.952915 0.128903 0.128108
H32   H     H_    0.284126 0.802188 0.152731 0.132129
H33   H     H_    0.189387 0.633601 0.215852 0.142533
I2    I     I_    0.191990 0.151720 0.412574 -0.412969
I3    I     I_    0.246356 0.559507 0.782271 -0.369072
C79   C     C_R   0.689921 0.798663 0.386666 0.101763
C80   C     C_R   0.802510 0.896867 0.387946 -0.144222
C81   C     C_R   0.816230 0.998780 0.355354 -0.088501
C82   C     C_R   0.718091 0.003786 0.321231 -0.078593
C83   C     C_R   0.606451 0.906598 0.319165 -0.150958
C84   C     C_R   0.592191 0.804486 0.351641 -0.137987
H34   H     H_    0.878866 0.895698 0.414922 0.133989
H35   H     H_    0.902644 0.074258 0.356835 0.183728
H36   H     H_    0.728494 0.082850 0.296319 0.195736
H37   H     H_    0.530784 0.910427 0.292415 0.147394
H38   H     H_    0.504911 0.730063 0.349340 0.140775
I4    I     I_    0.104249 0.312683 0.277497 -0.365340
C85   C     C_R   0.843514 0.116193 0.159927 0.181074
C86   C     C_R   0.724290 0.030027 0.164467 -0.101810
C87   C     C_R   0.704018 0.930767 0.199792 -0.130138
C88   C     C_R   0.802349 0.917426 0.230989 -0.093175
C89   C     C_R   0.921189 0.002922 0.226643 -0.125568
C90   C     C_R   0.942098 0.101406 0.190777 -0.097465
H39   H     H_    0.647376 0.040251 0.140890 0.118333
H40   H     H_    0.611967 0.864697 0.203329 0.132225
H41   H     H_    0.786394 0.841143 0.258698 0.153515
H42   H     H_    0.997205 0.992609 0.250910 0.169713
H43   H     H_    0.034568 0.166714 0.187347 0.144948
C91   C     C_R   0.836781 0.110667 0.055800 0.108133
C92   C     C_R   0.911666 0.051602 0.072709 -0.167954
C93   C     C_R   0.879341 0.945367 0.057719 -0.132293
C94   C     C_R   0.772370 0.897306 0.025756 -0.102134
C95   C     C_R   0.697672 0.955524 0.008644 -0.126045
C96   C     C_R   0.729537 0.061745 0.023587 -0.134333
H44   H     H_    0.995744 0.088709 0.096854 0.118364
H45   H     H_    0.937436 0.900488 0.070724 0.131010
H46   H     H_    0.747476 0.815066 0.014170 0.119912
H47   H     H_    0.614881 0.918207 0.983856 0.135365
H48   H     H_    0.670534 0.105685 0.010288 0.129710

loop_
_geom_bond_atom_site_label_1
_geom_bond_atom_site_label_2
_geom_bond_distance
_ccdc_geom_bond_type
C83   H37   1.082440 S    
C57   C58   1.401728 A    
C79   C80   1.408412 A    
N2    C27   1.374477 A    
C59   C60   1.426173 A    
C12   C15   1.415482 A    
C87   C88   1.397877 A    
C4    C17   1.464697 S    
C89   H42   1.082388 S    
C61   C62   1.417978 A    
C89   C90   1.398552 A    
C81   C82   1.396227 A    
C30   C31   1.419146 A    
Cu1   O7    1.928056 S    
C92   C93   1.398009 A    
H18   C63   1.084624 S    
C22   C23   1.421306 A    
C23   C24   1.410171 A    
C86   C87   1.398435 A    
C57   C79   1.486189 S    
C84   H38   1.082887 S    
C71   H27   1.082410 S    
O7    C4    1.301352 A    
C5    C13   1.403107 A    
C5    O9    1.349577 S    
C62   C63   1.387675 A    
C23   C27   1.424537 A    
C67   C68   1.405355 A    
C5    N1    1.366709 A    
C46   C47   1.414887 A    
C75   H30   1.080432 S    
C43   C54   1.403579 A    
O5    C3    1.299370 A    
C69   C70   1.397859 A    
C37   C67   1.481706 S    
C56   N4    1.358927 A    
C44   H15   1.082851 S    
C29   H3    1.083961 S    
C2    C16   1.470272 S    
C21   C22   1.422335 A    
C1    C54   1.476417 S    
C12   C13   1.409636 A    
C70   H26   1.082343 S    
C28   C32   1.417403 A    
C85   C90   1.403785 A    
C40   H9    1.079658 S    
C55   C62   1.400101 A    
C30   I1    2.144061 S    
C41   C49   1.414498 A    
C38   C39   1.385509 A    
C19   C38   1.413842 A    
O1    Cu1   1.942900 S    
C9    C10   1.401327 A    
C46   C48   1.423690 A    
C28   I4    2.130959 S    
C35   C40   1.409075 A    
N3    C65   1.363275 A    
O3    Cu1   1.924791 S    
C78   H33   1.083281 S    
C71   C72   1.398526 A    
C36   H4    1.076481 S    
C85   C86   1.404128 A    
C7    H6    1.083129 S    
C12   C34   1.421777 A    
C81   H35   1.082166 S    
C69   H25   1.082423 S    
C17   C29   1.395071 A    
H10   C53   1.082780 S    
C18   C21   1.432969 A    
C76   C77   1.395964 A    
C24   C25   1.407917 A    
C49   C50   1.395591 A    
O3    C2    1.303471 A    
C80   H34   1.082525 S    
C15   C37   1.417534 A    
C82   C83   1.396227 A    
C27   O10   1.344208 S    
C8    C16   1.402030 A    
C34   C35   1.411487 A    
C13   C14   1.398509 A    
C50   C51   1.385942 A    
C9    H1    1.083090 S    
C26   O12   1.346251 S    
C72   H28   1.083190 S    
O1    C1    1.307287 A    
C18   C20   1.416113 A    
C67   C72   1.404470 A    
C7    C11   1.400774 A    
C48   C49   1.423455 A    
C58   H22   1.077395 S    
C82   H36   1.080840 S    
C14   C36   1.390015 A    
C52   H12   1.076099 S    
C55   C66   1.386433 A    
C56   H21   1.081175 S    
C94   C95   1.397802 A    
C94   H46   1.082360 S    
Cu2   O8    1.924786 S    
C33   C36   1.410223 A    
Cu1   N3    2.034976 S    
N1    C6    1.368699 A    
N2    C32   1.474600 S    
C31   C73   1.492731 S    
N1    C11   1.438990 S    
C95   H47   1.082283 S    
C21   C91   1.491998 S    
C43   H13   1.083141 S    
C74   C75   1.398662 A    
C45   H14   1.077933 S    
C93   H45   1.082360 S    
C6    O11   1.348783 S    
C26   N2    1.369760 A    
C9    C16   1.403820 A    
O8    C4    1.300708 A    
C91   C96   1.404793 A    
C14   H2    1.083392 S    
C65   H20   1.076453 S    
C90   H43   1.082554 S    
C28   C29   1.389934 A    
C17   C30   1.409866 A    
C93   C94   1.397054 A    
C37   C40   1.396203 A    
C42   C52   1.394433 A    
C88   H41   1.082500 S    
C47   C54   1.423188 A    
C25   C26   1.396472 A    
C43   C44   1.387323 A    
C73   C74   1.408057 A    
C41   I2    2.125179 S    
H11   C50   1.080968 S    
Cu1   O5    1.930690 S    
C31   C32   1.430876 A    
C91   C92   1.407763 A    
C64   H23   1.063193 S    
C70   C71   1.398151 A    
C10   I3    2.120099 S    
C20   C24   1.414694 A    
O2    Cu2   1.930690 S    
C6    C15   1.414992 A    
C96   H48   1.083099 S    
C45   C46   1.418072 A    
O6    C3    1.302746 A    
O4    Cu2   1.928062 S    
H17   C66   1.081786 S    
C59   C61   1.436253 A    
C80   C81   1.398477 A    
C19   C35   1.416964 A    
C41   C53   1.394047 A    
C83   C84   1.397801 A    
C38   H7    1.078222 S    
C63   C64   1.383758 A    
C39   H8    1.083934 S    
C95   C96   1.398472 A    
C7    C8    1.390110 A    
C87   H40   1.082316 S    
C8    H5    1.081409 S    
C74   H29   1.082139 S    
C68   C69   1.398284 A    
C51   H16   1.079180 S    
C76   H31   1.082350 S    
O4    C2    1.302071 A    
C3    C42   1.463519 S    
C68   H24   1.083203 S    
C25   C39   1.394597 A    
C60   C64   1.406320 A    
C56   C57   1.400452 A    
C73   C78   1.407583 A    
C19   C20   1.422769 A    
C77   H32   1.082374 S    
O2    C1    1.300300 A    
C88   C89   1.397409 A    
C58   C59   1.409298 A    
Cu2   N4    2.022942 S    
C18   C33   1.429264 A    
Cu1   Cu2   2.700090 S    
C86   H39   1.083042 S    
C22   C85   1.486026 S    
C79   C84   1.407960 A    
C44   C45   1.390288 A    
Cu2   O6    1.942900 S    
C33   C34   1.420820 A    
C47   C51   1.411717 A    
C55   H19   1.083907 S    
C10   C11   1.410817 A    
C42   C53   1.396649 A    
N3    C66   1.354235 A    
C75   C76   1.395866 A    
C60   N4    1.381587 A    
C48   C52   1.397976 A    
C92   H44   1.082326 S    
C61   C65   1.415477 A    
C77   C78   1.397569 A    
