data_mof_unit_16491.cif
_audit_creation_date              2012-12-11T15:37:14-0500
_audit_creation_method            fapswitch 2.2
_symmetry_space_group_name_H-M    P1
_symmetry_Int_Tables_number       1
_space_group_crystal_system       triclinic
_cell_length_a                    8.419009
_cell_length_b                    17.466369
_cell_length_c                    19.019777
_cell_angle_alpha                 98.271783
_cell_angle_beta                  95.414164
_cell_angle_gamma                 96.614331
_cell_volume                      2731.77002991

loop_
_atom_site_label
_atom_site_type_symbol
_atom_type_description
_atom_site_fract_x
_atom_site_fract_y
_atom_site_fract_z
_atom_type_partial_charge
Ba1   Ba    Ba6+2 0.162080 0.538580 0.468810 1.610011
Ba2   Ba    Ba6+2 0.648090 0.461410 0.531130 1.608832
C1    C     C_3   0.351901 0.794403 0.231568 -0.182445
C2    C     C_3   0.664667 0.772852 0.441772 -0.070032
C3    C     C_2   0.714742 0.859570 0.458854 -0.127371
C4    C     C_3   0.894227 0.743597 0.307737 0.403711
C5    C     C_2   0.850983 0.888971 0.502347 0.023460
C6    C     C_2   0.946342 0.832864 0.537929 0.001847
C7    C     C_1   0.889010 0.756197 0.529367 0.081625
C8    C     C_R   0.120692 0.133051 0.510257 0.000526
C9    C     C_R   0.181144 0.213485 0.521628 0.031363
C10   C     C_R   0.927695 0.245443 0.469026 0.056313
C11   C     C_R   0.862820 0.166096 0.460161 -0.149829
C12   C     C_3   0.428456 0.762357 0.295470 0.347650
C13   C     C_R   0.956558 0.109112 0.481538 0.019642
C14   C     C_2   0.903374 0.975853 0.517274 -0.087249
C15   C     C_2   0.882057 0.025111 0.469051 -0.082040
C16   C     C_3   0.913467 0.823862 0.284174 -0.192810
C17   C     C_R   0.086866 0.267261 0.497957 -0.284107
C18   C     C_R   0.609599 0.537098 0.303741 -0.207101
C19   C     C_R   0.458246 0.493860 0.278305 0.079629
C20   C     C_R   0.403141 0.486048 0.205259 -0.135492
C21   C     C_R   0.501381 0.516104 0.156868 -0.005744
C22   C     C_R   0.661708 0.547536 0.181736 -0.152794
C23   C     C_3   0.601128 0.703174 0.679265 0.337048
C24   C     C_R   0.716271 0.557750 0.254613 0.006500
C25   C     C_R   0.465302 0.573872 0.041016 0.077431
C26   C     C_R   0.416801 0.562533 0.966968 -0.078413
C27   C     C_R   0.335830 0.490791 0.930927 0.045895
C28   C     C_3   0.744939 0.367509 0.312336 0.307760
C29   C     C_R   0.302000 0.430143 0.970550 -0.085036
C30   C     C_R   0.355722 0.439374 0.043427 -0.099424
C31   C     C_R   0.439886 0.510448 0.079718 0.069161
C32   C     C_R   0.134151 0.440075 0.823131 -0.152604
C33   C     C_R   0.088515 0.428537 0.749255 0.024386
C34   C     C_3   0.706274 0.764029 0.737134 -0.157659
C35   C     C_R   0.347562 0.498130 0.731899 0.054012
C36   C     C_R   0.391508 0.509396 0.806016 -0.134032
C37   C     C_R   0.287161 0.479226 0.852217 -0.006241
C38   C     C_R   0.199592 0.453061 0.703277 -0.195929
C39   C     C_3   0.677771 0.342563 0.234154 -0.412044
C40   C     C_3   0.098898 0.660129 0.698199 0.329350
C41   C     C_3   0.191872 0.715750 0.762092 -0.333829
C42   C     C_3   0.164669 0.301033 0.300606 0.377570
C43   C     C_3   0.157539 0.216274 0.313314 -0.359726
C44   C     C_3   0.988633 0.599065 0.726000 -0.315263
C45   C     C_3   0.913809 0.245179 0.702085 0.386509
C46   C     C_3   0.113736 0.303101 0.221329 -0.383294
C47   C     C_3   0.512659 0.742690 0.624167 -0.297915
C48   C     C_3   0.611404 0.817895 0.782534 -0.412373
C49   C     C_3   0.372367 0.883544 0.244106 -0.422187
C50   C     C_3   0.818151 0.176146 0.651284 -0.300805
C51   C     C_3   0.465150 0.304547 0.840487 -0.487807
C52   C     C_3   0.085706 0.867869 0.593827 -0.358515
C53   C     C_3   0.235127 0.074489 0.523505 -0.377136
C54   C     C_3   0.537118 0.654970 0.076254 -0.428433
C55   C     C_3   0.150326 0.433913 0.624532 -0.279293
C56   C     C_3   0.995108 0.216884 0.767036 -0.376848
C57   C     C_3   0.663077 0.562586 0.381893 -0.255800
C58   C     C_3   0.846397 0.820233 0.206145 -0.406585
C59   C     C_3   0.415555 0.275212 0.706082 0.359781
C60   C     C_3   0.456667 0.242491 0.774938 -0.206556
C61   C     C_2   0.743879 0.729804 0.496182 -0.229493
H1    H     H_    0.428431 0.698360 0.280181 0.001578
H2    H     H_    0.207019 0.214180 0.369069 0.101347
H3    H     H_    0.554101 0.791676 0.308182 -0.039737
H4    H     H_    0.409914 0.774432 0.183412 0.055060
H5    H     H_    0.776056 0.733326 0.773979 0.094743
H6    H     H_    0.794289 0.800291 0.711500 0.087889
H7    H     H_    0.075732 0.173450 0.749836 0.078150
H8    H     H_    0.067787 0.266901 0.802913 0.089739
H9    H     H_    0.504821 0.326832 0.704549 0.111381
H10   H     H_    0.574287 0.219685 0.773995 0.152375
H11   H     H_    0.810966 0.003659 0.417949 0.066802
H12   H     H_    0.558270 0.306945 0.230117 0.131972
H13   H     H_    0.971038 0.999700 0.568619 0.082831
H14   H     H_    0.740043 0.148525 0.435807 0.093244
H15   H     H_    0.677242 0.677919 0.509442 0.034739
H16   H     H_    0.140586 0.326696 0.499383 0.065582
H17   H     H_    0.506034 0.543232 0.827687 0.074520
H18   H     H_    0.438221 0.610908 0.937720 0.060650
H19   H     H_    0.283537 0.456616 0.186139 0.073216
H20   H     H_    0.237312 0.374507 0.944915 0.062740
H21   H     H_    0.333536 0.390006 0.071330 0.059637
H22   H     H_    0.743629 0.565016 0.144621 0.082268
H23   H     H_    0.665108 0.394123 0.207662 0.061236
H24   H     H_    0.651713 0.393312 0.341564 0.033052
H25   H     H_    0.184287 0.631721 0.665601 0.050495
H26   H     H_    0.938722 0.552455 0.681264 0.133574
H27   H     H_    0.055371 0.574885 0.768677 0.039896
H28   H     H_    0.887924 0.624594 0.749672 0.117269
H29   H     H_    0.266018 0.763519 0.743103 0.112957
H30   H     H_    0.212792 0.289283 0.188912 0.098940
H31   H     H_    0.006309 0.259808 0.201026 0.083404
H32   H     H_    0.082462 0.361531 0.213785 0.100219
H33   H     H_    0.031038 0.187369 0.304667 0.078829
H34   H     H_    0.759672 0.307431 0.205260 0.119525
H35   H     H_    0.684823 0.668130 0.651203 0.049292
H36   H     H_    0.463883 0.697572 0.577816 0.144594
H37   H     H_    0.411262 0.769736 0.645860 0.116159
H38   H     H_    0.594861 0.788708 0.606535 0.046497
H39   H     H_    0.696625 0.859563 0.822186 0.111341
H40   H     H_    0.541676 0.852206 0.749013 0.115771
H41   H     H_    0.529554 0.783596 0.812297 0.148430
H42   H     H_    0.319746 0.906026 0.293131 0.149489
H43   H     H_    0.502081 0.907079 0.249878 0.121094
H44   H     H_    0.310415 0.904495 0.197770 0.118133
H45   H     H_    0.270731 0.684274 0.794760 0.092786
H46   H     H_    0.848574 0.863821 0.318462 0.056422
H47   H     H_    0.763497 0.197048 0.603470 0.145324
H48   H     H_    0.898557 0.132779 0.633588 0.050905
H49   H     H_    0.720800 0.147284 0.677708 0.122068
H50   H     H_    0.009266 0.270503 0.672353 -0.037142
H51   H     H_    0.903488 0.189597 0.797419 0.114524
H52   H     H_    0.292957 0.292965 0.705420 -0.053583
H53   H     H_    0.364032 0.193127 0.778969 0.101857
H54   H     H_    0.346427 0.325319 0.842978 0.129695
H55   H     H_    0.495942 0.279296 0.889572 0.137326
H56   H     H_    0.107374 0.742596 0.796709 0.095191
H57   H     H_    0.558001 0.354428 0.838011 0.165899
H58   H     H_    0.943240 0.750876 0.365034 0.026997
H59   H     H_    0.158726 0.824740 0.612706 0.145435
H60   H     H_    0.168745 0.909543 0.571342 0.114586
H61   H     H_    0.038963 0.899112 0.640978 0.084133
H62   H     H_    0.352168 0.090778 0.503981 0.137833
H63   H     H_    0.254622 0.071511 0.581525 0.122224
H64   H     H_    0.192652 0.015623 0.493149 0.110295
H65   H     H_    0.641938 0.897426 0.433356 0.068757
H66   H     H_    0.763889 0.721282 0.301775 -0.108828
H67   H     H_    0.081122 0.328569 0.334857 0.061450
H68   H     H_    0.465797 0.698620 0.056152 0.112733
H69   H     H_    0.535908 0.663424 0.135018 0.113347
H70   H     H_    0.662655 0.667040 0.063494 0.115949
H71   H     H_    0.048258 0.421003 0.858010 0.072164
H72   H     H_    0.072478 0.475728 0.606105 0.125950
H73   H     H_    0.241458 0.432988 0.590056 0.171432
H74   H     H_    0.100220 0.371819 0.612496 0.049151
H75   H     H_    0.710207 0.624694 0.388058 0.040968
H76   H     H_    0.576662 0.567628 0.419561 0.162500
H77   H     H_    0.746989 0.524007 0.401740 0.131615
H78   H     H_    0.222191 0.771300 0.220731 0.153804
H79   H     H_    0.042539 0.848293 0.291799 0.121781
H80   H     H_    0.913913 0.783432 0.170256 0.149108
H81   H     H_    0.717178 0.795800 0.197711 0.116302
H82   H     H_    0.858266 0.879956 0.191986 0.114852
H83   H     H_    0.853271 0.411280 0.315960 0.030755
H84   H     H_    0.230199 0.183459 0.276645 0.114385
O1    O     O_2   0.166667 0.691630 0.546720 -0.467026
O2    O     O_2   0.758524 0.443470 0.747937 -0.493523
O3    O     O_3   0.806887 0.297555 0.725517 -0.595426
O4    O     O_3   0.893830 0.593690 0.541700 -0.502531
O5    O     O_3   0.426330 0.460710 0.414310 -0.477807
O6    O     O_2   0.638540 0.536570 0.671920 -0.462813
O7    O     O_3   0.486990 0.658208 0.711409 -0.655146
O8    O     O_2   0.512706 0.221248 0.523635 -0.475291
O9    O     O_3   0.421966 0.216699 0.648108 -0.617304
O10   O     O_3   0.390350 0.644650 0.417800 -0.482535
O11   O     O_2   0.359682 0.782289 0.491810 -0.474629
O12   O     O_3   0.323855 0.337031 0.320552 -0.622096
O13   O     O_3   0.004173 0.704102 0.660012 -0.656723
O14   O     O_3   0.340565 0.777260 0.354112 -0.572285
O15   O     O_2   0.171750 0.463380 0.328050 -0.483275
O16   O     O_3   0.965290 0.605410 0.380210 -0.480508
O17   O     O_2   0.048880 0.549990 0.251524 -0.476558
O18   O     O_3   0.979083 0.692399 0.266546 -0.590825
O19   O     O_2   0.643630 0.308330 0.453260 -0.422787
O20   O     O_3   0.916470 0.406310 0.458240 -0.517462
O21   O     O_3   0.419940 0.355340 0.582140 -0.504571
O22   O     O_3   0.786117 0.301550 0.339711 -0.639211
O23   O     O_3   0.383960 0.539280 0.585630 -0.495015
O24   O     O_3   0.845010 0.394580 0.619730 -0.471557
P1    P     P_3+3 0.992230 0.679190 0.566750 0.958748
P2    P     P_3+3 0.339610 0.439630 0.337240 0.979833
P3    P     P_3+3 0.927836 0.598974 0.286979 0.969566
P4    P     P_3+3 0.818060 0.320800 0.433200 0.986143
P5    P     P_3+3 0.875765 0.392176 0.712142 0.942909
P6    P     P_3+3 0.440084 0.745788 0.427564 0.965008
P7    P     P_3+3 0.463575 0.558200 0.676237 0.920535
P8    P     P_3+3 0.383283 0.252778 0.567883 0.952537

loop_
_geom_bond_atom_site_label_1
_geom_bond_atom_site_label_2
_ccdc_geom_bond_type
C6    C7    D    
O3    P5    S    
C52   H60   S    
C48   H41   S    
C46   H32   S    
C1    H78   S    
C16   H46   S    
C2    P6    S    
C25   C54   S    
C43   H84   S    
C54   H70   S    
C51   H57   S    
O12   P2    S    
C5    C6    S    
O15   P2    D    
C25   C31   A    
C39   H23   S    
C2    C61   S    
Ba1   P2    S    
O19   P4    D    
C46   H31   S    
O23   P7    S    
C33   P5    S    
C20   H19   S    
C26   C27   A    
O11   P6    D    
C22   C24   A    
C32   C33   A    
C35   C38   A    
C8    C13   A    
C58   H80   S    
C47   H38   S    
C36   C37   A    
O9    P8    S    
C51   H54   S    
C56   H8    S    
C39   H12   S    
C50   H49   S    
C42   H67   S    
Ba1   O23   S    
C29   H20   S    
C1    H4    S    
Ba1   O5    S    
C45   H50   S    
Ba1   Ba2   S    
C40   C44   S    
C9    C17   A    
C53   H62   S    
C14   C15   D    
C21   C31   S    
C59   H52   S    
C21   C22   A    
C45   O3    S    
C28   C39   S    
O17   P3    D    
C57   H76   S    
C22   H22   S    
Ba2   O19   S    
Ba2   O24   S    
C52   H59   S    
C4    O18   S    
C48   H40   S    
C14   H13   S    
C19   C20   A    
O13   P1    S    
C4    H66   S    
C30   H21   S    
O8    P8    D    
C28   H83   S    
Ba2   O5    S    
C4    C16   S    
C11   H14   S    
C46   H30   S    
C32   C37   A    
C16   H79   S    
C3    H65   S    
C6    C52   S    
C3    C5    D    
C1    C49   S    
C51   H55   S    
C56   H7    S    
C44   H28   S    
C50   H48   S    
O18   P3    S    
O4    P1    S    
C28   O22   S    
C60   H53   S    
C35   C36   A    
C35   P7    S    
C44   H26   S    
Ba2   P4    S    
C47   H36   S    
C60   H10   S    
C51   C60   S    
C29   C30   A    
C53   H63   S    
C50   H47   S    
C49   H42   S    
C12   H1    S    
C27   C37   S    
C12   H3    S    
C55   H74   S    
C55   H73   S    
O10   P6    S    
C10   C11   A    
C18   C57   S    
C17   H16   S    
C8    C53   S    
Ba1   O16   S    
C54   H69   S    
C1    C12   S    
Ba2   O23   S    
C10   P4    S    
O5    P2    S    
C59   H9    S    
C16   C58   S    
C5    C14   S    
C53   H64   S    
Ba1   O15   S    
C48   H39   S    
Ba2   O6    S    
C19   P2    S    
O7    P7    S    
C43   H2    S    
C15   H11   S    
C39   H34   S    
C40   H25   S    
C40   C41   S    
O14   P6    S    
C59   O9    S    
Ba2   O21   S    
C34   C48   S    
C34   H6    S    
O20   P4    S    
Ba2   O4    S    
C13   C15   S    
C24   P3    S    
C52   H61   S    
O6    P7    D    
C38   C55   S    
C23   O7    S    
C7    C61   D    
C40   O13   S    
C42   C43   S    
C2    C3    S    
C7    P1    S    
C34   H5    S    
C45   C50   S    
C44   H27   S    
C32   H71   S    
O22   P4    S    
O21   P8    S    
O24   P5    S    
Ba1   P1    S    
C41   H29   S    
C57   H75   S    
O2    P5    D    
C30   C31   A    
C12   O14   S    
C11   C13   A    
C33   C38   A    
C26   H18   S    
C27   C29   A    
C58   H81   S    
C45   C56   S    
O16   P3    S    
C18   C24   A    
C57   H77   S    
C49   H43   S    
C10   C17   A    
Ba1   O10   S    
O1    P1    D    
Ba1   O4    S    
C41   H45   S    
C59   C60   S    
C23   C47   S    
C54   H68   S    
C8    C9    A    
C23   C34   S    
C23   H35   S    
C9    P8    S    
C18   C19   A    
C36   H17   S    
C49   H44   S    
C58   H82   S    
C25   C26   A    
C56   H51   S    
C42   O12   S    
Ba1   O20   S    
C20   C21   A    
C55   H72   S    
Ba1   O1    S    
C4    H58   S    
C28   H24   S    
C43   H33   S    
Ba2   O20   S    
C42   C46   S    
C41   H56   S    
C47   H37   S    
C61   H15   S    
