data_mof_unit_42179.cif
_audit_creation_date              2012-12-10T20:28:46-0500
_audit_creation_method            fapswitch 2.2
_symmetry_space_group_name_H-M    P1
_symmetry_Int_Tables_number       1
_space_group_crystal_system       triclinic
_cell_length_a                    10.724582
_cell_length_b                    10.703116
_cell_length_c                    9.857088
_cell_angle_alpha                 89.139158
_cell_angle_beta                  89.972303
_cell_angle_gamma                 90.934942
_cell_volume                      1131.18147046

loop_
_atom_site_label
_atom_site_type_symbol
_atom_type_description
_atom_site_fract_x
_atom_site_fract_y
_atom_site_fract_z
_atom_type_partial_charge
C1    C     C_R   0.504623 0.259841 0.500618 0.882131
C2    C     C_R   0.544160 0.937743 0.376601 -0.199920
C3    C     C_R   0.524323 0.871558 0.498645 -0.103883
C4    C     C_R   0.260549 0.511987 0.500393 0.885188
C5    C     C_R   0.529451 0.933815 0.621529 0.030320
C6    C     C_3   0.443788 0.923981 0.741335 -0.167997
C7    C     C_3   0.448494 0.065503 0.744122 -0.560080
C8    C     C_R   0.396405 0.462465 0.072012 0.235006
C9    C     C_R   0.594351 0.557519 0.069624 0.027442
C10   C     C_R   0.595667 0.552654 0.925521 -0.081955
C11   C     C_R   0.395632 0.464184 0.929798 0.245902
C12   C     C_R   0.062173 0.531121 0.627104 0.069153
C13   C     C_3   0.328856 0.341305 0.926270 -0.523513
C14   C     C_3   0.330765 0.339245 0.080511 -0.498235
C15   C     C_R   0.504028 0.740075 0.499179 0.869003
C16   C     C_R   0.739939 0.489892 0.501128 0.874228
C17   C     C_R   0.115462 0.577231 0.748492 -0.202470
C18   C     C_R   0.057296 0.554269 0.874117 0.153483
C19   C     C_R   0.947049 0.483593 0.878147 -0.115661
C20   C     C_R   0.887975 0.450225 0.757767 -0.227109
C21   C     C_R   0.939361 0.486342 0.630295 0.110292
C22   C     C_2   0.503193 0.864097 0.863433 0.461232
C23   C     C_R   0.127344 0.524704 0.502546 -0.126226
C24   C     C_2   0.691238 0.634555 0.136501 0.384961
C25   C     C_R   0.063719 0.506881 0.380563 -0.201765
C26   C     C_R   0.937041 0.489798 0.381679 -0.204900
C27   C     C_R   0.873669 0.481090 0.505311 -0.121729
C28   C     C_R   0.531376 0.061619 0.622582 0.103557
C29   C     C_R   0.526280 0.128709 0.500737 -0.087835
C30   C     C_R   0.545112 0.067084 0.377635 -0.215318
H1    H     H_    0.111699 0.504867 0.283889 0.183236
H2    H     H_    0.905154 0.457192 0.974584 0.165681
H3    H     H_    0.803932 0.393589 0.766387 0.169348
H4    H     H_    0.889061 0.482827 0.285322 0.187226
H5    H     H_    0.551292 0.117541 0.281707 0.166877
H6    H     H_    0.549872 0.890710 0.280282 0.176075
H7    H     H_    0.349877 0.885003 0.715986 0.171209
H8    H     H_    0.601096 0.880993 0.885888 0.069090
H9    H     H_    0.675420 0.673545 0.234903 0.139296
H10   H     H_    0.194476 0.646940 0.978648 0.205603
H11   H     H_    0.050263 0.659761 0.041356 0.232835
H12   H     H_    0.356862 0.108275 0.721421 0.206159
H13   H     H_    0.499532 0.103832 0.832827 0.189950
H14   H     H_    0.671444 0.595306 0.867955 0.185392
H15   H     H_    0.233633 0.348575 0.882893 0.222553
H16   H     H_    0.386999 0.269022 0.881400 0.212610
H17   H     H_    0.236451 0.346327 0.126258 0.212444
H18   H     H_    0.389996 0.264611 0.124545 0.212105
H19   H     H_    0.200938 0.632300 0.746496 0.166853
N1    N     N_R   0.499160 0.499140 0.142800 -0.162147
N2    N     N_R   0.499160 0.499180 0.857150 -0.133320
N3    N     N_3   0.111833 0.596776 0.998429 -0.475872
O1    O     O_R   0.500020 0.316790 0.614690 -0.617647
O2    O     O_2   0.789389 0.660587 0.079160 -0.643675
O3    O     O_R   0.500000 0.316760 0.385350 -0.626573
O4    O     O_R   0.316770 0.500020 0.614690 -0.623422
O5    O     O_R   0.316760 0.499980 0.385350 -0.612465
O6    O     O_R   0.500000 0.683240 0.614650 -0.614626
O7    O     O_R   0.499980 0.683210 0.385310 -0.642136
O8    O     O_R   0.683240 0.500020 0.614650 -0.634436
O9    O     O_R   0.683230 0.499980 0.385310 -0.652487
O10   O     O_2   0.440812 0.797173 0.939352 -0.612710
Zn1   Zn    Zn3+2 0.500010 0.500020 0.653130 0.945407
Zn2   Zn    Zn3+2 0.499990 0.499980 0.346870 0.938271

loop_
_geom_bond_atom_site_label_1
_geom_bond_atom_site_label_2
_ccdc_geom_bond_type
C12   C17   A    
C25   H1    S    
O9    Zn2   S    
C14   H18   S    
C9    C24   S    
C6    C7    S    
C7    H13   S    
C22   O10   D    
C5    C28   A    
C11   C13   S    
C9    C10   A    
H11   N3    S    
C19   C20   A    
N2    Zn1   S    
C2    C30   A    
C10   N2    A    
O3    Zn2   S    
C7    C28   S    
C16   C27   S    
C1    C29   S    
C2    C3    A    
C1    O3    A    
O4    Zn1   S    
C18   N3    S    
C13   C14   S    
C4    O4    A    
C13   H15   S    
O1    Zn1   S    
C12   C23   A    
O7    Zn2   S    
C29   C30   A    
C15   O7    A    
C30   H5    S    
O8    Zn1   S    
C19   H2    S    
C28   C29   A    
C17   C18   A    
C8    C11   A    
C26   C27   A    
C5    C6    S    
C21   C27   A    
C15   O6    A    
C6    H7    S    
C11   N2    A    
C16   O9    A    
C20   H3    S    
C24   O2    D    
C22   H8    S    
C8    N1    A    
C24   H9    S    
C3    C15   S    
C20   C21   A    
O5    Zn2   S    
C23   C25   A    
C16   O8    A    
C7    H12   S    
C2    H6    S    
O6    Zn1   S    
C4    C23   S    
C1    O1    A    
C13   H16   S    
C18   C19   A    
C8    C14   S    
N1    Zn2   S    
C25   C26   A    
H10   N3    S    
C14   H17   S    
C10   H14   S    
C12   C21   A    
C26   H4    S    
C17   H19   S    
C9    N1    A    
C4    O5    A    
C3    C5    A    
C6    C22   S    
