data_mof_unit_65324.cif
_audit_creation_date              2012-12-10T18:53:57-0500
_audit_creation_method            fapswitch 2.2
_symmetry_space_group_name_H-M    P1
_symmetry_Int_Tables_number       1
_space_group_crystal_system       triclinic
_cell_length_a                    19.374232
_cell_length_b                    19.440793
_cell_length_c                    19.345667
_cell_angle_alpha                 84.872383
_cell_angle_beta                  95.544014
_cell_angle_gamma                 90.214472
_cell_volume                      7223.35781979

loop_
_atom_site_label
_atom_site_type_symbol
_atom_type_description
_atom_site_fract_x
_atom_site_fract_y
_atom_site_fract_z
_atom_type_partial_charge
Br1   Br    Br    0.596659 0.407842 0.039663 -0.457100
Br2   Br    Br    0.509795 0.661055 0.066594 -0.392552
Br3   Br    Br    0.512554 0.659477 0.239893 -0.343693
Br4   Br    Br    0.408666 0.774637 0.353100 -0.380756
Br5   Br    Br    0.537194 0.896222 0.649390 -0.465678
C1    C     C_R   0.311442 0.492475 0.492041 0.792969
C2    C     C_2   0.461202 0.979173 0.511410 -0.167726
C3    C     C_2   0.518950 0.016921 0.518017 -0.157971
C4    C     C_R   0.688362 0.507261 0.508382 0.814042
C5    C     C_R   0.511838 0.236316 0.512724 -0.004064
C6    C     C_R   0.764160 0.505242 0.517785 -0.038768
C7    C     C_R   0.799632 0.447052 0.501493 -0.171971
C8    C     C_R   0.871347 0.443107 0.514141 -0.200471
C9    C     C_R   0.908603 0.497526 0.542435 0.070303
C10   C     C_R   0.873497 0.556670 0.557870 0.203259
C11   C     C_R   0.801354 0.559768 0.546251 -0.208190
C12   C     C_R   0.466187 0.904590 0.508307 0.050884
C13   C     C_R   0.124744 0.546488 0.451739 -0.139104
C14   C     C_R   0.196480 0.545390 0.451551 -0.178519
C15   C     C_R   0.201868 0.437318 0.525216 -0.190881
C16   C     C_R   0.508824 0.492007 0.689144 0.795466
C17   C     C_R   0.129997 0.438213 0.524750 -0.111197
C18   C     C_R   0.091569 0.494058 0.489984 0.203022
C19   C     C_2   0.984317 0.493485 0.549511 0.175756
C20   C     C_2   0.016343 0.497557 0.490755 -0.304326
C21   C     C_R   0.235661 0.491419 0.489342 -0.011547
C22   C     C_R   0.488087 0.512118 0.235448 -0.115005
C23   C     C_R   0.437674 0.876299 0.448105 -0.235255
C24   C     C_R   0.477686 0.450926 0.203248 -0.237492
C25   C     C_R   0.475971 0.451785 0.131415 -0.118857
C26   C     C_R   0.487231 0.513465 0.091005 0.084458
C27   C     C_R   0.495610 0.575898 0.122525 0.263332
C28   C     C_R   0.491792 0.508349 0.311154 0.856080
C29   C     C_R   0.496142 0.575281 0.195297 0.220506
C30   C     C_R   0.546907 0.536532 0.873923 -0.141937
C31   C     C_R   0.540836 0.542015 0.801414 -0.167630
C32   C     C_R   0.497666 0.424492 0.802660 -0.180703
C33   C     C_R   0.505007 0.418645 0.875239 -0.126345
C34   C     C_R   0.446083 0.806290 0.440262 0.287604
C35   C     C_R   0.528792 0.474908 0.910869 0.113207
C36   C     C_2   0.488974 0.512645 0.015505 -0.243505
C37   C     C_2   0.530756 0.470662 0.986701 0.236644
C38   C     C_R   0.515399 0.486291 0.765359 -0.007589
C39   C     C_R   0.508386 0.311762 0.508655 0.787555
C40   C     C_R   0.491342 0.688648 0.491725 0.866890
C41   C     C_R   0.482908 0.763505 0.494421 -0.141802
C42   C     C_R   0.510064 0.792405 0.555312 -0.268477
C43   C     C_R   0.501780 0.862200 0.562712 0.313342
C44   C     C_R   0.463504 0.125019 0.547283 -0.129469
C45   C     C_R   0.461290 0.196638 0.544866 -0.196927
C46   C     C_R   0.565614 0.203342 0.484538 -0.178658
C47   C     C_R   0.568236 0.131592 0.487710 -0.157532
C48   C     C_R   0.516488 0.092218 0.517764 0.175110
H1    H     H_    0.537007 0.760478 0.598227 0.209189
H2    H     H_    0.419617 0.220898 0.567456 0.167564
H3    H     H_    0.104433 0.395698 0.551839 0.158067
H4    H     H_    0.470525 0.402418 0.233877 0.168001
H5    H     H_    0.554886 0.590072 0.773582 0.172933
H6    H     H_    0.478636 0.380648 0.775754 0.166528
H7    H     H_    0.565248 0.580325 0.901323 0.176985
H8    H     H_    0.456141 0.549651 0.981985 0.174027
H9    H     H_    0.466644 0.404004 0.107282 0.185128
H10   H     H_    0.605641 0.232921 0.460173 0.167860
H11   H     H_    0.490583 0.370993 0.903585 0.162465
H12   H     H_    0.609812 0.106825 0.465406 0.145766
H13   H     H_    0.569337 0.991982 0.519698 0.181421
H14   H     H_    0.410550 0.909316 0.406114 0.187195
H15   H     H_    0.424109 0.095415 0.572605 0.150609
H16   H     H_    0.410469 0.003636 0.501443 0.156081
H17   H     H_    0.771893 0.404105 0.480058 0.170425
H18   H     H_    0.221291 0.587449 0.422965 0.180894
H19   H     H_    0.230890 0.394482 0.553582 0.167711
H20   H     H_    0.985823 0.508252 0.440716 0.160763
H21   H     H_    0.095227 0.589039 0.423373 0.155509
H22   H     H_    0.774479 0.605281 0.558379 0.184299
H23   H     H_    0.898097 0.397799 0.501229 0.160317
I1    I     I_    0.925724 0.644971 0.593306 -0.259971
I2    I     I_    0.036342 0.482030 0.652249 -0.276614
O1    O     O_3   0.500000 0.500000 0.500000 -0.501657
O2    O     O_R   0.467830 0.341070 0.546160 -0.647817
O3    O     O_R   0.450560 0.655630 0.450550 -0.588103
O4    O     O_R   0.545840 0.347670 0.467560 -0.647428
O5    O     O_R   0.535760 0.655640 0.535740 -0.651345
O6    O     O_R   0.545870 0.536170 0.656040 -0.641039
O7    O     O_R   0.450550 0.545430 0.340370 -0.602165
O8    O     O_R   0.347960 0.451240 0.536460 -0.643932
O9    O     O_R   0.655630 0.467150 0.467130 -0.639889
O10   O     O_R   0.340780 0.536140 0.450970 -0.641507
O11   O     O_R   0.655640 0.545460 0.545430 -0.637575
O12   O     O_R   0.467850 0.451260 0.656340 -0.641537
O13   O     O_R   0.535740 0.467130 0.347260 -0.633579
Zn1   Zn    Zn3+2 0.558310 0.558310 0.558290 0.997329
Zn2   Zn    Zn3+2 0.446830 0.436990 0.558720 0.973608
Zn3   Zn    Zn3+2 0.558290 0.446420 0.446420 0.990594
Zn4   Zn    Zn3+2 0.436570 0.558290 0.436570 1.044159

loop_
_geom_bond_atom_site_label_1
_geom_bond_atom_site_label_2
_ccdc_geom_bond_type
C3    H13   S    
O4    Zn3   S    
C44   H15   S    
C22   C24   A    
C11   H22   S    
C36   C37   D    
C14   H18   S    
C30   C31   A    
C12   C43   A    
C36   H8    S    
C2    C3    D    
C10   I1    S    
C40   C41   S    
C22   C28   S    
O5    Zn1   S    
C32   C33   A    
O1    Zn2   S    
C39   O4    A    
C28   O13   A    
C25   C26   A    
O3    Zn4   S    
C10   C11   A    
O9    Zn3   S    
C1    O10   A    
Br2   C27   S    
C13   C14   A    
C9    C19   S    
C14   C21   A    
C28   O7    A    
C16   C38   S    
C26   C27   A    
C2    C12   S    
C8    H23   S    
C35   C37   S    
O10   Zn4   S    
C13   H21   S    
C8    C9    A    
C40   O5    A    
C5    C46   A    
C16   O6    A    
C33   H11   S    
C16   O12   A    
C22   C29   A    
Br5   C43   S    
C5    C39   S    
C13   C18   A    
C39   O2    A    
C23   H14   S    
C46   H10   S    
C19   C20   D    
O1    Zn3   S    
C4    O11   A    
C17   H3    S    
C23   C34   A    
C42   H1    S    
C46   C47   A    
C30   H7    S    
C27   C29   A    
C32   C38   A    
O1    Zn4   S    
C24   C25   A    
O8    Zn2   S    
C6    C11   A    
C42   C43   A    
Br4   C34   S    
Br3   C29   S    
O11   Zn1   S    
C4    C6    S    
O1    Zn1   S    
C32   H6    S    
C34   C41   A    
C19   I2    S    
C24   H4    S    
C25   H9    S    
C5    C45   A    
C47   C48   A    
O12   Zn2   S    
C7    H17   S    
C41   C42   A    
C26   C36   S    
C9    C10   A    
C12   C23   A    
C40   O3    A    
C15   C17   A    
C3    C48   S    
C2    H16   S    
C6    C7    A    
C31   H5    S    
C45   H2    S    
C1    O8    A    
C30   C35   A    
C4    O9    A    
O13   Zn3   S    
C33   C35   A    
O7    Zn4   S    
C1    C21   S    
C15   C21   A    
C44   C48   A    
C20   H20   S    
C18   C20   S    
Br1   C37   S    
C7    C8    A    
C44   C45   A    
C17   C18   A    
C15   H19   S    
C31   C38   A    
O6    Zn1   S    
O2    Zn2   S    
C47   H12   S    
