data_mof_unit_44943.cif
_audit_creation_date              2013-03-05T16:00:47-0500
_audit_creation_method            fapswitch 2.2
_symmetry_space_group_name_H-M    P1
_symmetry_Int_Tables_number       1
_space_group_crystal_system       triclinic
_cell_length_a                    20.086429
_cell_length_b                    22.281712
_cell_length_c                    14.345473
_cell_angle_alpha                 90.016996
_cell_angle_beta                  89.975755
_cell_angle_gamma                 89.83741
_cell_volume                      6420.43355945

loop_
_atom_site_label
_atom_site_type_symbol
_atom_site_description
_atom_site_fract_x
_atom_site_fract_y
_atom_site_fract_z
_atom_type_partial_charge
O1    O     O_R   0.066090 0.433930 0.580280 -0.639605
O2    O     O_R   0.933910 0.566070 0.419720 -0.627868
O3    O     O_R   0.933910 0.566070 0.580280 -0.640000
O4    O     O_R   0.066090 0.433930 0.419720 -0.627811
O5    O     O_R   0.933910 0.433930 0.419720 -0.644775
O6    O     O_R   0.066090 0.566070 0.580280 -0.621586
O7    O     O_R   0.066090 0.566070 0.419720 -0.644548
O8    O     O_R   0.933910 0.433930 0.580280 -0.621520
O9    O     O_R   0.566090 0.933930 0.580280 -0.639969
O10   O     O_R   0.433910 0.066070 0.419720 -0.627808
O11   O     O_R   0.433910 0.066070 0.580280 -0.639997
O12   O     O_R   0.566090 0.933930 0.419720 -0.627772
O13   O     O_R   0.433910 0.933930 0.419720 -0.644574
O14   O     O_R   0.566090 0.066070 0.580280 -0.621587
O15   O     O_R   0.566090 0.066070 0.419720 -0.644544
O16   O     O_R   0.433910 0.933930 0.580280 -0.621494
C1    C     C_R   0.086351 0.413611 0.500488 0.953200
C2    C     C_R   0.913598 0.586346 0.500536 0.953341
C3    C     C_R   0.914415 0.413021 0.499404 0.948519
C4    C     C_R   0.085593 0.586966 0.499412 0.948989
C5    C     C_R   0.586388 0.913640 0.500493 0.953219
C6    C     C_R   0.413606 0.086355 0.500540 0.953193
C7    C     C_R   0.414414 0.913027 0.499416 0.948886
C8    C     C_R   0.585596 0.086965 0.499414 0.948922
Zn1   Zn    Zn3+2 1.000000 0.500000 0.607200 0.941769
Zn2   Zn    Zn3+2 1.000000 0.500000 0.392800 0.938746
Zn3   Zn    Zn3+2 0.500000 0.000000 0.607200 0.941583
Zn4   Zn    Zn3+2 0.500000 1.000000 0.392800 0.938909
C9    C     C_R   0.114154 0.692719 0.465026 0.027539
C10   C     C_R   0.885755 0.307322 0.464567 0.027010
C11   C     C_R   0.885924 0.691426 0.539154 0.026069
C12   C     C_R   0.113857 0.308472 0.539065 0.027117
C13   C     C_R   0.614120 0.192739 0.465104 0.027575
C14   C     C_R   0.385863 0.807272 0.464910 0.027447
C15   C     C_R   0.385915 0.191421 0.539289 0.026066
C16   C     C_R   0.613998 0.808559 0.539127 0.026237
C17   C     C_R   0.133438 0.635113 0.496048 -0.180826
C18   C     C_R   0.866552 0.364880 0.496009 -0.180788
C19   C     C_R   0.866308 0.635025 0.504051 -0.162305
C20   C     C_R   0.133543 0.364847 0.503894 -0.162932
C21   C     C_R   0.633428 0.135123 0.496062 -0.180816
C22   C     C_R   0.366581 0.864867 0.496073 -0.180856
C23   C     C_R   0.366318 0.135038 0.504082 -0.162383
C24   C     C_R   0.633634 0.864923 0.503909 -0.162480
C25   C     C_R   0.200167 0.622094 0.517760 0.309080
C26   C     C_R   0.799848 0.377872 0.518026 0.309536
C27   C     C_R   0.799560 0.623267 0.481627 0.303718
C28   C     C_R   0.200307 0.376565 0.481456 0.303894
C29   C     C_R   0.700168 0.122111 0.517724 0.309036
C30   C     C_R   0.299863 0.877867 0.517968 0.309291
C31   C     C_R   0.299564 0.123273 0.481712 0.303773
C32   C     C_R   0.700378 0.876635 0.481335 0.303836
C33   C     C_R   0.249198 0.665884 0.500706 0.001560
C34   C     C_R   0.750795 0.334101 0.500977 0.001469
C35   C     C_R   0.750836 0.666410 0.504088 -0.000341
C36   C     C_R   0.249026 0.333472 0.504046 -0.000446
C37   C     C_R   0.749182 0.165910 0.500629 0.001538
C38   C     C_R   0.250825 0.834082 0.500930 0.001555
C39   C     C_R   0.250836 0.166378 0.504322 -0.000218
C40   C     C_R   0.749104 0.833520 0.503818 -0.000390
C41   C     C_R   0.227050 0.726343 0.492083 -0.025651
C42   C     C_R   0.772934 0.273654 0.492074 -0.025694
C43   C     C_R   0.772976 0.726349 0.515734 -0.022173
C44   C     C_R   0.226897 0.273554 0.515942 -0.022447
C45   C     C_R   0.727017 0.226368 0.492089 -0.025618
C46   C     C_R   0.272974 0.773630 0.492100 -0.025712
C47   C     C_R   0.272942 0.226319 0.515997 -0.022092
C48   C     C_R   0.726959 0.773602 0.515687 -0.022243
C49   C     C_R   0.158929 0.739645 0.480998 0.108571
C50   C     C_R   0.841033 0.260371 0.480632 0.108571
C51   C     C_R   0.841155 0.739175 0.527401 0.083831
C52   C     C_R   0.158714 0.260718 0.527717 0.084091
C53   C     C_R   0.658890 0.239669 0.481085 0.108555
C54   C     C_R   0.341092 0.760334 0.480847 0.108516
C55   C     C_R   0.341118 0.239162 0.527642 0.083854
C56   C     C_R   0.658779 0.760792 0.527485 0.083860
C57   C     C_R   0.318653 0.653196 0.493576 0.187485
C58   C     C_R   0.681332 0.346795 0.494096 0.187528
C59   C     C_R   0.681676 0.653661 0.513149 0.186769
C60   C     C_R   0.318188 0.346253 0.512996 0.186745
C61   C     C_R   0.818634 0.153231 0.493346 0.187414
C62   C     C_R   0.181361 0.846769 0.494005 0.187462
C63   C     C_R   0.181705 0.153585 0.513544 0.186385
C64   C     C_R   0.818274 0.846276 0.512700 0.186723
C65   C     C_R   0.862774 0.200759 0.482307 -0.227414
C66   C     C_R   0.137203 0.799257 0.483020 -0.227574
C67   C     C_R   0.137373 0.200976 0.528001 -0.229850
C68   C     C_R   0.862588 0.798878 0.527135 -0.229650
C69   C     C_R   0.362813 0.700715 0.482650 -0.227508
C70   C     C_R   0.637163 0.299284 0.483144 -0.227620
C71   C     C_R   0.637362 0.701080 0.527500 -0.229705
C72   C     C_R   0.362521 0.298871 0.527445 -0.229606
H1    H     H_    0.915195 0.190263 0.476695 0.147796
H2    H     H_    0.084777 0.809776 0.477734 0.147895
H3    H     H_    0.085320 0.189969 0.534054 0.141092
H4    H     H_    0.914702 0.809795 0.532683 0.140354
H5    H     H_    0.415234 0.690193 0.477212 0.147940
H6    H     H_    0.584737 0.309805 0.477878 0.147907
H7    H     H_    0.585262 0.690153 0.533242 0.140537
H8    H     H_    0.414627 0.309806 0.533042 0.140398
C73   C     C_R   0.941602 0.490726 0.799358 0.190193
C74   C     C_R   0.059376 0.505025 0.200711 0.180742
C75   C     C_R   0.058409 0.509274 0.799287 0.190610
C76   C     C_R   0.940625 0.494994 0.200766 0.180819
C77   C     C_R   0.441600 0.990724 0.799353 0.190252
C78   C     C_R   0.559375 0.005024 0.200707 0.180790
C79   C     C_R   0.558404 0.009285 0.799289 0.190408
C80   C     C_R   0.440624 0.994979 0.200769 0.180917
N1    N     N_R   1.000000 0.500000 0.750030 -0.159906
N2    N     N_R   1.000000 0.500000 0.249970 -0.151995
N3    N     N_R   0.500000 1.000000 0.750030 -0.159915
N4    N     N_R   0.500000 1.000000 0.249970 -0.151946
C81   C     C_R   0.057565 0.515635 0.899099 -0.071518
C82   C     C_R   0.939372 0.493962 0.099955 -0.081183
C83   C     C_R   0.942451 0.484368 0.899156 -0.071655
C84   C     C_R   0.060633 0.506065 0.099897 -0.081041
C85   C     C_R   0.557559 0.015635 0.899099 -0.071726
C86   C     C_R   0.439370 0.993952 0.099956 -0.081228
C87   C     C_R   0.442446 0.984369 0.899153 -0.071684
C88   C     C_R   0.560632 0.006055 0.099893 -0.081170
C89   C     C_R   0.000008 0.500003 0.949363 -0.078287
C90   C     C_R   0.000004 0.500010 0.050274 -0.060426
C91   C     C_R   0.500003 0.000002 0.949362 -0.078463
C92   C     C_R   0.500002 0.000002 0.050272 -0.060375
C93   C     C_R   0.113662 0.532897 0.951569 0.341620
C94   C     C_R   0.880771 0.483942 0.045030 0.315687
C95   C     C_R   0.886342 0.467133 0.951665 0.342565
C96   C     C_R   0.119233 0.516094 0.044917 0.315769
C97   C     C_R   0.613668 0.032872 0.951560 0.342558
C98   C     C_R   0.380768 0.983937 0.045030 0.315656
C99   C     C_R   0.386335 0.967137 0.951660 0.342668
C100  C     C_R   0.619234 0.016072 0.044909 0.315687
C101  C     C_3   0.049232 0.704209 0.411518 -0.439783
C102  C     C_3   0.062206 0.729645 0.313917 -0.786866
H9    H     H_    0.071150 0.778712 0.317220 0.251731
H10   H     H_    0.106264 0.708375 0.280997 0.262107
H11   H     H_    0.018035 0.722068 0.268922 0.255210
H12   H     H_    0.018808 0.663394 0.403329 0.230842
H13   H     H_    0.017004 0.736297 0.448901 0.190110
C103  C     C_3   0.950408 0.295930 0.410274 -0.439672
C104  C     C_3   0.936910 0.270620 0.312718 -0.787262
H14   H     H_    0.928420 0.221481 0.315891 0.251898
H15   H     H_    0.892402 0.291627 0.280636 0.262254
H16   H     H_    0.980662 0.278606 0.267049 0.255267
H17   H     H_    0.980805 0.336747 0.401960 0.231309
H18   H     H_    0.982849 0.263775 0.447062 0.190263
C105  C     C_3   0.948884 0.698549 0.598297 -0.411413
C106  C     C_3   0.932749 0.690811 0.701319 -0.759268
H19   H     H_    0.896084 0.725227 0.724125 0.253525
H20   H     H_    0.912049 0.645586 0.713764 0.269090
H21   H     H_    0.978840 0.695744 0.743330 0.254101
H22   H     H_    0.987735 0.665668 0.578807 0.213648
H23   H     H_    0.973297 0.742497 0.590367 0.188806
C107  C     C_3   0.050491 0.301304 0.597425 -0.411715
C108  C     C_3   0.066103 0.307915 0.700770 -0.758905
H24   H     H_    0.102205 0.272909 0.723147 0.253480
H25   H     H_    0.087295 0.352822 0.714453 0.268033
H26   H     H_    0.019702 0.303056 0.742170 0.254304
H27   H     H_    0.012042 0.334658 0.578415 0.213949
H28   H     H_    0.025635 0.257676 0.588099 0.188000
C109  C     C_3   0.549185 0.204231 0.411631 -0.439791
C110  C     C_3   0.562136 0.229673 0.314029 -0.786825
H29   H     H_    0.571147 0.278730 0.317343 0.251729
H30   H     H_    0.606144 0.208362 0.281050 0.262068
H31   H     H_    0.517928 0.222153 0.269083 0.255229
H32   H     H_    0.518764 0.163413 0.403448 0.230800
H33   H     H_    0.516968 0.236317 0.449031 0.190141
C111  C     C_3   0.450786 0.795810 0.411296 -0.439678
C112  C     C_3   0.437812 0.770421 0.313656 -0.786803
H34   H     H_    0.428965 0.721336 0.316852 0.251698
H35   H     H_    0.393695 0.791638 0.280884 0.262095
H36   H     H_    0.481945 0.778096 0.268584 0.255226
H37   H     H_    0.481211 0.836628 0.403161 0.230845
H38   H     H_    0.483020 0.763708 0.448568 0.190139
C113  C     C_3   0.448879 0.198529 0.598426 -0.411407
C114  C     C_3   0.432747 0.190777 0.701447 -0.759202
H39   H     H_    0.396091 0.225200 0.724272 0.253515
H40   H     H_    0.412029 0.145555 0.713875 0.269089
H41   H     H_    0.478839 0.195689 0.743457 0.254117
H42   H     H_    0.487726 0.165645 0.578926 0.213725
H43   H     H_    0.473295 0.242475 0.590504 0.188791
C115  C     C_3   0.550953 0.801485 0.598183 -0.411349
C116  C     C_3   0.566985 0.809077 0.701250 -0.759039
H44   H     H_    0.603546 0.774563 0.723976 0.253463
H45   H     H_    0.587782 0.854252 0.713878 0.268947
H46   H     H_    0.520835 0.804187 0.743192 0.254141
H47   H     H_    0.512189 0.834452 0.578783 0.213741
H48   H     H_    0.526431 0.757605 0.590041 0.188640
Cl1   Cl    Cl    0.218448 0.553486 0.574284 -0.675931
Cl2   Cl    Cl    0.781608 0.446432 0.574785 -0.675572
Cl3   Cl    Cl    0.780737 0.558594 0.415394 -0.664964
Cl4   Cl    Cl    0.219158 0.441119 0.414983 -0.664688
Cl5   Cl    Cl    0.718487 0.053515 0.574261 -0.675557
Cl6   Cl    Cl    0.281609 0.946450 0.574661 -0.675761
Cl7   Cl    Cl    0.280725 0.058660 0.415346 -0.664795
Cl8   Cl    Cl    0.719186 0.941216 0.414913 -0.664910
C117  C     C_3   0.349640 0.591213 0.485518 -0.364981
C118  C     C_3   0.383456 0.573172 0.576971 -0.768445
H49   H     H_    0.425253 0.604122 0.592575 0.234582
H50   H     H_    0.347757 0.574628 0.635941 0.311717
H51   H     H_    0.403975 0.527109 0.571450 0.237726
H52   H     H_    0.314233 0.556833 0.460936 0.276853
H53   H     H_    0.388223 0.591609 0.429830 0.180062
C119  C     C_3   0.650343 0.408784 0.486283 -0.365098
C120  C     C_3   0.616615 0.426775 0.577879 -0.768093
H54   H     H_    0.574808 0.395837 0.593512 0.234572
H55   H     H_    0.652359 0.425252 0.636748 0.311746
H56   H     H_    0.596129 0.472856 0.572539 0.237736
H57   H     H_    0.685733 0.443173 0.461677 0.276994
H58   H     H_    0.611708 0.408427 0.430711 0.179979
C121  C     C_3   0.651792 0.591339 0.519010 -0.368708
C122  C     C_3   0.614640 0.575713 0.429089 -0.766886
H59   H     H_    0.571133 0.606002 0.419777 0.231720
H60   H     H_    0.647661 0.580224 0.367503 0.310273
H61   H     H_    0.596145 0.528955 0.432096 0.240168
H62   H     H_    0.688849 0.556554 0.537333 0.279400
H63   H     H_    0.615671 0.589853 0.577771 0.182290
C123  C     C_3   0.348066 0.408589 0.518576 -0.368698
C124  C     C_3   0.385194 0.424043 0.428531 -0.766418
H64   H     H_    0.428764 0.393803 0.419342 0.231590
H65   H     H_    0.352192 0.419313 0.367000 0.310231
H66   H     H_    0.403587 0.470842 0.431258 0.240256
H67   H     H_    0.311010 0.443404 0.536837 0.279493
H68   H     H_    0.384201 0.410193 0.577270 0.182236
C125  C     C_3   0.849615 0.091251 0.485224 -0.364929
C126  C     C_3   0.883527 0.073213 0.576608 -0.768584
H69   H     H_    0.925329 0.104175 0.592137 0.234595
H70   H     H_    0.847884 0.074655 0.635645 0.311689
H71   H     H_    0.904056 0.027157 0.571040 0.237732
H72   H     H_    0.814181 0.056869 0.460728 0.276895
H73   H     H_    0.888139 0.091647 0.429456 0.180126
C127  C     C_3   0.150345 0.908751 0.486285 -0.365065
C128  C     C_3   0.116665 0.926684 0.577945 -0.768038
H74   H     H_    0.074878 0.895725 0.593583 0.234564
H75   H     H_    0.152443 0.925135 0.636772 0.311737
H76   H     H_    0.096159 0.972761 0.572701 0.237757
H77   H     H_    0.185702 0.943161 0.461657 0.276971
H78   H     H_    0.111674 0.908407 0.430761 0.179933
C129  C     C_3   0.151877 0.091241 0.519387 -0.368667
C130  C     C_3   0.114610 0.075670 0.429534 -0.767012
H79   H     H_    0.071069 0.105940 0.420403 0.231655
H80   H     H_    0.147545 0.080254 0.367869 0.310260
H81   H     H_    0.096153 0.028899 0.432481 0.240185
H82   H     H_    0.188989 0.056465 0.537525 0.279555
H83   H     H_    0.115845 0.089687 0.578251 0.182331
C131  C     C_3   0.848180 0.908602 0.518249 -0.368689
C132  C     C_3   0.885227 0.924061 0.428143 -0.766408
H84   H     H_    0.928775 0.893808 0.418861 0.231636
H85   H     H_    0.852164 0.919351 0.366672 0.310236
H86   H     H_    0.903638 0.970855 0.430857 0.240267
H87   H     H_    0.811153 0.943424 0.536595 0.279503
H88   H     H_    0.884372 0.910190 0.576876 0.182224
C133  C     C_3   0.875654 0.493737 0.748327 -0.276222
C134  C     C_3   0.829199 0.543405 0.784534 -0.797089
H89   H     H_    0.857947 0.582169 0.811257 0.236680
H90   H     H_    0.796127 0.559217 0.727434 0.264488
H91   H     H_    0.796856 0.526778 0.841416 0.309513
H92   H     H_    0.883522 0.503387 0.675547 0.285206
H93   H     H_    0.850815 0.449647 0.746970 0.275040
C135  C     C_3   0.123087 0.512748 0.254825 -0.259100
C136  C     C_3   0.148715 0.577416 0.251950 -0.746476
H94   H     H_    0.108510 0.608305 0.273654 0.257086
H95   H     H_    0.191525 0.582378 0.300302 0.263452
H96   H     H_    0.164563 0.591433 0.181456 0.287298
H97   H     H_    0.116101 0.500730 0.326800 0.285702
H98   H     H_    0.160801 0.479089 0.235339 0.260755
C137  C     C_3   0.124359 0.506281 0.748155 -0.276287
C138  C     C_3   0.170748 0.456530 0.784081 -0.795797
H99   H     H_    0.141930 0.417351 0.809152 0.236185
H100  H     H_    0.204567 0.441485 0.727270 0.265144
H101  H     H_    0.202337 0.472715 0.842082 0.308833
H102  H     H_    0.116495 0.496704 0.675358 0.285367
H103  H     H_    0.149253 0.550346 0.746893 0.274887
C139  C     C_3   0.876910 0.487258 0.254929 -0.259134
C140  C     C_3   0.851310 0.422587 0.251997 -0.746931
H104  H     H_    0.891568 0.391724 0.273517 0.257442
H105  H     H_    0.808551 0.417578 0.300473 0.263592
H106  H     H_    0.835405 0.408594 0.181523 0.287361
H107  H     H_    0.883886 0.499252 0.326913 0.285752
H108  H     H_    0.839188 0.520915 0.235535 0.260763
C141  C     C_3   0.375653 0.993734 0.748318 -0.276199
C142  C     C_3   0.329194 0.043401 0.784532 -0.797267
H109  H     H_    0.357936 0.082123 0.811403 0.236752
H110  H     H_    0.296200 0.059284 0.727397 0.264366
H111  H     H_    0.296778 0.026739 0.841301 0.309554
H112  H     H_    0.383519 0.003388 0.675539 0.285184
H113  H     H_    0.350812 0.949645 0.746949 0.274978
C143  C     C_3   0.623085 0.012747 0.254816 -0.259114
C144  C     C_3   0.648721 0.077413 0.251932 -0.746455
H114  H     H_    0.608524 0.108306 0.273655 0.257037
H115  H     H_    0.691541 0.082370 0.300268 0.263459
H116  H     H_    0.664556 0.091427 0.181431 0.287287
H117  H     H_    0.616095 0.000735 0.326792 0.285696
H118  H     H_    0.660796 0.979083 0.235334 0.260771
C145  C     C_3   0.624359 0.006298 0.748170 -0.276219
C146  C     C_3   0.670818 0.956622 0.784246 -0.796934
H119  H     H_    0.642074 0.917842 0.810905 0.236650
H120  H     H_    0.703904 0.940844 0.727094 0.264508
H121  H     H_    0.703140 0.973229 0.841136 0.309449
H122  H     H_    0.616512 0.996667 0.675385 0.285173
H123  H     H_    0.649200 0.050388 0.746831 0.274846
C147  C     C_3   0.376907 0.987246 0.254935 -0.259133
C148  C     C_3   0.351276 0.922580 0.251997 -0.746509
H124  H     H_    0.391475 0.891692 0.273651 0.257097
H125  H     H_    0.308450 0.917614 0.300366 0.263557
H126  H     H_    0.335454 0.908571 0.181494 0.287292
H127  H     H_    0.383877 0.999243 0.326920 0.285689
H128  H     H_    0.339197 0.020912 0.235537 0.260743
Cl9   Cl    Cl    0.172655 0.585745 0.910915 -0.555436
Cl10  Cl    Cl    0.797692 0.501318 0.077195 -0.572322
Cl11  Cl    Cl    0.827386 0.414245 0.911056 -0.555753
Cl12  Cl    Cl    0.202314 0.498735 0.076987 -0.572367
Cl13  Cl    Cl    0.672624 0.085762 0.910933 -0.555732
Cl14  Cl    Cl    0.297688 0.001306 0.077206 -0.572238
Cl15  Cl    Cl    0.327376 0.914253 0.911046 -0.555791
Cl16  Cl    Cl    0.702315 0.998714 0.076980 -0.572323

loop_
_geom_bond_atom_site_label_1
_geom_bond_atom_site_label_2
_geom_bond_distance
_ccdc_geom_bond_type
C9    C101  1.534401 S    
C94   C95   1.395005 A    
C14   C22   1.411890 A    
C106  H21   1.110592 S    
C98   Cl14  1.772919 S    
C148  H125  1.110759 S    
C57   C69   1.392036 A    
C142  H109  1.108663 S    
C38   C62   1.426355 A    
O6    Zn1   2.022287 S    
C147  H128  1.100453 S    
C42   C50   1.408220 A    
C139  C140  1.531931 S    
C115  C116  1.522815 S    
C94   Cl10  1.772903 S    
C134  H90   1.111621 S    
C133  H92   1.077717 S    
C114  H41   1.110564 S    
C129  C130  1.531092 S    
C32   Cl8   1.767729 S    
C77   C141  1.515109 S    
C143  H118  1.100452 S    
C11   C105  1.531771 S    
C108  H26   1.110528 S    
C8    C21   1.443159 S    
C21   C29   1.405685 A    
C9    C49   1.399997 A    
C103  C104  1.533247 S    
C104  H16   1.110712 S    
O10   C6    1.308837 A    
C60   C72   1.394802 A    
C73   C133  1.515092 S    
C116  H44   1.110932 S    
C110  H31   1.110656 S    
C137  H102  1.077623 S    
C148  H124  1.104231 S    
O11   Zn3   2.017012 S    
O2    Zn2   2.016629 S    
C86   C92   1.417618 A    
C107  C108  1.522643 S    
C12   C107  1.531906 S    
C13   C53   1.400020 A    
C111  C112  1.533162 S    
C138  H100  1.111801 S    
C101  H13   1.102123 S    
C73   C83   1.438788 A    
C16   C24   1.411050 A    
C93   Cl9   1.771612 S    
C76   C139  1.507255 S    
C19   C27   1.404257 A    
C132  H86   1.107957 S    
C141  H112  1.077707 S    
C20   C28   1.404244 A    
C137  H103  1.103259 S    
C64   C68   1.394807 A    
C103  H17   1.103320 S    
C87   C91   1.406963 A    
C125  H72   1.104582 S    
C75   N1    1.385808 A    
C15   C113  1.531755 S    
C100  Cl16  1.772922 S    
C98   C99   1.395008 A    
C31   Cl7   1.767727 S    
C76   N2    1.390853 A    
O9    C5    1.295730 A    
C74   C135  1.507286 S    
C105  H23   1.102283 S    
C51   C68   1.399374 A    
C122  H59   1.110761 S    
C108  H24   1.111046 S    
C118  H50   1.109156 S    
C83   C89   1.406958 A    
C105  C106  1.522831 S    
C91   C92   1.447603 A    
C111  H38   1.102108 S    
C10   C18   1.411974 A    
O7    Zn2   2.022335 S    
C106  H20   1.105724 S    
C53   C70   1.397300 A    
C136  H94   1.104235 S    
C82   C94   1.434703 A    
C46   C54   1.408328 A    
C29   C37   1.409682 A    
O13   C7    1.295513 A    
C64   C131  1.516734 S    
O14   C8    1.310331 A    
C32   C40   1.407115 A    
C39   C47   1.418576 A    
C33   C41   1.422929 A    
C146  H121  1.107299 S    
C35   C43   1.418684 A    
C87   C99   1.409609 A    
C36   C44   1.418659 A    
C85   C97   1.409632 A    
C128  H74   1.110816 S    
C59   C71   1.394791 A    
Zn1   N1    2.048964 S    
C113  H43   1.102276 S    
C24   C32   1.404258 A    
O16   Zn3   2.022338 S    
C11   C51   1.401363 A    
C121  H62   1.104931 S    
C25   C33   1.409697 A    
C112  H35   1.108106 S    
C131  H87   1.104923 S    
C120  H55   1.109156 S    
O8    C3    1.310555 A    
C139  H107  1.075905 S    
C140  H106  1.105449 S    
C116  H46   1.110561 S    
C134  H91   1.107363 S    
C67   H3    1.078092 S    
C5    C24   1.440696 S    
C6    C23   1.440688 S    
C122  H61   1.107946 S    
C144  H114  1.104248 S    
C117  H52   1.104582 S    
C115  H48   1.102236 S    
C109  H33   1.102096 S    
C22   C30   1.405661 A    
O15   C8    1.295528 A    
O16   C7    1.310357 A    
C75   C137  1.515248 S    
C127  H77   1.104564 S    
C47   C55   1.409773 A    
C52   C67   1.399638 A    
C62   C127  1.517568 S    
C131  C132  1.531061 S    
C79   N3    1.385775 A    
C135  C136  1.532055 S    
C136  H96   1.105448 S    
C137  C138  1.535436 S    
O1    Zn1   2.016630 S    
C113  H42   1.104725 S    
C97   Cl13  1.771608 S    
C48   C56   1.409851 A    
O1    C1    1.295798 A    
C36   C60   1.424741 A    
C107  H27   1.104618 S    
C124  H66   1.107945 S    
C4    C17   1.443138 S    
C58   C70   1.392063 A    
C130  H79   1.110757 S    
C117  C118  1.530905 S    
C128  H76   1.107717 S    
C18   C26   1.405761 A    
C56   C71   1.399461 A    
C81   C89   1.406988 A    
C119  C120  1.530888 S    
C142  H111  1.107302 S    
C126  H69   1.110820 S    
C71   H7    1.078251 S    
C50   C65   1.397244 A    
C61   C65   1.392115 A    
C63   C67   1.394764 A    
C68   H4    1.078310 S    
C108  H25   1.106015 S    
C140  H104  1.104216 S    
C102  H11   1.110679 S    
C109  C110  1.533117 S    
C12   C52   1.401740 A    
Zn4   N4    2.048965 S    
C59   C121  1.516738 S    
C84   C90   1.417617 A    
O12   Zn4   2.017012 S    
C78   C143  1.507248 S    
C39   C63   1.424449 A    
C104  H15   1.108278 S    
C79   C145  1.515230 S    
C73   N1    1.385692 A    
C144  H116  1.105461 S    
C43   C48   1.399064 A    
C119  H57   1.104581 S    
O13   Zn4   2.022290 S    
O14   Zn3   2.022287 S    
C110  H30   1.108084 S    
C145  H123  1.103281 S    
C97   C100  1.395024 A    
C146  H120  1.111537 S    
C77   N3    1.385702 A    
C101  H12   1.103382 S    
O8    Zn1   2.022338 S    
C14   C111  1.534434 S    
C10   C50   1.399925 A    
C148  H126  1.105460 S    
C132  H85   1.109286 S    
C121  H63   1.112524 S    
C30   C38   1.409696 A    
C123  H67   1.104926 S    
C103  H18   1.101946 S    
C145  C146  1.535804 S    
C131  H88   1.112529 S    
C34   C42   1.422873 A    
C62   C66   1.391995 A    
C147  H127  1.075924 S    
C130  H81   1.107910 S    
C80   N4    1.390869 A    
C1    C20   1.440733 S    
C33   C57   1.426303 A    
C2    C19   1.440629 S    
C134  H89   1.108713 S    
C86   C98   1.434716 A    
C3    C18   1.443305 S    
C35   C59   1.424610 A    
C133  H93   1.103251 S    
C121  C122  1.531059 S    
O3    Zn1   2.017012 S    
C26   C34   1.409725 A    
C143  H117  1.075979 S    
C89   C90   1.447610 A    
C102  H9    1.109473 S    
C14   C54   1.400056 A    
O4    C1    1.308726 A    
C122  H60   1.109281 S    
C101  C102  1.533133 S    
C74   N2    1.390827 A    
C16   C115  1.531839 S    
C124  H64   1.110762 S    
O9    Zn3   2.016630 S    
C110  H29   1.109477 S    
O10   Zn4   2.016629 S    
C75   C81   1.438884 A    
C142  H110  1.111545 S    
C37   C45   1.422906 A    
O4    Zn2   2.017012 S    
C123  H68   1.112520 S    
C145  H122  1.077650 S    
O5    C3    1.295402 A    
O6    C4    1.310355 A    
C129  H83   1.112529 S    
C13   C21   1.411866 A    
C30   Cl6   1.768324 S    
C23   C31   1.404229 A    
O15   Zn4   2.022335 S    
C133  C134  1.535787 S    
C127  C128  1.530922 S    
C27   Cl3   1.767730 S    
C28   Cl4   1.767817 S    
O5    Zn2   2.022290 S    
C138  H99   1.108762 S    
C40   C48   1.418709 A    
O7    C4    1.295491 A    
C9    C17   1.411834 A    
C77   C87   1.438798 A    
C135  H97   1.075985 S    
C57   C117  1.517603 S    
C79   C85   1.438838 A    
C34   C58   1.426316 A    
C141  H113  1.103274 S    
C17   C25   1.405666 A    
O2    C2    1.308781 A    
C112  H34   1.109479 S    
C13   C109  1.534367 S    
C45   C53   1.408281 A    
C78   N4    1.390831 A    
C120  H54   1.110813 S    
C15   C55   1.401400 A    
C125  H73   1.112833 S    
C7    C22   1.443193 S    
C61   C125  1.517572 S    
C139  H108  1.100443 S    
C54   C69   1.397293 A    
C140  H105  1.110757 S    
C58   C119  1.517582 S    
C116  H45   1.105828 S    
C60   C123  1.516734 S    
C81   C93   1.409676 A    
C83   C95   1.409620 A    
O3    C2    1.295712 A    
C16   C56   1.401460 A    
C41   C46   1.402344 A    
C38   C46   1.422956 A    
C113  C114  1.522837 S    
C99   Cl15  1.771605 S    
C93   C96   1.395042 A    
C118  H49   1.110814 S    
C66   H2    1.080869 S    
Zn2   N2    2.048965 S    
C109  H32   1.103396 S    
C12   C20   1.411310 A    
C127  H78   1.112843 S    
C65   H1    1.080916 S    
C26   Cl2   1.768253 S    
C111  H37   1.103374 S    
C63   C129  1.516721 S    
C10   C103  1.534497 S    
C44   C47   1.399142 A    
C80   C86   1.446617 A    
C106  H19   1.110808 S    
C136  H95   1.110753 S    
C102  H10   1.108125 S    
C141  C142  1.535833 S    
O12   C5    1.308790 A    
C69   H5    1.080860 S    
C107  H28   1.102231 S    
C124  H65   1.109287 S    
C138  H101  1.107498 S    
C118  H51   1.107722 S    
C130  H80   1.109287 S    
C125  C126  1.530887 S    
C128  H75   1.109156 S    
C129  H82   1.104907 S    
C55   C72   1.399317 A    
C76   C82   1.446591 A    
C25   Cl1   1.768349 S    
C114  H39   1.110874 S    
C126  H70   1.109155 S    
C112  H36   1.110658 S    
C37   C61   1.426359 A    
C31   C39   1.407075 A    
C15   C23   1.411006 A    
C72   H8    1.078304 S    
C27   C35   1.407112 A    
C120  H56   1.107742 S    
C41   C49   1.408297 A    
C28   C36   1.407032 A    
C147  C148  1.532021 S    
C146  H119  1.108649 S    
C42   C45   1.402243 A    
C78   C88   1.446619 A    
C88   C100  1.434704 A    
C43   C51   1.409798 A    
C132  H84   1.110762 S    
C126  H71   1.107726 S    
C95   Cl11  1.771581 S    
O11   C6    1.295687 A    
C96   Cl12  1.772929 S    
C143  C144  1.532045 S    
C105  H22   1.104713 S    
C85   C91   1.406972 A    
C104  H14   1.109521 S    
C40   C64   1.424700 A    
C123  C124  1.531083 S    
C29   Cl5   1.768370 S    
C114  H40   1.105765 S    
C144  H115  1.110759 S    
C11   C19   1.410943 A    
C117  H53   1.112839 S    
C115  H47   1.104704 S    
C44   C52   1.409979 A    
C74   C84   1.446620 A    
Zn3   N3    2.048964 S    
C82   C90   1.417602 A    
C84   C96   1.434677 A    
C119  H58   1.112838 S    
C135  H98   1.100443 S    
C70   H6    1.080865 S    
C49   C66   1.397223 A    
C88   C92   1.417619 A    
C80   C147  1.507302 S    
