data_mof_unit_25735.cif
_audit_creation_date              2012-12-11T15:54:08-0500
_audit_creation_method            fapswitch 2.2
_symmetry_space_group_name_H-M    P1
_symmetry_Int_Tables_number       1
_space_group_crystal_system       triclinic
_cell_length_a                    10.648262
_cell_length_b                    10.73124
_cell_length_c                    16.980832
_cell_angle_alpha                 80.550814
_cell_angle_beta                  99.522406
_cell_angle_gamma                 119.101479
_cell_volume                      1664.15889653

loop_
_atom_site_label
_atom_site_type_symbol
_atom_type_description
_atom_site_fract_x
_atom_site_fract_y
_atom_site_fract_z
_atom_type_partial_charge
C1    C     C_R   0.385183 0.285033 0.631997 0.558610
C2    C     C_1   0.334214 0.187220 0.781697 -0.054561
C3    C     C_1   0.317762 0.682453 0.280330 -0.058780
C4    C     C_R   0.369170 0.654806 0.585978 0.540130
C5    C     C_1   0.296692 0.706604 0.209668 -0.057369
C6    C     C_R   0.863134 0.682340 0.166038 0.021200
C7    C     C_R   0.917706 0.608149 0.224111 0.025733
C8    C     C_R   0.908457 0.603525 0.303797 0.014069
C9    C     C_R   0.811303 0.769915 0.271360 -0.148720
C10   C     C_R   0.822916 0.775084 0.190406 -0.147219
C11   C     C_3   0.892406 0.457858 0.230223 -0.268794
C12   C     C_R   0.393101 0.830471 0.673903 -0.135994
C13   C     C_3   0.882484 0.451371 0.318811 -0.278053
C14   C     C_R   0.842347 0.673630 0.327795 0.010996
C15   C     C_R   0.339281 0.183680 0.155057 0.020656
C16   C     C_R   0.781558 0.621193 0.626070 0.544863
C17   C     C_R   0.265896 0.247007 0.178651 -0.006141
C18   C     C_R   0.269092 0.256370 0.257911 0.036461
C19   C     C_R   0.442947 0.169686 0.292559 -0.166951
C20   C     C_R   0.440677 0.159745 0.211434 -0.164448
C21   C     C_3   0.114903 0.228517 0.161305 -0.222548
C22   C     C_3   0.121040 0.242863 0.249739 0.016536
C23   C     C_R   0.376274 0.852475 0.749663 -0.151415
C24   C     C_R   0.345344 0.205120 0.316687 0.013714
C25   C     C_R   0.947964 0.725254 0.851786 0.539506
C26   C     C_R   0.281539 0.750876 0.882562 0.553772
C27   C     C_R   0.286871 0.118786 0.858479 0.537006
C28   C     C_R   0.353291 0.231165 0.397795 0.552530
C29   C     C_R   0.890594 0.692454 0.085064 0.553129
C30   C     C_R   0.284349 0.738781 0.125531 0.571573
C31   C     C_R   0.288562 0.111977 0.083263 0.549458
C32   C     C_R   0.361882 0.656999 0.361766 0.552085
C33   C     C_R   0.774201 0.624164 0.400852 0.552027
C34   C     C_3   0.127400 0.458231 0.792977 -0.245856
C35   C     C_R   0.279595 0.737422 0.798137 -0.002187
C36   C     C_R   0.180034 0.612355 0.762353 0.010235
C37   C     C_R   0.197174 0.590091 0.687799 0.012541
C38   C     C_3   0.916997 0.128694 0.331698 -0.304601
C39   C     C_3   0.146617 0.433982 0.711179 -0.251626
C40   C     C_R   0.314051 0.692725 0.646583 0.014019
C41   C     C_1   0.851536 0.669685 0.702527 -0.033469
C42   C     C_1   0.898671 0.704250 0.769296 -0.037144
C43   C     C_1   0.365657 0.234245 0.714447 -0.055059
Cr1   Cr    Cr6+3 0.608440 0.389080 0.519680 1.011870
Cr2   Cr    Cr6+3 0.288640 0.400090 0.490760 0.997995
Cr3   Cr    Cr6+3 0.602940 0.710800 0.489510 1.006553
Cr4   Cr    Cr6+3 0.052530 0.947560 0.964210 1.013865
Cr5   Cr    Cr6+3 0.059970 0.626800 0.992920 1.002424
Cr6   Cr    Cr6+3 0.373320 0.938440 0.995370 1.007828
H1    H     H_    0.478695 0.916696 0.641227 0.147334
H2    H     H_    0.202478 0.441153 0.841972 0.161297
H3    H     H_    0.233168 0.403918 0.713172 0.148952
H4    H     H_    0.042944 0.366057 0.676752 0.149249
H5    H     H_    0.762339 0.828539 0.287669 0.159077
H6    H     H_    0.793082 0.844687 0.147039 0.141563
H7    H     H_    0.988507 0.453492 0.216963 0.141088
H8    H     H_    0.110896 0.319936 0.121451 0.128872
H9    H     H_    0.124380 0.343015 0.262023 0.144252
H10   H     H_    0.053673 0.043885 0.322488 0.270990
H11   H     H_    0.842386 0.024020 0.361703 0.143996
H12   H     H_    0.788566 0.386185 0.197210 0.145848
H13   H     H_    0.851897 0.168429 0.287697 0.144071
H14   H     H_    0.977157 0.204614 0.378180 0.159034
H15   H     H_    0.773002 0.372428 0.336083 0.162818
H16   H     H_    0.973199 0.442174 0.357460 0.136528
H17   H     H_    0.515218 0.143437 0.336168 0.125940
H18   H     H_    0.505884 0.117881 0.194803 0.137629
H19   H     H_    0.032893 0.120859 0.143365 0.179307
H20   H     H_    0.447084 0.955237 0.772750 0.142427
H21   H     H_    0.012495 0.404789 0.805602 0.152009
N1    N     N_2   0.016210 0.112021 0.291030 -0.513939
O1    O     O_R   0.754020 0.497590 0.609930 -0.514272
O2    O     O_R   0.406180 0.826930 0.920660 -0.495853
O3    O     O_R   0.358620 0.062870 0.901950 -0.517162
O4    O     O_R   0.481420 0.271390 0.600630 -0.489104
O5    O     O_R   0.163910 0.085460 0.050210 -0.522605
O6    O     O_R   0.935200 0.815170 0.045770 -0.497571
O7    O     O_R   0.916120 0.596690 0.069430 -0.521042
O8    O     O_R   0.192310 0.631200 0.086170 -0.500218
O9    O     O_R   0.406770 0.819480 0.096420 -0.499773
O10   O     O_R   0.359170 0.055960 0.064880 -0.521796
O11   O     O_3   0.161940 0.837600 0.984160 -0.309679
O12   O     O_R   0.295080 0.533620 0.397890 -0.509619
O13   O     O_R   0.263810 0.254550 0.589590 -0.510798
O14   O     O_R   0.300820 0.531200 0.560890 -0.515791
O15   O     O_R   0.491480 0.744020 0.564270 -0.518757
O16   O     O_R   0.726290 0.693800 0.583010 -0.494279
O17   O     O_R   0.747830 0.500190 0.434090 -0.521019
O18   O     O_R   0.475680 0.273800 0.437630 -0.500507
O19   O     O_R   0.257620 0.257160 0.413750 -0.511835
O20   O     O_R   0.485280 0.746620 0.388440 -0.516030
O21   O     O_R   0.720550 0.696220 0.420010 -0.512129
O22   O     O_3   0.500010 0.499990 0.499980 -0.259351
O23   O     O_R   0.163320 0.092900 0.874450 -0.510617
O24   O     O_R   0.934650 0.822080 0.882840 -0.476259
O25   O     O_R   0.915520 0.604140 0.893670 -0.508754
O26   O     O_R   0.191760 0.638110 0.923230 -0.503969

loop_
_geom_bond_atom_site_label_1
_geom_bond_atom_site_label_2
_ccdc_geom_bond_type
C8    C13   S    
C41   C42   T    
C23   H20   S    
C20   H18   S    
C19   C20   A    
C16   O1    A    
Cr2   O22   S    
C14   C33   S    
C7    C8    A    
C13   H16   S    
C1    O13   A    
C7    C11   S    
Cr5   O26   S    
C13   H15   S    
C12   C23   A    
C34   H2    S    
C18   C24   A    
Cr5   O8    S    
C36   C37   A    
C33   O17   A    
Cr4   O5    S    
C38   H14   S    
C37   C40   A    
C32   O20   A    
Cr3   O21   S    
Cr6   O10   S    
C26   O2    A    
C19   H17   S    
Cr4   O11   S    
Cr5   O7    S    
Cr1   O22   S    
C1    C43   S    
C29   O7    A    
C4    C40   S    
C16   O16   A    
C2    C27   S    
C27   O3    A    
C9    C10   A    
C34   H21   S    
C30   O9    A    
C39   H3    S    
C21   C22   S    
Cr2   O12   S    
C15   C20   A    
C34   C39   S    
C1    O4    A    
C33   O21   A    
C4    O14   A    
C11   H12   S    
C17   C21   S    
C35   C36   A    
Cr6   O11   S    
C12   C40   A    
Cr1   O4    S    
Cr2   O14   S    
C9    C14   A    
C21   H8    S    
Cr2   O19   S    
C2    C43   T    
C17   C18   A    
C10   H6    S    
C28   O18   A    
C38   H11   S    
C30   O8    A    
C25   O24   A    
C23   C35   A    
C21   H19   S    
Cr6   O2    S    
Cr2   O13   S    
Cr4   O6    S    
C22   N1    S    
C4    O15   A    
Cr3   O16   S    
C15   C17   A    
C32   O12   A    
C38   N1    S    
C8    C14   A    
Cr5   O25   S    
C18   C22   S    
C24   C28   S    
C3    C5    T    
C25   C42   S    
C22   H9    S    
C12   H1    S    
C15   C31   S    
C6    C7    A    
Cr3   O20   S    
C31   O10   A    
Cr6   O9    S    
C19   C24   A    
C37   C39   S    
C11   C13   S    
C31   O5    A    
C39   H4    S    
Cr3   O22   S    
Cr4   O23   S    
Cr5   O11   S    
Cr1   O1    S    
C34   C36   S    
C3    C32   S    
C6    C10   A    
C11   H7    S    
C26   O26   A    
C26   C35   S    
C6    C29   S    
C29   O6    A    
C25   O25   A    
C5    C30   S    
Cr4   O24   S    
Cr6   O3    S    
C27   O23   A    
C28   O19   A    
C9    H5    S    
C38   H13   S    
Cr1   O17   S    
C16   C41   S    
Cr1   O18   S    
H10   N1    S    
Cr3   O15   S    
