data_mof_unit_34785.cif
_audit_creation_date              2012-10-26T20:01:46-0400
_audit_creation_method            fapswitch 2.2
_symmetry_space_group_name_H-M    P1
_symmetry_Int_Tables_number       1
_space_group_crystal_system       triclinic
_cell_length_a                    11.707379
_cell_length_b                    10.866521
_cell_length_c                    9.59287
_cell_angle_alpha                 90.248084
_cell_angle_beta                  89.827779
_cell_angle_gamma                 92.626371
_cell_volume                      1219.09217958

loop_
_atom_site_label
_atom_site_type_symbol
_atom_type_description
_atom_site_fract_x
_atom_site_fract_y
_atom_site_fract_z
_atom_type_partial_charge
C1    C     C_R   0.508758 0.263065 0.500428 0.548896
C2    C     C_R   0.488738 0.872187 0.506792 -0.008359
C3    C     C_R   0.650819 0.665276 0.144199 -0.084530
C4    C     C_R   0.284091 0.499516 0.500184 0.555137
C5    C     C_R   0.723829 0.746749 0.072077 -0.174052
C6    C     C_R   0.724074 0.746483 0.928482 -0.160424
C7    C     C_R   0.651139 0.664923 0.856148 -0.085071
C8    C     C_R   0.574072 0.581254 0.925281 0.117132
C9    C     C_R   0.573882 0.581401 0.074844 0.140588
C10   C     C_R   0.430573 0.421732 0.074449 -0.000476
C11   C     C_R   0.428979 0.422400 0.926132 0.232537
C12   C     C_R   0.558456 0.063307 0.883111 -0.141259
C13   C     C_R   0.493620 0.737533 0.501449 0.530799
C14   C     C_R   0.715908 0.500335 0.499858 0.531208
C15   C     C_1   0.162375 0.499630 0.500538 -0.034523
C16   C     C_1   0.059898 0.499828 0.500443 -0.050437
C17   C     C_1   0.940093 0.500114 0.500007 -0.045719
C18   C     C_1   0.837615 0.500287 0.499703 -0.028090
C19   C     C_R   0.572618 0.121563 0.754765 -0.097887
C20   C     C_3   0.233464 0.361502 0.871271 -0.292987
C21   C     C_R   0.501453 0.948699 0.890036 -0.128636
C22   C     C_R   0.469578 0.886957 0.767546 -0.097403
C23   C     C_R   0.495388 0.939179 0.635043 0.025248
C24   C     C_R   0.529865 0.064982 0.630794 0.026674
C25   C     C_R   0.518713 0.129214 0.503242 -0.010047
C26   C     C_R   0.501583 0.063225 0.378870 -0.162839
C27   C     C_R   0.491976 0.936020 0.380194 -0.164488
Cu1   Cu    Cu3+1 0.499990 0.499990 0.640660 0.938593
Cu2   Cu    Cu3+1 0.500010 0.500010 0.359340 0.921435
H1    H     H_    0.495672 0.109841 0.279711 0.132731
H2    H     H_    0.659214 0.671980 0.254033 0.185216
H3    H     H_    0.781153 0.810141 0.128349 0.120189
H4    H     H_    0.370107 0.248022 0.873785 0.235213
H5    H     H_    0.204997 0.339474 0.979276 0.108343
H6    H     H_    0.182433 0.302277 0.797697 0.146562
H7    H     H_    0.217115 0.459331 0.848599 0.170613
H8    H     H_    0.781310 0.809933 0.872362 0.124548
H9    H     H_    0.658853 0.672263 0.746306 0.187219
H10   H     H_    0.619169 0.209727 0.754144 0.147247
H11   H     H_    0.588544 0.108860 0.977568 0.110851
H12   H     H_    0.484149 0.906184 0.990239 0.115061
H13   H     H_    0.421302 0.800757 0.779807 0.150016
H14   H     H_    0.485182 0.887725 0.281304 0.135858
H15   H     H_    0.374440 0.357480 0.130797 0.118574
N1    N     N_R   0.501070 0.501210 0.147910 -0.260664
N2    N     N_R   0.501110 0.501290 0.852040 -0.228521
N3    N     N_2   0.353528 0.338651 0.853948 -0.455845
O1    O     O_R   0.499990 0.319640 0.618810 -0.481484
O2    O     O_R   0.500000 0.319660 0.381240 -0.506796
O3    O     O_R   0.337190 0.500000 0.618790 -0.468873
O4    O     O_R   0.337200 0.500030 0.381210 -0.492989
O5    O     O_R   0.500000 0.680340 0.618760 -0.538665
O6    O     O_R   0.500010 0.680360 0.381190 -0.523193
O7    O     O_R   0.662800 0.499970 0.618790 -0.521509
O8    O     O_R   0.662810 0.500000 0.381210 -0.510724

loop_
_geom_bond_atom_site_label_1
_geom_bond_atom_site_label_2
_ccdc_geom_bond_type
C12   H11   S    
C3    H2    S    
C23   C24   A    
C1    O1    A    
C9    N1    A    
C6    C7    A    
C3    C9    A    
C13   O5    A    
C14   C18   S    
C11   N3    S    
C4    O3    A    
C5    H3    S    
C20   H5    S    
C10   N1    A    
C19   C24   A    
C6    H8    S    
C7    C8    A    
Cu2   O2    S    
C21   C22   A    
C1    C25   S    
Cu1   O5    S    
Cu1   N2    S    
C26   C27   A    
C2    C27   A    
Cu2   O6    S    
C4    C15   S    
C21   H12   S    
C19   H10   S    
C12   C19   A    
Cu1   Cu2   S    
C14   O7    A    
C7    H9    S    
C14   O8    A    
C13   O6    A    
C5    C6    A    
H4    N3    S    
C8    N2    A    
C20   N3    S    
C16   C17   S    
C10   C11   A    
C4    O4    A    
C10   H15   S    
C15   C16   T    
C20   H7    S    
C27   H14   S    
C24   C25   A    
C17   C18   T    
Cu2   O4    S    
C22   H13   S    
C2    C23   A    
C2    C13   S    
Cu1   O7    S    
C22   C23   A    
Cu1   O1    S    
C11   N2    A    
Cu2   O8    S    
C25   C26   A    
C20   H6    S    
Cu1   O3    S    
C12   C21   A    
Cu2   N1    S    
C8    C9    A    
C3    C5    A    
C26   H1    S    
C1    O2    A    
