data_mof_unit_33068.cif
_audit_creation_date              2012-12-11T17:41:18-0500
_audit_creation_method            fapswitch 2.2
_symmetry_space_group_name_H-M    P1
_symmetry_Int_Tables_number       1
_space_group_crystal_system       triclinic
_cell_length_a                    15.489498
_cell_length_b                    14.992711
_cell_length_c                    15.063021
_cell_angle_alpha                 109.525315
_cell_angle_beta                  121.284945
_cell_angle_gamma                 59.005956
_cell_volume                      2551.93166433

loop_
_atom_site_label
_atom_site_type_symbol
_atom_type_description
_atom_site_fract_x
_atom_site_fract_y
_atom_site_fract_z
_atom_type_partial_charge
C1    C     C_R   0.766122 0.986087 0.790217 -0.125168
C2    C     C_R   0.193827 0.413877 0.087457 -0.192449
C3    C     C_R   0.705999 0.790841 0.988321 0.250618
C4    C     C_R   0.294838 0.336402 0.083494 0.246072
C5    C     C_R   0.705780 0.891462 0.019692 0.060771
C6    C     C_R   0.303566 0.233991 0.039701 0.064472
C7    C     C_R   0.805191 0.900518 0.056076 -0.248319
C8    C     C_R   0.208276 0.214706 0.992708 -0.231004
C9    C     C_R   0.901760 0.812523 0.055943 -0.135121
C10   C     C_R   0.108637 0.292735 0.996932 -0.115986
C11   C     C_R   0.901334 0.714086 0.022397 -0.126950
C12   C     C_R   0.200045 0.058210 0.224113 -0.118937
C13   C     C_R   0.101837 0.391799 0.045321 -0.131313
C14   C     C_R   0.605674 0.034891 0.113983 -0.240457
C15   C     C_R   0.410161 0.112634 0.938126 -0.246480
C16   C     C_R   0.201201 0.276131 0.443476 -0.116580
C17   C     C_R   0.767805 0.710863 0.517089 -0.120295
C18   C     C_R   0.505217 0.098812 0.122657 0.028708
C19   C     C_R   0.505179 0.028899 0.927887 0.059455
C20   C     C_R   0.408205 0.147843 0.034989 0.061931
C21   C     C_R   0.604445 0.988273 0.018164 0.058983
C22   C     C_2   0.023979 0.350234 0.465574 -0.204639
C23   C     C_R   0.138703 0.276026 0.483866 0.143565
C24   C     C_2   0.861499 0.604651 0.395564 -0.220046
C25   C     C_2   0.963463 0.418360 0.393976 -0.101612
C26   C     C_2   0.870767 0.513964 0.404337 -0.108170
C27   C     C_2   0.860206 0.108684 0.895893 -0.219485
C28   C     C_2   0.019063 0.042885 0.152049 -0.216738
C29   C     C_R   0.198972 0.766245 0.523538 -0.114011
C30   C     C_R   0.813641 0.128672 0.362106 -0.116747
C31   C     C_R   0.294419 0.688748 0.510438 -0.134069
C32   C     C_R   0.709581 0.210735 0.351667 -0.153455
C33   C     C_R   0.288424 0.647502 0.409746 0.112440
C34   C     C_R   0.798786 0.702071 0.441896 0.150028
C35   C     C_R   0.701993 0.297131 0.426912 0.118567
C36   C     C_R   0.184948 0.682677 0.322653 -0.180534
C37   C     C_R   0.800807 0.298896 0.513296 -0.174757
C38   C     C_R   0.089637 0.759880 0.336294 -0.126350
C39   C     C_R   0.904435 0.216435 0.523638 -0.120743
C40   C     C_R   0.592566 0.215058 0.485181 -0.145310
C41   C     C_R   0.403933 0.771353 0.450311 -0.126939
C42   C     C_R   0.096708 0.801916 0.436532 -0.110277
C43   C     C_R   0.910896 0.131575 0.447884 -0.083717
C44   C     C_R   0.392969 0.466150 0.363999 -0.263066
C45   C     C_R   0.500469 0.294505 0.424673 0.070527
C46   C     C_R   0.585051 0.487532 0.430141 -0.230240
C47   C     C_R   0.495860 0.378299 0.390920 0.041668
C48   C     C_R   0.488384 0.575355 0.431776 0.068105
C49   C     C_R   0.592410 0.387293 0.414336 0.027291
C50   C     C_R   0.389730 0.564545 0.396208 0.021784
C51   C     C_2   0.868135 0.101965 0.986331 -0.107798
C52   C     C_2   0.961172 0.112442 0.082251 -0.106337
C53   C     C_R   0.407342 0.024193 0.730022 -0.127096
C54   C     C_R   0.592184 0.020349 0.289622 -0.137177
C55   C     C_R   0.408302 0.285558 0.407294 -0.114746
C56   C     C_R   0.493623 0.675725 0.471398 0.049753
C57   C     C_R   0.588892 0.693457 0.536872 -0.136786
C58   C     C_R   0.593297 0.945728 0.802881 -0.146402
C59   C     C_R   0.408140 0.090461 0.212145 -0.132907
C60   C     C_R   0.199236 0.185655 0.533640 -0.146207
C61   C     C_R   0.761910 0.801966 0.420888 -0.148872
C62   C     C_R   0.761670 0.080901 0.698937 -0.148126
C63   C     C_R   0.195966 0.970370 0.314666 -0.166870
C64   C     C_R   0.797432 0.061393 0.798757 0.148784
C65   C     C_R   0.135271 0.021126 0.225030 0.153370
C66   C     C_3   0.604957 0.774121 0.956861 -0.415939
C67   C     C_R   0.501695 0.995830 0.824282 0.040899
C68   C     C_3   0.591186 0.780064 0.052244 -0.860391
C69   C     C_3   0.388416 0.366699 0.120616 -0.399604
C70   C     C_3   0.398315 0.377450 0.029407 -0.867255
C71   C     C_R   0.500503 0.076965 0.207042 0.051613
C72   C     C_R   0.804527 0.703077 0.989401 -0.185507
H1    H     H_    0.790714 0.946634 0.852918 0.099512
H2    H     H_    0.212438 0.137881 0.955588 0.129214
H3    H     H_    0.977369 0.820450 0.082494 0.117594
H4    H     H_    0.036674 0.276240 0.962849 0.108362
H5    H     H_    0.683031 0.002488 0.180915 0.120896
H6    H     H_    0.336148 0.150672 0.870936 0.131507
H7    H     H_    0.824381 0.511601 0.437607 0.126783
H8    H     H_    0.993404 0.414090 0.340950 0.124222
H9    H     H_    0.908520 0.606448 0.362590 0.135931
H10   H     H_    0.993133 0.356007 0.518632 0.132867
H11   H     H_    0.022829 0.861810 0.446765 0.101904
H12   H     H_    0.175249 0.111236 0.172725 0.085264
H13   H     H_    0.991250 0.068073 0.455627 0.095825
H14   H     H_    0.175475 0.328564 0.391002 0.085399
H15   H     H_    0.793539 0.648863 0.558365 0.084588
H16   H     H_    0.204248 0.798483 0.601171 0.109116
H17   H     H_    0.819341 0.062831 0.303596 0.099692
H18   H     H_    0.373129 0.661376 0.578477 0.112299
H19   H     H_    0.635491 0.206903 0.285018 0.110969
H20   H     H_    0.178490 0.651202 0.244565 0.107270
H21   H     H_    0.797691 0.363926 0.573040 0.107113
H22   H     H_    0.010154 0.787196 0.269330 0.128953
H23   H     H_    0.985251 0.992937 0.148002 0.125034
H24   H     H_    0.979826 0.218568 0.590261 0.100081
H25   H     H_    0.316035 0.460831 0.336788 0.133433
H26   H     H_    0.657480 0.496786 0.447835 0.120557
H27   H     H_    0.679118 0.191331 0.507366 0.114986
H28   H     H_    0.317644 0.789461 0.399190 0.122283
H29   H     H_    0.320638 0.059728 0.715059 0.088748
H30   H     H_    0.677833 0.006765 0.319742 0.091540
H31   H     H_    0.322935 0.323212 0.351785 0.086788
H32   H     H_    0.672436 0.635904 0.575336 0.086705
H33   H     H_    0.679233 0.905300 0.852002 0.117075
H34   H     H_    0.908598 0.140397 0.894245 0.126446
H35   H     H_    0.322066 0.138785 0.168126 0.111755
H36   H     H_    0.168466 0.155077 0.561301 0.088900
H37   H     H_    0.773922 0.823663 0.367847 0.103149
H38   H     H_    0.774514 0.133551 0.677420 0.102519
H39   H     H_    0.163108 0.946161 0.346120 0.104930
H40   H     H_    0.994008 0.162686 0.085212 0.123715
H41   H     H_    0.820127 0.070197 0.988315 0.130419
H42   H     H_    0.667457 0.721504 0.105936 0.254943
H43   H     H_    0.575198 0.859007 0.094693 0.266959
H44   H     H_    0.519269 0.763329 0.027015 0.250595
H45   H     H_    0.976596 0.645942 0.023017 0.115039
H46   H     H_    0.528231 0.831888 0.903069 0.195639
H47   H     H_    0.613549 0.695946 0.913449 0.188448
H48   H     H_    0.422359 0.301400 0.983012 0.264701
H49   H     H_    0.317823 0.434986 0.978012 0.255557
H50   H     H_    0.463552 0.405366 0.059777 0.253653
H51   H     H_    0.373409 0.443099 0.168407 0.204143
H52   H     H_    0.468207 0.308546 0.170827 0.191413
H53   H     H_    0.024481 0.452219 0.048539 0.111876
H54   H     H_    0.806954 0.625497 0.965729 0.111020
H55   H     H_    0.185332 0.492371 0.121266 0.107014
H56   H     H_    0.806911 0.976419 0.082752 0.125821
N1    N     N_R   0.705410 0.966550 0.689210 -0.045311
N2    N     N_R   0.556610 0.796750 0.548620 -0.038142
N3    N     N_R   0.556610 0.951620 0.703500 -0.039104
N4    N     N_R   0.443390 0.048380 0.296500 -0.039459
N5    N     N_R   0.294590 0.131500 0.522480 -0.040676
N6    N     N_R   0.705410 0.868500 0.477520 -0.043767
N7    N     N_R   0.705410 0.023370 0.632390 -0.043395
N8    N     N_R   0.294590 0.976630 0.367610 -0.041570
N9    N     N_R   0.294590 0.033450 0.310790 -0.044135
N10   N     N_R   0.294590 0.188320 0.465660 -0.045032
N11   N     N_R   0.705410 0.811680 0.534340 -0.044389
N12   N     N_R   0.556610 0.157790 0.497330 -0.039396
N13   N     N_R   0.443390 0.842210 0.502670 -0.042286
N14   N     N_R   0.443390 0.997080 0.657540 -0.037512
N15   N     N_R   0.556610 0.002920 0.342460 -0.036075
N16   N     N_R   0.443390 0.203250 0.451380 -0.040217
Ni1   Ni    Ni4+2 0.629830 0.882720 0.617850 0.216406
Ni2   Ni    Ni4+2 0.370170 0.117280 0.382150 0.207491
Ni3   Ni    Ni4+2 0.629830 0.013030 0.487540 0.211508
Ni4   Ni    Ni4+2 0.370170 0.986970 0.512460 0.212474

loop_
_geom_bond_atom_site_label_1
_geom_bond_atom_site_label_2
_ccdc_geom_bond_type
C66   C68   S    
C63   C65   A    
C29   C42   A    
C25   H8    S    
C14   C18   A    
C61   H37   S    
C40   H27   S    
C47   C49   A    
C15   C19   A    
N6    Ni3   S    
C46   C49   A    
C51   H41   S    
C28   H23   S    
C22   H10   S    
C14   C21   A    
C35   C37   A    
C24   C26   D    
C38   C42   A    
C1    N1    A    
C15   H6    S    
C52   H40   S    
C55   H31   S    
C33   C36   A    
C56   C57   A    
C12   H12   S    
C7    C9    A    
C53   N14   A    
C14   H5    S    
N2    N13   A    
C2    C13   A    
C70   H50   S    
C29   H16   S    
C62   C64   A    
N13   Ni4   S    
N1    N7    A    
C10   H4    S    
C54   C71   A    
C53   H29   S    
C22   C25   D    
C35   C49   S    
C31   C33   A    
C19   C67   S    
C7    H56   S    
N1    Ni1   S    
C60   H36   S    
C44   C47   A    
C13   H53   S    
C2    H55   S    
C36   H20   S    
N4    N15   A    
C48   C50   A    
C54   N15   A    
C46   H26   S    
N5    N10   A    
N2    Ni1   S    
C16   H14   S    
C23   C60   A    
C30   H17   S    
N12   Ni3   S    
C22   C23   S    
C4    C69   S    
C27   C51   D    
C61   N6    A    
C45   C47   S    
C40   C45   A    
C46   C48   A    
C59   N4    A    
C51   C52   S    
C43   H13   S    
C32   C35   A    
N14   Ni4   S    
N9    Ni2   S    
N16   Ni2   S    
C70   H48   S    
N6    N11   A    
C5    C7    A    
C11   C72   A    
C39   C43   A    
C69   H52   S    
C25   C26   S    
C34   C61   A    
C24   C34   S    
C72   H54   S    
C15   C20   A    
C62   N7    A    
N3    Ni1   S    
C2    C4    A    
C24   H9    S    
C41   C56   A    
C41   N13   A    
C44   H25   S    
C57   N2    A    
C62   H38   S    
C58   N3    A    
C31   H18   S    
C38   H22   S    
C8    H2    S    
C41   H28   S    
C37   H21   S    
C17   N11   A    
N5    Ni4   S    
C9    C11   A    
N8    Ni4   S    
N3    N14   A    
C68   H44   S    
C4    C6    A    
N15   Ni3   S    
C16   C23   A    
N7    Ni3   S    
C66   H47   S    
C30   C43   A    
C3    C66   S    
C17   C34   A    
C11   H45   S    
C1    C64   A    
C44   C50   A    
C18   C71   S    
C48   C56   S    
C57   H32   S    
N11   Ni1   S    
C55   N16   A    
C19   C21   A    
C17   H15   S    
C54   H30   S    
C8    C10   A    
C16   N10   A    
C42   H11   S    
N12   N16   A    
N8    N9    A    
C3    C5    A    
C10   C13   A    
C6    C8    A    
C6    C20   S    
C12   C65   A    
C26   H7    S    
C27   H34   S    
C58   H33   S    
C1    H1    S    
C63   N8    A    
C36   C38   A    
C28   C65   S    
C33   C50   S    
N4    Ni2   S    
C29   C31   A    
C30   C32   A    
C28   C52   D    
C70   H49   S    
N10   Ni2   S    
C40   N12   A    
C3    C72   A    
C18   C20   A    
C63   H39   S    
C69   C70   S    
C53   C67   A    
C59   H35   S    
C39   H24   S    
C27   C64   S    
C68   H43   S    
C32   H19   S    
C58   C67   A    
C5    C21   S    
C45   C55   A    
C37   C39   A    
C66   H46   S    
C68   H42   S    
C69   H51   S    
C12   N9    A    
C9    H3    S    
C60   N5    A    
C59   C71   A    
