data_mof_unit_27941.cif
_audit_creation_date              2012-12-11T15:50:39-0500
_audit_creation_method            fapswitch 2.2
_symmetry_space_group_name_H-M    P1
_symmetry_Int_Tables_number       1
_space_group_crystal_system       triclinic
_cell_length_a                    19.044593
_cell_length_b                    11.031164
_cell_length_c                    18.734013
_cell_angle_alpha                 90.056907
_cell_angle_beta                  90.000907
_cell_angle_gamma                 90.595283
_cell_volume                      3935.50256404

loop_
_atom_site_label
_atom_site_type_symbol
_atom_type_description
_atom_site_fract_x
_atom_site_fract_y
_atom_site_fract_z
_atom_type_partial_charge
C1    C     C_R   0.288652 0.999045 0.861135 0.535119
C2    C     C_R   0.776734 0.519545 0.937469 -0.003982
C3    C     C_R   0.227086 0.543211 0.354796 0.551089
C4    C     C_R   0.466282 0.823404 0.644806 0.573995
C5    C     C_R   0.528517 0.822779 0.351940 0.543583
C6    C     C_R   0.969436 0.324132 0.646869 0.562858
C7    C     C_R   0.029884 0.322567 0.352850 0.540948
C8    C     C_R   0.260304 0.636555 0.644273 0.564599
C9    C     C_R   0.740692 0.634980 0.355075 0.546593
C10   C     C_R   0.762073 0.143618 0.641238 0.610065
C11   C     C_R   0.241027 0.134820 0.354845 0.546369
C12   C     C_3   0.473178 0.931347 0.033879 -0.138087
C13   C     C_R   0.741615 0.060170 0.070553 0.039948
C14   C     C_3   0.520010 0.911300 0.967468 -0.118827
C15   C     C_3   0.973222 0.431356 0.033860 -0.138058
C16   C     C_3   0.020054 0.411321 0.967448 -0.118963
C17   C     C_3   0.417390 0.841308 0.004501 -0.170604
C18   C     C_3   0.556578 0.804820 0.005392 -0.134831
C19   C     C_3   0.917437 0.341317 0.004477 -0.170527
C20   C     C_3   0.056625 0.304839 0.005369 -0.134944
C21   C     C_3   0.464774 0.821919 0.938344 0.039084
C22   C     C_3   0.508624 0.825157 0.070100 0.044755
C23   C     C_3   0.964821 0.321934 0.938325 0.039126
C24   C     C_R   0.276738 0.019548 0.937466 -0.003851
C25   C     C_3   0.008669 0.325162 0.070078 0.044811
C26   C     C_R   0.520854 0.604795 0.932409 0.029933
C27   C     C_R   0.471749 0.509537 0.923502 -0.091497
C28   C     C_R   0.479625 0.425243 0.868314 -0.112492
C29   C     C_R   0.533889 0.439169 0.818707 -0.095528
C30   C     C_R   0.581094 0.536419 0.824766 -0.071222
C31   C     C_R   0.575953 0.617287 0.882158 -0.065630
C32   C     C_R   0.423117 0.648417 0.096822 0.045389
C33   C     C_R   0.447074 0.528583 0.102762 -0.092217
C34   C     C_R   0.436343 0.462513 0.165518 -0.093688
C35   C     C_R   0.226116 0.468259 0.021116 0.007648
C36   C     C_R   0.403342 0.516131 0.223879 -0.032679
C37   C     C_R   0.377684 0.633859 0.218331 -0.077281
C38   C     C_R   0.386706 0.699101 0.154997 -0.094230
C39   C     C_R   0.020924 0.104839 0.932362 0.030267
C40   C     C_R   0.971835 0.009560 0.923435 -0.091639
C41   C     C_R   0.979711 0.925327 0.868214 -0.112346
C42   C     C_R   0.033962 0.939328 0.818597 -0.094799
C43   C     C_R   0.081156 0.036587 0.824682 -0.072185
C44   C     C_R   0.076015 0.117396 0.882103 -0.066247
C45   C     C_R   0.923135 0.148446 0.096779 0.045707
C46   C     C_R   0.719415 0.473855 0.977077 0.007708
C47   C     C_R   0.947053 0.028591 0.102720 -0.091685
C48   C     C_R   0.936276 0.962525 0.165468 -0.094299
C49   C     C_R   0.903274 0.016174 0.223819 -0.033834
C50   C     C_R   0.877657 0.133929 0.218266 -0.077515
C51   C     C_R   0.886720 0.199161 0.154939 -0.093961
C52   C     C_R   0.726110 0.968263 0.021118 0.007502
C53   C     C_R   0.219417 0.973866 0.977068 0.007560
C54   C     C_R   0.230237 0.488160 0.947717 -0.014852
C55   C     C_R   0.711925 0.498328 0.047945 0.003906
C56   C     C_R   0.730238 0.988163 0.947720 -0.014192
C57   C     C_R   0.726875 0.038512 0.145272 0.539847
C58   C     C_R   0.211917 0.998346 0.047933 0.004000
C59   C     C_R   0.268585 0.691683 0.972366 -0.149574
C60   C     C_R   0.822462 0.600539 0.050089 -0.179209
C61   C     C_R   0.768598 0.191680 0.972369 -0.150035
C62   C     C_R   0.322460 0.100543 0.050087 -0.179197
C63   C     C_R   0.258903 0.675065 0.045410 -0.167628
C64   C     C_R   0.829475 0.581254 0.976626 -0.174598
C65   C     C_R   0.758912 0.175063 0.045412 -0.167543
C66   C     C_R   0.329477 0.081258 0.976625 -0.174571
C67   C     C_3   0.261594 0.349848 0.014169 -0.254051
C68   C     C_R   0.788651 0.499045 0.861136 0.534849
C69   C     C_3   0.652119 0.400459 0.977928 -0.269780
C70   C     C_3   0.761576 0.849842 0.014178 -0.254476
C71   C     C_3   0.152117 0.900493 0.977895 -0.269724
C72   C     C_3   0.264327 0.369531 0.934489 -0.274884
C73   C     C_3   0.643518 0.435893 0.056488 -0.278958
C74   C     C_3   0.764325 0.869527 0.934499 -0.274027
C75   C     C_3   0.143497 0.935940 0.056453 -0.279062
C76   C     C_R   0.253243 0.600248 0.923491 0.033316
C77   C     C_R   0.759846 0.567816 0.085910 0.004253
C78   C     C_R   0.753249 0.100249 0.923494 0.032854
C79   C     C_R   0.226874 0.538510 0.145271 0.540953
C80   C     C_R   0.259840 0.067824 0.085905 0.004477
C81   C     C_R   0.492358 0.827702 0.420019 0.004804
C82   C     C_R   0.479947 0.829814 0.568874 0.046115
C83   C     C_R   0.009795 0.326065 0.426981 0.000760
C84   C     C_R   0.997834 0.336720 0.575809 0.054096
C85   C     C_R   0.440770 0.816946 0.863084 0.536868
C86   C     C_R   0.535518 0.820430 0.142327 0.551535
C87   C     C_R   0.940787 0.316951 0.863083 0.535564
C88   C     C_R   0.035564 0.320425 0.142304 0.551879
C89   C     C_R   0.482243 0.719685 0.458154 -0.000113
C90   C     C_3   0.501735 0.714693 0.975943 0.007345
C91   C     C_R   0.476856 0.721571 0.530858 0.002873
C92   C     C_R   0.037154 0.235412 0.470597 0.032154
C93   C     C_R   0.032783 0.240811 0.543618 0.015564
C94   C     C_R   0.475890 0.939170 0.530392 -0.094580
C95   C     C_R   0.481925 0.938119 0.455738 -0.148934
C96   C     C_R   0.974900 0.433758 0.532803 -0.086448
C97   C     C_R   0.980983 0.428546 0.458595 -0.186129
C98   C     C_3   0.524429 0.605388 0.460700 -0.237160
C99   C     C_3   0.517873 0.608627 0.540974 -0.266188
C100  C     C_3   0.022086 0.102501 0.468895 -0.236810
C101  C     C_3   0.454049 0.734135 0.041479 -0.004797
C102  C     C_3   0.021113 0.106629 0.549385 -0.260171
C103  C     C_R   0.238029 0.566954 0.428770 0.041047
C104  C     C_R   0.762162 0.561441 0.569642 0.055027
C105  C     C_R   0.750678 0.104320 0.418142 -0.012482
C106  C     C_R   0.264582 0.057738 0.568466 0.046989
C107  C     C_R   0.178298 0.569638 0.472048 -0.005627
C108  C     C_R   0.818500 0.608969 0.531747 -0.024937
C109  C     C_R   0.702131 0.174408 0.455635 0.006999
C110  C     C_R   0.321321 0.104887 0.530694 -0.017872
C111  C     C_R   0.184196 0.578637 0.544579 0.025598
C112  C     C_3   0.001786 0.214708 0.975915 0.007430
C113  C     C_R   0.816393 0.617327 0.459323 0.009186
C114  C     C_R   0.706521 0.182744 0.528132 -0.020604
C115  C     C_R   0.318588 0.115224 0.458219 0.015367
C116  C     C_R   0.310003 0.557219 0.533835 -0.082033
C117  C     C_R   0.705631 0.508371 0.457749 -0.166265
C118  C     C_R   0.814871 0.072524 0.527529 -0.113312
C119  C     C_R   0.208397 0.005684 0.456427 -0.133825
C120  C     C_R   0.303932 0.551627 0.460040 -0.172933
C121  C     C_R   0.707850 0.501621 0.532079 -0.165848
C122  C     C_R   0.811437 0.065138 0.453245 -0.173402
C123  C     C_3   0.954097 0.234142 0.041449 -0.004882
C124  C     C_R   0.210591 0.998025 0.530652 -0.153548
C125  C     C_3   0.116821 0.652497 0.469381 0.285167
C126  C     C_3   0.856430 0.726258 0.542153 0.258838
C127  C     C_3   0.623196 0.166735 0.459330 0.299262
C128  C     C_3   0.359612 0.221870 0.541392 0.259131
C129  C     C_3   0.123845 0.664483 0.549361 0.269224
C130  C     C_3   0.853666 0.738585 0.462097 0.271492
C131  C     C_3   0.629027 0.178449 0.539208 0.264858
C132  C     C_3   0.356108 0.236144 0.461428 0.276723
C133  C     C_R   0.259325 0.632402 0.849387 0.537210
C134  C     C_R   0.241616 0.560168 0.070551 0.039816
C135  C     C_R   0.741551 0.630582 0.151572 0.536294
C136  C     C_R   0.759326 0.132405 0.849389 0.541125
C137  C     C_R   0.241548 0.130586 0.151569 0.537269
C138  C     C_R   0.250398 0.581027 0.575998 0.041817
C139  C     C_R   0.756458 0.577997 0.421984 -0.009055
C140  C     C_R   0.758679 0.122452 0.565644 0.078088
C141  C     C_R   0.258257 0.076765 0.421055 -0.010535
C142  C     C_R   0.273976 0.039867 0.643606 0.587763
C143  C     C_R   0.728801 0.048056 0.352502 0.533434
C144  C     C_R   0.773229 0.541280 0.644258 0.584684
Cr1   Cr    Cr6+3 0.229640 0.835880 0.747370 1.002715
Cr2   Cr    Cr6+3 0.614230 0.677220 0.250660 1.028668
Cr3   Cr    Cr6+3 0.885770 0.177220 0.749340 1.026816
Cr4   Cr    Cr6+3 0.114230 0.177220 0.250660 1.028410
Cr5   Cr    Cr6+3 0.770360 0.835880 0.252630 1.013057
Cr6   Cr    Cr6+3 0.729640 0.335880 0.747370 0.998236
Cr7   Cr    Cr6+3 0.270360 0.335880 0.252630 1.013734
Cr8   Cr    Cr6+3 0.387390 0.989720 0.750850 1.031109
Cr9   Cr    Cr6+3 0.612610 0.989720 0.249150 1.054477
Cr10  Cr    Cr6+3 0.887390 0.489720 0.750850 1.043481
Cr11  Cr    Cr6+3 0.112610 0.489720 0.249150 1.050818
Cr12  Cr    Cr6+3 0.385770 0.677220 0.749340 1.029013
F1    F     F_    0.132223 0.759022 0.433904 -0.669633
F2    F     F_    0.815208 0.810396 0.576942 -0.655103
F3    F     F_    0.591836 0.266234 0.428297 -0.638872
F4    F     F_    0.319014 0.305350 0.577392 -0.660137
F5    F     F_    0.068002 0.614354 0.586305 -0.663229
F6    F     F_    0.919600 0.734081 0.431189 -0.660741
F7    F     F_    0.607893 0.074138 0.574577 -0.654742
F8    F     F_    0.421701 0.231917 0.429825 -0.639705
H1    H     H_    0.361950 0.862301 0.011721 0.115526
H2    H     H_    0.969708 0.079240 0.571611 0.163036
H3    H     H_    0.579291 0.619985 0.442840 0.175408
H4    H     H_    0.485741 0.532600 0.562708 0.156003
H5    H     H_    0.496432 0.527113 0.435829 0.186255
H6    H     H_    0.568670 0.625280 0.568776 0.153041
H7    H     H_    0.970055 0.081016 0.445039 0.143073
H8    H     H_    0.066456 0.060999 0.574479 0.141814
H9    H     H_    0.361921 0.554237 0.556949 0.166450
H10   H     H_    0.661240 0.469850 0.429431 0.197095
H11   H     H_    0.858717 0.033075 0.555064 0.174141
H12   H     H_    0.613426 0.788412 0.008482 0.101655
H13   H     H_    0.164992 0.966891 0.427317 0.209351
H14   H     H_    0.350388 0.538522 0.427641 0.127236
H15   H     H_    0.666426 0.453468 0.559954 0.131720
H16   H     H_    0.851848 0.016905 0.424659 0.134833
H17   H     H_    0.169187 0.950231 0.558347 0.132716
H18   H     H_    0.067932 0.608505 0.450774 0.187390
H19   H     H_    0.910068 0.716880 0.564679 0.179384
H20   H     H_    0.601106 0.078339 0.441799 0.172033
H21   H     H_    0.413426 0.211969 0.563274 0.154560
H22   H     H_    0.137489 0.757389 0.566887 0.159542
H23   H     H_    0.861994 0.362300 0.011685 0.115481
H24   H     H_    0.821270 0.815462 0.443924 0.174093
H25   H     H_    0.607039 0.263208 0.561612 0.144200
H26   H     H_    0.323908 0.313736 0.443998 0.172435
H27   H     H_    0.463765 0.019725 0.060194 0.119447
H28   H     H_    0.546891 0.983628 0.936282 0.134241
H29   H     H_    0.963800 0.519731 0.060176 0.119099
H30   H     H_    0.046932 0.483650 0.936260 0.134223
H31   H     H_    0.284172 0.778007 0.951516 0.105250
H32   H     H_    0.863469 0.651934 0.076834 0.134494
H33   H     H_    0.784188 0.278005 0.951522 0.105162
H34   H     H_    0.113472 0.288432 0.008458 0.101691
H35   H     H_    0.363467 0.151937 0.076835 0.134750
H36   H     H_    0.266045 0.750448 0.081697 0.113156
H37   H     H_    0.876988 0.614024 0.950997 0.144542
H38   H     H_    0.766054 0.250446 0.081700 0.112793
H39   H     H_    0.376991 0.114027 0.950997 0.144573
H40   H     H_    0.726089 0.774893 0.029661 0.143174
H41   H     H_    0.157312 0.802052 0.970397 0.158238
H42   H     H_    0.226115 0.274892 0.029659 0.143093
H43   H     H_    0.657319 0.302022 0.970422 0.158214
H44   H     H_    0.314269 0.350626 0.039821 0.154315
H45   H     H_    0.471021 0.024805 0.557880 0.172575
H46   H     H_    0.610253 0.433892 0.944851 0.163124
H47   H     H_    0.814247 0.850606 0.039838 0.154442
H48   H     H_    0.110278 0.933940 0.944787 0.163176
H49   H     H_    0.318625 0.378668 0.913317 0.142418
H50   H     H_    0.600784 0.501419 0.066306 0.155977
H51   H     H_    0.818629 0.878657 0.913338 0.142628
H52   H     H_    0.100768 0.001485 0.066252 0.155819
H53   H     H_    0.229711 0.306139 0.904193 0.147874
H54   H     H_    0.646110 0.358084 0.093969 0.147904
H55   H     H_    0.729712 0.806139 0.904197 0.148724
H56   H     H_    0.484514 0.023089 0.427108 0.204336
H57   H     H_    0.146064 0.858133 0.093937 0.147887
H58   H     H_    0.424659 0.505234 0.955702 0.104982
H59   H     H_    0.441705 0.352265 0.862005 0.109401
H60   H     H_    0.538418 0.376184 0.774653 0.109858
H61   H     H_    0.620953 0.550297 0.784421 0.146437
H62   H     H_    0.611573 0.694293 0.884330 0.108388
H63   H     H_    0.479135 0.488608 0.062016 0.087438
H64   H     H_    0.456389 0.371367 0.169953 0.100898
H65   H     H_    0.397218 0.466106 0.273183 0.133890
H66   H     H_    0.351902 0.675365 0.263529 0.104550
H67   H     H_    0.947884 0.509689 0.556049 0.176387
H68   H     H_    0.370388 0.792831 0.153367 0.094214
H69   H     H_    0.924748 0.005210 0.955638 0.104899
H70   H     H_    0.941797 0.852344 0.861886 0.110716
H71   H     H_    0.038488 0.876395 0.774516 0.118876
H72   H     H_    0.121003 0.050527 0.784330 0.146337
H73   H     H_    0.111620 0.194419 0.884288 0.107613
H74   H     H_    0.979115 0.988592 0.061982 0.087310
H75   H     H_    0.956286 0.871356 0.169906 0.098508
H76   H     H_    0.897110 0.966148 0.273117 0.130526
H77   H     H_    0.851877 0.175470 0.263452 0.100265
H78   H     H_    0.961973 0.502363 0.426111 0.181440
H79   H     H_    0.870429 0.292906 0.153304 0.093230
H80   H     H_    0.065580 0.049856 0.446599 0.171399
O1    O     O_R   0.214300 0.709080 0.827500 -0.518591
O2    O     O_R   0.543340 0.717710 0.330180 -0.521351
O3    O     O_R   0.956660 0.217710 0.669820 -0.531572
O4    O     O_R   0.043340 0.217710 0.330180 -0.517199
O5    O     O_R   0.320590 0.625770 0.672930 -0.497790
O6    O     O_R   0.679410 0.625770 0.327070 -0.507387
O7    O     O_R   0.820590 0.125770 0.672930 -0.503624
O8    O     O_R   0.179410 0.125770 0.327070 -0.504318
O9    O     O_3   0.334270 0.834280 0.749190 -0.302576
O10   O     O_3   0.665730 0.834280 0.250810 -0.263110
O11   O     O_3   0.834270 0.334280 0.749190 -0.306891
O12   O     O_R   0.785700 0.709080 0.172500 -0.530944
O13   O     O_3   0.165730 0.334280 0.250810 -0.266317
O14   O     O_R   0.236190 0.958390 0.823150 -0.509091
O15   O     O_R   0.763810 0.958390 0.176850 -0.503602
O16   O     O_R   0.736190 0.458390 0.823150 -0.509944
O17   O     O_R   0.263810 0.458390 0.176850 -0.503218
O18   O     O_R   0.332090 0.075280 0.831290 -0.522597
O19   O     O_R   0.667910 0.075280 0.168710 -0.518518
O20   O     O_R   0.832090 0.575280 0.831290 -0.521300
O21   O     O_R   0.167910 0.575280 0.168710 -0.519192
O22   O     O_R   0.446280 0.918040 0.826620 -0.511712
O23   O     O_R   0.714300 0.209080 0.827500 -0.519657
O24   O     O_R   0.553720 0.918040 0.173380 -0.507448
O25   O     O_R   0.946280 0.418040 0.826620 -0.511512
O26   O     O_R   0.053720 0.418040 0.173380 -0.508605
O27   O     O_R   0.457080 0.716270 0.831760 -0.492028
O28   O     O_R   0.542920 0.716270 0.168240 -0.514680
O29   O     O_R   0.957080 0.216270 0.831760 -0.492553
O30   O     O_R   0.042920 0.216270 0.168240 -0.514837
O31   O     O_R   0.320980 0.624440 0.823040 -0.512444
O32   O     O_R   0.679020 0.624440 0.176960 -0.502234
O33   O     O_R   0.820980 0.124440 0.823040 -0.510677
O34   O     O_R   0.285700 0.209080 0.172500 -0.530089
O35   O     O_R   0.179020 0.124440 0.176960 -0.502337
O36   O     O_R   0.213880 0.710510 0.665560 -0.518462
O37   O     O_R   0.786120 0.710510 0.334440 -0.502374
O38   O     O_R   0.713880 0.210510 0.665560 -0.500181
O39   O     O_R   0.286120 0.210510 0.334440 -0.503444
O40   O     O_R   0.235800 0.959720 0.673040 -0.528835
O41   O     O_R   0.764200 0.959720 0.326960 -0.526179
O42   O     O_R   0.735800 0.459720 0.673040 -0.533379
O43   O     O_R   0.264200 0.459720 0.326960 -0.536776
O44   O     O_R   0.331670 0.076720 0.669350 -0.489363
O45   O     O_R   0.445900 0.919370 0.676500 -0.495579
O46   O     O_R   0.668330 0.076720 0.330650 -0.493189
O47   O     O_R   0.831670 0.576720 0.669350 -0.488908
O48   O     O_R   0.168330 0.576720 0.330650 -0.466493
O49   O     O_R   0.554100 0.919370 0.323500 -0.497799
O50   O     O_R   0.945900 0.419370 0.676500 -0.482350
O51   O     O_R   0.054100 0.419370 0.323500 -0.498495
O52   O     O_R   0.456660 0.717710 0.669820 -0.520005

loop_
_geom_bond_atom_site_label_1
_geom_bond_atom_site_label_2
_ccdc_geom_bond_type
C115  C141  A    
C82   C94   A    
C86   O24   A    
Cr5   O12   S    
C23   C112  S    
C136  O23   A    
C14   C21   S    
Cr2   O32   S    
C43   H72   S    
C81   C95   A    
C80   C137  S    
C8    C138  S    
C114  C131  S    
C4    O45   A    
C142  O40   A    
C98   H5    S    
C109  C127  S    
C46   C55   A    
C70   C74   S    
C72   H49   S    
Cr2   O10   S    
C117  C139  A    
C10   C140  S    
C118  C140  A    
C35   C134  A    
Cr3   O33   S    
C106  C142  S    
Cr10  O11   S    
C45   C47   A    
C144  O47   A    
C70   H40   S    
C8    O5    A    
Cr4   O8    S    
C128  H21   S    
C61   H33   S    
C60   C77   A    
C68   O16   A    
C128  F4    S    
Cr12  O5    S    
Cr8   O22   S    
C25   C88   S    
C17   C21   S    
C82   C91   A    
C108  C113  A    
C19   C23   S    
C43   C44   A    
C37   C38   A    
C47   H74   S    
Cr9   O46   S    
C16   C20   S    
Cr3   O7    S    
C20   H34   S    
Cr11  O21   S    
C119  C141  A    
Cr4   O30   S    
C73   H50   S    
C53   C71   S    
C132  H26   S    
C48   H75   S    
C1    O14   A    
C3    C103  S    
Cr10  O50   S    
C125  H18   S    
C40   H69   S    
C33   H63   S    
Cr7   O43   S    
C53   C58   A    
Cr8   O44   S    
C26   C90   S    
C59   C63   A    
Cr4   O35   S    
Cr1   O1    S    
C60   C64   A    
C58   C80   A    
C10   O38   A    
C30   C31   A    
Cr3   O11   S    
C84   C93   A    
C127  C131  S    
C61   C65   A    
C71   H41   S    
C98   C99   S    
C106  C124  A    
Cr5   O37   S    
C103  C107  A    
C119  H13   S    
C108  C126  S    
C110  C128  S    
C18   H12   S    
C29   H60   S    
C7    C83   S    
C5    O2    A    
Cr12  O27   S    
C45   C123  S    
C19   C123  S    
C116  H9    S    
C62   C80   A    
C36   C37   A    
C62   H35   S    
C2    C68   S    
C15   C25   S    
C13   C57   S    
C12   C22   S    
Cr10  O47   S    
C56   C78   A    
C67   C72   S    
C118  C122  A    
C97   H78   S    
C113  C139  A    
C114  C140  A    
C135  O12   A    
C89   C91   A    
C100  H80   S    
C14   H28   S    
C130  F6    S    
C102  H2    S    
C127  H20   S    
C126  H19   S    
C3    O48   A    
C115  C132  S    
C113  C130  S    
C62   C66   A    
C144  O42   A    
Cr9   O24   S    
C107  C125  S    
C39   C40   A    
C57   O15   A    
C116  C120  A    
C34   H64   S    
C29   C30   A    
C125  C129  S    
C11   C141  S    
C42   H71   S    
C35   C67   S    
C129  F5    S    
C25   C123  S    
Cr3   O29   S    
C109  C114  A    
C16   C23   S    
C68   O20   A    
Cr11  O26   S    
Cr12  O9    S    
Cr7   O13   S    
Cr8   O18   S    
C79   C134  S    
C105  C109  A    
C137  O35   A    
C18   C22   S    
C107  C111  A    
C85   O22   A    
C51   H79   S    
C39   C44   A    
C117  C121  A    
C11   O8    A    
C89   C98   S    
C9    O6    A    
Cr6   O11   S    
C105  C122  A    
C34   C36   A    
Cr9   O19   S    
C16   H30   S    
C1    O18   A    
C55   C73   S    
C1    C24   S    
C49   C50   A    
C31   H62   S    
C32   C101  S    
C69   H46   S    
C87   O29   A    
C91   C99   S    
C59   C76   A    
C67   H44   S    
C133  O1    A    
C64   H37   S    
C133  O31   A    
Cr11  O48   S    
C41   C42   A    
C103  C120  A    
C11   O39   A    
Cr4   O13   S    
C50   H77   S    
C121  H15   S    
C99   H6    S    
C3    O43   A    
C92   C100  S    
C26   C27   A    
C22   C101  S    
C28   C29   A    
Cr7   O34   S    
Cr8   O9    S    
Cr11  O13   S    
C125  F1    S    
C20   C25   S    
C126  C130  S    
C63   H36   S    
C96   H67   S    
C120  H14   S    
Cr5   O15   S    
C19   H23   S    
C20   C112  S    
C111  C129  S    
C65   H38   S    
C36   H65   S    
C12   C17   S    
C69   C73   S    
C24   C66   A    
C21   C90   S    
C81   C89   A    
C131  H25   S    
C129  H22   S    
C35   C54   A    
C102  H8    S    
Cr1   O9    S    
C21   C85   S    
C69   H43   S    
C6    C84   S    
C18   C90   S    
C63   C134  A    
C6    O3    A    
C56   C74   S    
C112  C123  S    
C38   H68   S    
C24   C53   A    
Cr11  O51   S    
C132  F8    S    
C72   H53   S    
C5    O49   A    
C13   C52   A    
C5    C81   S    
C143  O46   A    
C131  F7    S    
C95   H56   S    
C4    C82   S    
C122  H16   S    
C67   H42   S    
C88   O26   A    
C48   C49   A    
C143  O41   A    
C79   O17   A    
C76   C133  S    
C42   C43   A    
C104  C108  A    
C99   H4    S    
C12   H27   S    
C57   O19   A    
Cr1   O14   S    
C93   C102  S    
C74   H51   S    
Cr2   O2    S    
C59   H31   S    
C32   C33   A    
C85   O27   A    
C86   O28   A    
C124  H17   S    
C17   H1    S    
C9    C139  S    
C92   C93   A    
C22   C86   S    
C94   C95   A    
Cr7   O17   S    
C15   H29   S    
C71   H48   S    
C83   C97   A    
C110  C115  A    
C111  C138  A    
C142  O44   A    
C117  H10   S    
Cr9   O10   S    
C14   C18   S    
Cr8   O45   S    
C44   H73   S    
C13   C65   A    
C119  C124  A    
C2    C46   A    
C83   C92   A    
Cr2   O6    S    
C135  O32   A    
C84   C96   A    
C55   C77   A    
C130  H24   S    
C41   H70   S    
C45   C51   A    
C15   C16   S    
C75   H52   S    
Cr4   O4    S    
C10   O7    A    
Cr6   O38   S    
C88   O30   A    
C46   C69   S    
C17   C101  S    
Cr6   O16   S    
C15   C19   S    
Cr12  O31   S    
C74   H55   S    
C73   H54   S    
C104  C144  S    
C32   C38   A    
Cr10  O25   S    
C98   H3    S    
Cr3   O3    S    
C26   C31   A    
C23   C87   S    
C100  H7    S    
C70   H47   S    
C30   H61   S    
C49   H76   S    
C128  C132  S    
C8    O36   A    
C2    C64   A    
C58   C75   S    
C50   C51   A    
C116  C138  A    
C126  F2    S    
C37   H66   S    
C137  O34   A    
Cr12  O52   S    
Cr10  O20   S    
C7    O51   A    
C104  C121  A    
Cr9   O49   S    
Cr5   O10   S    
C7    O4    A    
C90   C101  S    
Cr7   O39   S    
C47   C48   A    
C61   C78   A    
C96   C97   A    
C100  C102  S    
C33   C34   A    
C9    O37   A    
C54   C76   A    
C66   H39   S    
C40   C41   A    
C12   C14   S    
C118  H11   S    
Cr1   O36   S    
C127  F3    S    
C60   H32   S    
C106  C110  A    
C39   C112  S    
C27   H58   S    
Cr5   O41   S    
C4    O52   A    
C105  C143  S    
C6    O50   A    
Cr6   O42   S    
Cr2   O28   S    
C136  O33   A    
C87   O25   A    
C71   C75   S    
C28   H59   S    
C79   O21   A    
C52   C70   S    
C54   C72   S    
C75   H57   S    
C94   H45   S    
C27   C28   A    
C77   C135  S    
Cr1   O40   S    
C78   C136  S    
Cr6   O23   S    
C52   C56   A    
