data_mof_unit_45872.cif
_audit_creation_date              2013-03-05T15:54:26-0500
_audit_creation_method            fapswitch 2.2
_symmetry_space_group_name_H-M    P1
_symmetry_Int_Tables_number       1
_space_group_crystal_system       triclinic
_cell_length_a                    15.723643
_cell_length_b                    10.710756
_cell_length_c                    9.993089
_cell_angle_alpha                 88.951651
_cell_angle_beta                  91.430043
_cell_angle_gamma                 93.742711
_cell_volume                      1678.61039108

loop_
_atom_site_label
_atom_site_type_symbol
_atom_site_description
_atom_site_fract_x
_atom_site_fract_y
_atom_site_fract_z
_atom_type_partial_charge
O1    O     O_R   0.500000 0.316780 0.614690 -0.672310
O2    O     O_R   0.499990 0.316750 0.385360 -0.548576
C1    C     C_R   0.508683 0.261191 0.501686 0.925588
O3    O     O_R   0.376780 0.500000 0.614650 -0.626198
O4    O     O_R   0.376770 0.499980 0.385310 -0.559625
C2    C     C_R   0.338352 0.500794 0.498674 0.910976
Zn1   Zn    Zn3+2 0.500010 0.500020 0.653130 0.980579
Zn2   Zn    Zn3+2 0.499990 0.499980 0.346870 1.078227
O5    O     O_R   0.500010 0.683250 0.614640 -0.608518
O6    O     O_R   0.500000 0.683220 0.385310 -0.603945
O7    O     O_R   0.623230 0.500020 0.614690 -0.653247
O8    O     O_R   0.623220 0.500000 0.385350 -0.559453
C3    C     C_R   0.492482 0.738839 0.499175 0.891165
C4    C     C_R   0.661735 0.500588 0.501444 0.885412
C5    C     C_3   0.968820 0.393249 0.547296 -0.315138
C6    C     C_3   0.022816 0.416723 0.421497 0.456975
H1    H     H_    0.941987 0.300744 0.583757 0.210060
C7    C     C_1   0.249687 0.503184 0.496113 -0.056401
C8    C     C_1   0.750601 0.501565 0.504235 -0.052772
C9    C     C_3   0.031519 0.485747 0.626082 -0.207268
C10   C     C_3   0.084057 0.507280 0.498330 0.026781
C11   C     C_3   0.978837 0.595257 0.578645 0.328526
C12   C     C_3   0.916766 0.504915 0.502002 -0.100467
C13   C     C_3   0.033007 0.619519 0.452902 -0.318639
C14   C     C_3   0.970982 0.526208 0.377352 0.220254
C15   C     C_1   0.174600 0.505306 0.496140 0.124371
C16   C     C_1   0.825890 0.502931 0.504221 0.139339
H2    H     H_    0.059705 0.711676 0.415232 0.215539
H3    H     H_    0.057992 0.471603 0.728874 0.215327
C17   C     C_R   0.538686 0.106013 0.751940 -0.161923
H4    H     H_    0.578118 0.192200 0.760631 0.193107
C18   C     C_R   0.518897 0.039270 0.869209 -0.306892
H5    H     H_    0.540886 0.077822 0.963938 0.159860
C19   C     C_R   0.465230 0.929428 0.863917 0.561233
C20   C     C_R   0.440677 0.879835 0.739213 0.505461
C21   C     C_R   0.476147 0.935713 0.620570 -0.114128
C22   C     C_R   0.511149 0.058652 0.626228 0.007511
C23   C     C_R   0.519395 0.127685 0.504798 -0.116700
C24   C     C_R   0.522399 0.065493 0.382533 0.439087
H6    H     H_    0.509294 0.888932 0.288574 0.208106
C25   C     C_R   0.504614 0.937577 0.381350 -0.254403
C26   C     C_R   0.483832 0.872101 0.499012 -0.157520
C27   C     C_R   0.400605 0.305222 0.131161 0.267655
C28   C     C_R   0.375116 0.198080 0.055838 0.250838
C29   C     C_R   0.366723 0.211079 0.916863 0.392622
C30   C     C_R   0.401530 0.318407 0.855284 -0.170201
H7    H     H_    0.389049 0.326944 0.750561 0.249718
C31   C     C_R   0.451792 0.408811 0.926192 -0.035536
C32   C     C_R   0.451371 0.406440 0.070097 -0.063557
N1    N     N_R   0.499210 0.498800 0.142780 -0.188936
C33   C     C_R   0.547620 0.586697 0.071933 0.351091
C34   C     C_R   0.547947 0.586598 0.929708 0.460059
N2    N     N_R   0.499180 0.498720 0.857170 -0.166964
O9    O     O_3   0.048739 0.324265 0.337341 -0.656275
H8    H     H_    0.995305 0.280373 0.303347 0.354917
O10   O     O_3   0.434397 0.870066 0.978126 -0.683998
H9    H     H_    0.455272 0.918930 0.056895 0.338238
O11   O     O_3   0.378862 0.782076 0.736563 -0.680936
H10   H     H_    0.353404 0.777000 0.644897 0.318897
N3    N     N_R   0.603558 0.675911 0.140783 0.246984
O12   O     O_R   0.595368 0.794413 0.117914 -0.381382
O13   O     O_R   0.677157 0.641463 0.184187 -0.293526
N4    N     N_R   0.340280 0.330565 0.229274 0.252139
O14   O     O_R   0.278937 0.401037 0.193341 -0.324542
O15   O     O_R   0.329069 0.255618 0.332303 -0.386462
O16   O     O_3   0.341391 0.089901 0.116652 -0.711304
H11   H     H_    0.368942 0.082364 0.206352 0.372630
O17   O     O_3   0.323755 0.122343 0.837184 -0.725526
H12   H     H_    0.300068 0.052110 0.893479 0.412867
O18   O     O_3   0.600791 0.676174 0.867828 -0.693405
H13   H     H_    0.607678 0.651610 0.774898 0.384561
N5    N     N_R   0.939915 0.545552 0.240415 0.236849
O19   O     O_R   0.993911 0.561826 0.144215 -0.287070
O20   O     O_R   0.858649 0.545995 0.213237 -0.309055
N6    N     N_R   0.955765 0.693937 0.666738 0.245126
O21   O     O_R   0.015309 0.763704 0.726658 -0.307499
O22   O     O_R   0.876220 0.712949 0.686257 -0.330174
O23   O     O_3   0.546286 0.130278 0.267051 -0.758269
H14   H     H_    0.549287 0.070760 0.192976 0.330066

loop_
_geom_bond_atom_site_label_1
_geom_bond_atom_site_label_2
_geom_bond_distance
_ccdc_geom_bond_type
C10   C15   1.425922 S    
N4    O15   1.302238 A    
C19   O10   1.379369 S    
C6    C10   1.525100 S    
C25   C26   1.392907 A    
C21   C26   1.415197 A    
C20   C21   1.427720 A    
C7    C15   1.182359 T    
N6    O21   1.300222 A    
C27   N4    1.422838 S    
C24   C25   1.380520 A    
C29   C30   1.381485 A    
C28   C29   1.397042 A    
Zn1   O7    1.984562 S    
C20   O11   1.381524 S    
C21   C22   1.395180 A    
O4    C2    1.297517 A    
O7    C4    1.296435 A    
C5    C6    1.542140 S    
O10   H9    0.990451 S    
N3    O13   1.299351 A    
C19   C20   1.399140 A    
O5    C3    1.295047 A    
C30   H7    1.063317 S    
C28   O16   1.379545 S    
C1    C23   1.450388 S    
O17   H12   0.989672 S    
O18   H13   0.980326 S    
C12   C16   1.428384 S    
C8    C16   1.182972 T    
C5    C12   1.547508 S    
O16   H11   0.990063 S    
C5    C9    1.560646 S    
C11   N6    1.457302 S    
O3    Zn1   1.965966 S    
C3    C26   1.442579 S    
C9    H3    1.110214 S    
C31   N2    1.366001 A    
C2    C7    1.395623 S    
C30   C31   1.400549 A    
C33   C34   1.421428 A    
C24   O23   1.382984 S    
C23   C24   1.405538 A    
C13   C14   1.543903 S    
N5    O20   1.299997 A    
O23   H14   0.989706 S    
C27   C32   1.439440 A    
O11   H10   0.991445 S    
C17   C22   1.410841 A    
N3    O12   1.299635 A    
O1    C1    1.300493 A    
C18   C19   1.403362 A    
C27   C28   1.414433 A    
C22   C23   1.413688 A    
Zn2   O8    1.965966 S    
C29   O17   1.382312 S    
N1    C33   1.369632 A    
C14   N5    1.457252 S    
N6    O22   1.300287 A    
O3    C2    1.293717 A    
C31   C32   1.437989 A    
O8    C4    1.295144 A    
C11   C13   1.544191 S    
Zn1   N2    2.039145 S    
Zn2   N1    2.039485 S    
C34   N2    1.379257 A    
C6    C14   1.523781 S    
C5    H1    1.110105 S    
O9    H8    0.991139 S    
H6    C25   1.078200 S    
O1    Zn1   2.006752 S    
C4    C8    1.396239 S    
O2    Zn2   1.992951 S    
C13   H2    1.110142 S    
C9    C11   1.540642 S    
N5    O19   1.300257 A    
O6    C3    1.305489 A    
O4    Zn2   1.984561 S    
C18   H5    1.079587 S    
O2    C1    1.304414 A    
C17   C18   1.392716 A    
C17   H4    1.081504 S    
C12   C14   1.532173 S    
C6    O9    1.397984 S    
C34   O18   1.375918 S    
N4    O14   1.302630 A    
Zn1   O5    1.992950 S    
C9    C10   1.543497 S    
Zn2   O6    2.006751 S    
C32   N1    1.404927 A    
C10   C13   1.543831 S    
C11   C12   1.530352 S    
C33   N3    1.429756 S    
