data_mof_unit_34865.cif
_audit_creation_date              2012-10-26T19:17:55-0400
_audit_creation_method            fapswitch 2.2
_symmetry_space_group_name_H-M    P1
_symmetry_Int_Tables_number       1
_space_group_crystal_system       triclinic
_cell_length_a                    10.832816
_cell_length_b                    12.499016
_cell_length_c                    13.346569
_cell_angle_alpha                 117.869165
_cell_angle_beta                  74.790646
_cell_angle_gamma                 100.817959
_cell_volume                      1537.08022541

loop_
_atom_site_label
_atom_site_type_symbol
_atom_type_description
_atom_site_fract_x
_atom_site_fract_y
_atom_site_fract_z
_atom_type_partial_charge
Br1   Br    Br    0.118710 0.263251 0.093012 -0.518452
Br2   Br    Br    0.828732 0.515251 0.225076 -0.565404
C1    C     C_R   0.515794 0.854892 0.286785 0.524347
C2    C     C_R   0.290863 0.234550 0.280421 0.143749
C3    C     C_R   0.377865 0.153692 0.188790 0.179277
C4    C     C_R   0.737298 0.999117 0.499050 0.539597
C5    C     C_R   0.368793 0.031929 0.170703 0.137561
C6    C     C_R   0.278725 0.992995 0.245540 -0.031628
C7    C     C_R   0.194179 0.073095 0.337278 0.022763
C8    C     C_R   0.280481 0.301295 0.009293 0.174093
C9    C     C_R   0.444656 0.229945 0.835120 -0.046290
C10   C     C_R   0.647135 0.797337 0.091477 -0.112390
C11   C     C_R   0.691050 0.709590 0.980986 -0.133396
C12   C     C_R   0.632925 0.821108 0.784482 -0.122686
C13   C     C_R   0.631830 0.592492 0.942311 -0.113603
C14   C     C_R   0.522181 0.561563 0.012200 0.045089
C15   C     C_R   0.471546 0.654616 0.121350 0.023899
C16   C     C_R   0.478975 0.145142 0.713212 0.533855
C17   C     C_R   0.460783 0.441824 0.977084 0.003935
C18   C     C_R   0.344099 0.419146 0.046545 0.062035
C19   C     C_R   0.291881 0.515063 0.149761 -0.087978
C20   C     C_R   0.354164 0.630442 0.186350 -0.131738
C21   C     C_R   0.510827 0.344089 0.873554 -0.139705
C22   C     C_R   0.331166 0.207930 0.903787 -0.126500
C23   C     C_R   0.037981 0.959025 0.564438 -0.155995
C24   C     C_R   0.539589 0.770406 0.163307 0.013716
C25   C     C_R   0.717109 0.335675 0.328935 -0.098319
C26   C     C_R   0.333850 0.769088 0.655868 0.043357
C27   C     C_R   0.315796 0.688874 0.703668 -0.173626
C28   C     C_R   0.264103 0.998403 0.496704 0.531555
C29   C     C_R   0.388649 0.589132 0.650566 -0.106682
C30   C     C_R   0.475801 0.561876 0.543510 -0.014869
C31   C     C_R   0.503041 0.653174 0.503207 0.183728
C32   C     C_R   0.542051 0.451197 0.480260 0.006408
C33   C     C_R   0.648390 0.440464 0.388569 0.028012
C34   C     C_R   0.131748 0.996246 0.491180 -0.028263
C35   C     C_R   0.683270 0.531832 0.353985 0.121267
C36   C     C_R   0.612799 0.634763 0.406995 0.125890
C37   C     C_R   0.502403 0.346010 0.498722 0.247261
C38   C     C_R   0.678230 0.239934 0.355636 0.027695
C39   C     C_R   0.638801 0.942176 0.805665 -0.119374
C40   C     C_R   0.730838 0.985984 0.736160 -0.064945
C41   C     C_R   0.816709 0.908186 0.642562 0.027196
C42   C     C_R   0.812829 0.785571 0.622196 0.155420
C43   C     C_R   0.720417 0.742446 0.693472 0.159357
C44   C     C_R   0.097494 0.031854 0.416534 0.014628
C45   C     C_R   0.967926 0.029410 0.417252 0.077545
C46   C     C_R   0.872649 0.995699 0.495208 -0.002160
C47   C     C_R   0.909173 0.955367 0.565898 -0.054757
C48   C     C_R   0.197773 0.192198 0.351838 -0.083722
Cu1   Cu    Cu3+1 0.529370 0.098270 0.475420 0.927385
Cu2   Cu    Cu3+1 0.470630 0.901730 0.524580 0.950340
H1    H     H_    0.560564 0.788410 0.839046 0.123610
H2    H     H_    0.307497 0.701487 0.265481 0.138344
H3    H     H_    0.729133 0.158455 0.308733 0.127844
H4    H     H_    0.800175 0.324251 0.260266 0.201578
H5    H     H_    0.280100 0.848885 0.699393 0.123845
H6    H     H_    0.380308 0.539355 0.699830 0.156689
H7    H     H_    0.248466 0.706406 0.784606 0.114222
H8    H     H_    0.733406 0.080105 0.753600 0.117996
H9    H     H_    0.065329 0.934392 0.623129 0.131976
H10   H     H_    0.130418 0.253391 0.421902 0.118849
H11   H     H_    0.481706 0.285814 0.141796 0.268005
H12   H     H_    0.273488 0.899624 0.231289 0.117456
H13   H     H_    0.447717 0.152762 0.033098 0.228281
H14   H     H_    0.422884 0.933568 0.999405 0.220673
H15   H     H_    0.543959 0.980686 0.073219 0.255285
H16   H     H_    0.316440 0.278399 0.518374 0.256047
H17   H     H_    0.386022 0.316229 0.633444 0.270767
H18   H     H_    0.757841 0.744485 0.365691 0.243550
H19   H     H_    0.658204 0.674280 0.271002 0.255458
H20   H     H_    0.900838 0.707868 0.452752 0.258977
H21   H     H_    0.992097 0.728593 0.546746 0.222025
H22   H     H_    0.634718 0.596763 0.723726 0.212500
H23   H     H_    0.278051 0.119934 0.872440 0.144504
H24   H     H_    0.796048 0.607964 0.695156 0.232426
H25   H     H_    0.869698 0.987779 0.290245 0.238002
H26   H     H_    0.899957 0.140524 0.374757 0.252906
H27   H     H_    0.218526 0.402181 0.363935 0.242734
H28   H     H_    0.378648 0.403460 0.330337 0.220018
H29   H     H_    0.202217 0.502246 0.203670 0.196128
H30   H     H_    0.599409 0.354108 0.817735 0.125955
H31   H     H_    0.700638 0.885146 0.122643 0.123738
H32   H     H_    0.673825 0.529241 0.856650 0.100897
H33   H     H_    0.774602 0.731244 0.926237 0.122822
H34   H     H_    0.571408 0.002484 0.875502 0.119890
N1    N     N_R   0.573890 0.246290 0.438210 -0.225760
N2    N     N_3   0.295482 0.358130 0.299280 -0.605719
N3    N     N_R   0.426890 0.754320 0.561170 -0.219132
N4    N     N_3   0.475209 0.192014 0.112960 -0.627054
N5    N     N_3   0.448426 0.945182 0.074306 -0.639420
N6    N     N_3   0.379728 0.338650 0.569354 -0.653680
N7    N     N_3   0.661683 0.717788 0.359067 -0.517057
N8    N     N_3   0.899986 0.702772 0.528781 -0.586904
N9    N     N_3   0.715806 0.618002 0.671523 -0.595260
N10   N     N_3   0.936201 0.055189 0.333070 -0.612882
O1    O     O_R   0.536940 0.972510 0.318130 -0.500849
O2    O     O_R   0.487330 0.806530 0.359650 -0.477830
O3    O     O_R   0.705160 0.082990 0.479250 -0.512644
O4    O     O_R   0.655550 0.917010 0.520760 -0.466253
O5    O     O_R   0.512670 0.193470 0.640350 -0.506586
O6    O     O_R   0.463060 0.027490 0.681870 -0.507712
O7    O     O_R   0.344450 0.082990 0.479240 -0.511626
O8    O     O_R   0.294840 0.917010 0.520750 -0.516106

loop_
_geom_bond_atom_site_label_1
_geom_bond_atom_site_label_2
_ccdc_geom_bond_type
Cu1   O1    S    
C9    C16   S    
C21   H30   S    
C39   C40   A    
C17   C18   A    
C1    O2    A    
C37   N1    A    
C28   O8    A    
C5    C6    A    
C20   H2    S    
C26   H5    S    
C39   H34   S    
Cu2   O6    S    
C4    C46   S    
C15   C24   A    
C38   N1    A    
C26   C27   A    
C33   C35   A    
H24   N9    S    
Cu1   O7    S    
C13   C14   A    
C9    C22   A    
C36   N7    S    
C32   C33   A    
C16   O6    A    
C9    C21   A    
C29   C30   A    
H26   N10   S    
C6    C7    A    
C28   O7    A    
C45   N10   S    
C34   C44   A    
C26   N3    A    
H17   N6    S    
C3    N4    S    
H20   N8    S    
C7    C44   S    
C19   C20   A    
Cu2   N3    S    
H21   N8    S    
H27   N2    S    
C12   C43   A    
Cu1   O3    S    
H13   N4    S    
Br1   C8    S    
Cu1   Cu2   S    
C27   H7    S    
H18   N7    S    
Cu1   N1    S    
C3    C5    A    
C25   H4    S    
C41   C47   S    
C11   H33   S    
C25   C33   A    
Cu2   O4    S    
C32   C37   A    
C10   H31   S    
C2    C48   A    
C16   O5    A    
C30   C32   A    
C17   C21   A    
C41   C42   A    
C35   C36   A    
C31   N3    A    
C1    O1    A    
C45   C46   A    
C25   C38   A    
C38   H3    S    
C5    N5    S    
H15   N5    S    
C23   H9    S    
C10   C11   A    
H14   N5    S    
C6    H12   S    
C12   C39   A    
C2    N2    S    
C46   C47   A    
C19   H29   S    
C11   C13   A    
C48   H10   S    
C40   C41   A    
C40   H8    S    
C43   N9    S    
C37   N6    S    
C42   C43   A    
C29   H6    S    
C44   C45   A    
Cu2   O8    S    
H22   N9    S    
C1    C24   S    
C7    C48   A    
C15   C20   A    
C2    C3    A    
C22   H23   S    
C13   H32   S    
H19   N7    S    
Cu1   O5    S    
H25   N10   S    
C31   C36   A    
C28   C34   S    
C8    C22   A    
C4    O3    A    
C27   C29   A    
C30   C31   A    
Br2   C35   S    
C14   C15   A    
C8    C18   A    
C14   C17   A    
H11   N4    S    
Cu2   O2    S    
H16   N6    S    
C23   C47   A    
C42   N8    S    
C23   C34   A    
C12   H1    S    
C18   C19   A    
H28   N2    S    
C10   C24   A    
C4    O4    A    
