data_mof_unit_37482.cif
_audit_creation_date              2012-12-10T17:19:02-0500
_audit_creation_method            fapswitch 2.2
_symmetry_space_group_name_H-M    P1
_symmetry_Int_Tables_number       1
_space_group_crystal_system       triclinic
_cell_length_a                    10.251031
_cell_length_b                    10.805196
_cell_length_c                    13.615368
_cell_angle_alpha                 92.615752
_cell_angle_beta                  100.597918
_cell_angle_gamma                 96.128004
_cell_volume                      1470.61187736

loop_
_atom_site_label
_atom_site_type_symbol
_atom_type_description
_atom_site_fract_x
_atom_site_fract_y
_atom_site_fract_z
_atom_type_partial_charge
C1    C     C_R   0.051839 0.731981 0.490832 0.946316
C2    C     C_2   0.996470 0.062887 0.466394 -0.155129
C3    C     C_2   0.431284 0.511938 0.509353 -0.070658
C4    C     C_2   0.569455 0.479233 0.501781 -0.072898
C5    C     C_R   0.093079 0.510726 0.685791 0.877954
C6    C     C_R   0.905556 0.484847 0.314199 0.869132
C7    C     C_R   0.138706 0.502583 0.793057 -0.060497
C8    C     C_R   0.848509 0.457599 0.208114 -0.063852
C9    C     C_R   0.114607 0.532577 0.965465 -0.207166
C10   C     C_R   0.846211 0.354274 0.046372 -0.200239
C11   C     C_R   0.063737 0.537731 0.863707 -0.196797
C12   C     C_R   0.945519 0.267450 0.503375 0.942095
C13   C     C_R   0.914385 0.395563 0.142684 -0.220138
C14   C     C_R   0.260082 0.455909 0.824176 -0.217219
C15   C     C_R   0.716528 0.479513 0.176358 -0.200723
C16   C     C_R   0.312772 0.449029 0.925386 0.085275
C17   C     C_R   0.642828 0.428348 0.084717 0.088758
C18   C     C_R   0.240265 0.491959 0.996827 0.170890
C19   C     C_R   0.710585 0.370069 0.016989 0.161135
C20   C     C_R   0.441253 0.411424 0.956861 0.065515
C21   C     C_R   0.504584 0.438422 0.057821 0.067933
C22   C     C_2   0.581161 0.356535 0.454655 0.982308
C23   C     C_R   0.427630 0.474126 0.128551 -0.211116
C24   C     C_2   0.421288 0.622490 0.573788 0.990475
C25   C     C_R   0.509800 0.350752 0.890730 -0.197038
C26   C     C_R   0.296346 0.497984 0.098304 -0.243030
C27   C     C_R   0.641892 0.328691 0.921222 -0.219289
C28   C     C_2   0.076999 0.863122 0.476355 -0.358211
C29   C     C_2   0.910385 0.134085 0.496030 -0.354132
C30   C     C_2   0.974214 0.930449 0.469119 -0.156324
H1    H     H_    0.241034 0.527218 0.154202 0.155472
H2    H     H_    0.462384 0.315978 0.815713 0.157046
H3    H     H_    0.089570 0.102258 0.446480 0.196547
H4    H     H_    0.873543 0.889299 0.472234 0.197209
H5    H     H_    0.817565 0.094239 0.515949 0.179798
H6    H     H_    0.177403 0.904795 0.473305 0.175638
H7    H     H_    0.667050 0.639385 0.571120 0.174400
H8    H     H_    0.332008 0.370583 0.415115 0.165382
H9    H     H_    0.599898 0.256393 0.330508 0.334410
H10   H     H_    0.404419 0.806574 0.583416 0.332535
H11   H     H_    0.691305 0.281947 0.868834 0.158202
H12   H     H_    0.671895 0.536680 0.224992 0.172214
H13   H     H_    0.316135 0.431342 0.768131 0.188223
H14   H     H_    0.016852 0.377163 0.166338 0.163265
H15   H     H_    0.968074 0.572025 0.840556 0.170155
H16   H     H_    0.058060 0.564442 0.019575 0.155302
H17   H     H_    0.898496 0.308046 0.995699 0.151714
H18   H     H_    0.465960 0.482190 0.208158 0.186550
N1    N     N_2   0.322180 0.446120 0.460900 -0.233281
N2    N     N_2   0.677820 0.553880 0.539100 -0.227968
O1    O     O_R   0.935190 0.693030 0.507870 -0.621473
O2    O     O_R   0.593731 0.345451 0.354383 -0.823714
O3    O     O_2   0.436145 0.615809 0.664449 -0.649086
O4    O     O_R   0.406521 0.736783 0.531568 -0.806488
O5    O     O_R   0.064810 0.306970 0.492130 -0.619326
O6    O     O_R   0.142080 0.658430 0.482770 -0.576129
O7    O     O_R   0.857920 0.341570 0.517230 -0.585578
O8    O     O_R   0.969700 0.527180 0.651960 -0.614742
O9    O     O_R   0.030300 0.472820 0.348040 -0.624072
O10   O     O_R   0.176600 0.492580 0.626860 -0.594685
O11   O     O_R   0.823400 0.507420 0.373140 -0.581224
O12   O     O_2   0.574140 0.264051 0.502737 -0.646327
Zn1   Zn    Zn3+2 0.861850 0.523100 0.516760 0.976399
Zn2   Zn    Zn3+2 0.138150 0.476900 0.483240 0.970298

loop_
_geom_bond_atom_site_label_1
_geom_bond_atom_site_label_2
_ccdc_geom_bond_type
C1    C28   S    
O6    Zn2   S    
C8    C13   A    
N2    Zn1   S    
C12   C29   S    
C25   C27   A    
C4    C22   S    
C27   H11   S    
C18   C26   A    
C16   C20   A    
C10   C19   A    
O10   Zn2   S    
O5    Zn2   S    
C25   H2    S    
C28   C30   D    
H9    O2    S    
C3    N1    D    
O1    Zn1   S    
C9    H16   S    
N1    Zn2   S    
C23   H18   S    
C7    C11   A    
H7    N2    S    
C9    C11   A    
C3    C24   S    
C5    O8    A    
C2    C29   D    
C12   O7    A    
C6    O11   A    
C22   O2    S    
C17   C19   A    
C1    O6    A    
O7    Zn1   S    
C8    C15   A    
H10   O4    S    
C21   C23   A    
C14   C16   A    
C11   H15   S    
C12   O5    A    
C22   O12   D    
C20   C25   A    
C30   H4    S    
C24   O4    S    
C3    C4    S    
O9    Zn2   S    
C9    C18   A    
C10   H17   S    
C19   C27   A    
C20   C21   A    
C28   H6    S    
C16   C18   A    
C23   C26   A    
C4    N2    D    
O8    Zn1   S    
C15   C17   A    
C29   H5    S    
C5    C7    S    
C2    C30   S    
C6    C8    S    
C1    O1    A    
C5    O10   A    
H8    N1    S    
C24   O3    D    
C26   H1    S    
C6    O9    A    
C13   H14   S    
C7    C14   A    
C15   H12   S    
C2    H3    S    
C14   H13   S    
O11   Zn1   S    
C10   C13   A    
C17   C21   A    
