data_mof_unit_22489.cif
_audit_creation_date              2012-12-10T16:53:10-0500
_audit_creation_method            fapswitch 2.2
_symmetry_space_group_name_H-M    P1
_symmetry_Int_Tables_number       1
_space_group_crystal_system       triclinic
_cell_length_a                    10.78596
_cell_length_b                    10.934225
_cell_length_c                    9.696932
_cell_angle_alpha                 89.952096
_cell_angle_beta                  90.083895
_cell_angle_gamma                 90.295445
_cell_volume                      1143.60165028

loop_
_atom_site_label
_atom_site_type_symbol
_atom_type_description
_atom_site_fract_x
_atom_site_fract_y
_atom_site_fract_z
_atom_type_partial_charge
C1    C     C_R   0.494300 0.265325 0.500185 0.709177
C2    C     C_R   0.065094 0.396289 0.576448 0.099555
C3    C     C_R   0.128793 0.487191 0.499863 -0.094682
C4    C     C_R   0.064199 0.572011 0.420213 -0.183466
C5    C     C_R   0.936303 0.572091 0.420382 -0.200173
C6    C     C_R   0.871034 0.487209 0.500006 -0.097196
C7    C     C_2   0.502957 0.933545 0.388005 -0.135647
C8    C     C_2   0.518048 0.865950 0.501772 -0.249319
C9    C     C_2   0.513552 0.066995 0.392685 -0.172494
C10   C     C_2   0.475392 0.133065 0.501384 0.267481
C11   C     C_2   0.434219 0.423994 0.921892 -0.179033
C12   C     C_R   0.262584 0.495840 0.499998 0.799640
C13   C     C_2   0.427697 0.428367 0.078859 0.503447
C14   C     C_R   0.504259 0.734492 0.500000 0.824206
C15   C     C_R   0.737359 0.495822 0.500057 0.780708
C16   C     C_R   0.128447 0.303244 0.648922 -0.168122
C17   C     C_R   0.063318 0.213294 0.720993 -0.129776
C18   C     C_R   0.934391 0.212900 0.720501 -0.133501
C19   C     C_R   0.869833 0.302580 0.648126 -0.177606
C20   C     C_R   0.933943 0.396121 0.576285 0.094669
Cu1   Cu    Cu3+1 0.500020 0.500020 0.638630 0.945769
Cu2   Cu    Cu3+1 0.499980 0.499980 0.361370 0.988950
H1    H     H_    0.113214 0.640494 0.360160 0.153984
H2    H     H_    0.545803 0.568737 0.894181 0.189363
H3    H     H_    0.228291 0.297357 0.648631 0.134731
H4    H     H_    0.113154 0.142638 0.775888 0.141978
H5    H     H_    0.884126 0.141878 0.774977 0.138037
H6    H     H_    0.887834 0.640654 0.360460 0.149597
H7    H     H_    0.486798 0.890821 0.288455 0.159485
H8    H     H_    0.552917 0.111719 0.302591 0.132053
N1    N     N_2   0.498640 0.498660 0.846910 -0.287694
N2    N     N_2   0.498610 0.498630 0.153040 -0.282375
O1    O     O_R   0.500020 0.321960 0.617040 -0.599131
O2    O     O_R   0.499980 0.321920 0.382900 -0.539365
O3    O     O_R   0.319670 0.500020 0.617100 -0.579012
O4    O     O_R   0.319630 0.499980 0.382950 -0.519469
O5    O     O_R   0.500020 0.678080 0.617100 -0.570112
O6    O     O_R   0.499980 0.678040 0.382960 -0.584458
O7    O     O_R   0.680370 0.500020 0.617050 -0.575968
O8    O     O_R   0.680330 0.499980 0.382900 -0.579705
O9    O     O_3   0.411902 0.077498 0.608892 -0.740883
H9    H     H_    0.386441 0.140227 0.676614 0.317811
H10   H     H_    0.379584 0.354827 0.869034 0.149077
O10   O     O_3   0.344564 0.353395 0.146926 -0.682457
H11   H     H_    0.296805 0.306120 0.077551 0.291586
H12   H     H_    0.565699 0.550225 0.105362 0.142507
H13   H     H_    0.769844 0.295954 0.647075 0.151160
H14   H     H_    0.543964 0.907232 0.599431 0.196675

loop_
_geom_bond_atom_site_label_1
_geom_bond_atom_site_label_2
_ccdc_geom_bond_type
C8    H14   S    
C11   H10   S    
C7    H7    S    
C12   O4    A    
C5    H6    S    
C2    C16   A    
C9    C10   D    
C13   N2    D    
C19   C20   A    
Cu1   O7    S    
Cu2   O8    S    
Cu1   N1    S    
C17   C18   A    
H2    N1    S    
C11   N1    D    
C7    C8    D    
Cu1   Cu2   S    
C10   O9    S    
C11   C13   S    
C15   O7    A    
Cu2   N2    S    
C9    H8    S    
Cu1   O3    S    
C17   H4    S    
C1    O2    A    
C2    C3    A    
C1    O1    A    
C5    C6    A    
Cu2   O2    S    
C19   H13   S    
C15   O8    A    
Cu1   O1    S    
C18   H5    S    
C2    C20   A    
C14   O6    A    
Cu2   O6    S    
C6    C20   A    
O10   H11   S    
Cu1   O5    S    
C14   O5    A    
C18   C19   A    
O9    H9    S    
C16   H3    S    
C7    C9    S    
C4    H1    S    
C16   C17   A    
C8    C14   S    
C3    C12   S    
C6    C15   S    
N2    H12   S    
C13   O10   S    
Cu2   O4    S    
C1    C10   S    
C3    C4    A    
C4    C5    A    
C12   O3    A    
