data_mof_unit_41150.cif
_audit_creation_date              2012-12-11T14:56:06-0500
_audit_creation_method            fapswitch 2.2
_symmetry_space_group_name_H-M    P1
_symmetry_Int_Tables_number       1
_space_group_crystal_system       triclinic
_cell_length_a                    27.703174
_cell_length_b                    17.308664
_cell_length_c                    18.00261
_cell_angle_alpha                 90.26867
_cell_angle_beta                  137.847512
_cell_angle_gamma                 89.817418
_cell_volume                      5793.15156673

loop_
_atom_site_label
_atom_site_type_symbol
_atom_type_description
_atom_site_fract_x
_atom_site_fract_y
_atom_site_fract_z
_atom_type_partial_charge
C1    C     C_R   0.667862 0.922229 0.817064 -0.064056
C2    C     C_3   0.273248 0.702343 0.015374 -0.103784
C3    C     C_3   0.665179 0.746661 0.949877 -0.146000
C4    C     C_3   0.204873 0.803061 0.914460 -0.162769
C5    C     C_3   0.836698 0.271778 0.025849 -0.139643
C6    C     C_3   0.799633 0.795747 0.074725 -0.158173
C7    C     C_3   0.165244 0.247589 0.950916 -0.145303
C8    C     C_3   0.251691 0.775923 0.032946 -0.098315
C9    C     C_3   0.765627 0.297913 0.906849 -0.150448
C10   C     C_3   0.744924 0.769092 0.953626 -0.124625
C11   C     C_3   0.221654 0.273693 0.073592 -0.129274
C12   C     C_3   0.776784 0.248546 0.060070 -0.103255
C13   C     C_3   0.242508 0.343915 0.048505 -0.147130
C14   C     C_3   0.290641 0.770397 0.934029 -0.151133
C15   C     C_3   0.243960 0.268066 0.952057 -0.123967
C16   C     C_3   0.720469 0.772771 0.072396 -0.129570
C17   C     C_3   0.315977 0.817321 0.070922 0.152843
C18   C     C_3   0.728045 0.228233 0.898839 0.146171
C19   C     C_3   0.687116 0.816469 0.928183 0.154645
C20   C     C_3   0.277965 0.225676 0.096162 0.164383
C21   C     C_3   0.814934 0.318588 0.069709 0.154838
C22   C     C_3   0.226745 0.729576 0.897499 0.149705
C23   C     C_3   0.187225 0.316595 0.928217 0.154803
C24   C     C_3   0.723618 0.698962 0.976324 -0.165861
C25   C     C_3   0.777862 0.725916 0.096571 0.164456
C26   C     C_2   0.812722 0.825222 0.752180 0.487582
C27   C     C_2   0.320042 0.009009 0.606379 0.471415
C28   C     C_2   0.168842 0.842217 0.276980 0.475939
C29   C     C_2   0.827233 0.156633 0.708899 0.489307
C30   C     C_2   0.312604 0.325106 0.751925 0.487381
C31   C     C_2   0.820485 0.509069 0.607037 0.470898
C32   C     C_2   0.668542 0.342032 0.275699 0.476648
C33   C     C_2   0.327575 0.656873 0.710264 0.489870
C34   C     C_2   0.600589 0.703157 0.373768 0.490812
C35   C     C_3   0.269729 0.845140 0.953339 -0.154271
C36   C     C_2   0.515922 0.194474 0.824381 0.483609
C37   C     C_2   0.338900 0.636003 0.427565 0.497283
C38   C     C_2   0.657840 0.359903 0.557861 0.490472
C39   C     C_2   0.100449 0.203596 0.373094 0.494021
C40   C     C_2   0.015949 0.695324 0.823871 0.491312
C41   C     C_2   0.838647 0.135923 0.426317 0.497424
C42   C     C_2   0.158189 0.860031 0.559231 0.486987
C43   C     C_3   0.797824 0.201142 0.015113 -0.147658
C44   C     C_3   0.741279 0.843804 0.048314 -0.145972
C45   C     C_3   0.222615 0.198721 0.975771 -0.167721
C46   C     C_R   0.705113 0.766102 0.563095 -0.040083
C47   C     C_R   0.400888 0.121095 0.665967 0.187540
C48   C     C_R   0.281789 0.763363 0.397591 0.191536
C49   C     C_R   0.313867 0.099894 0.193280 -0.153101
C50   C     C_R   0.714283 0.233523 0.585724 -0.156065
C51   C     C_R   0.204981 0.266208 0.562665 -0.039748
C52   C     C_R   0.901036 0.621349 0.666114 0.187501
C53   C     C_R   0.781525 0.263224 0.396460 0.192170
C54   C     C_R   0.214608 0.733714 0.586954 -0.158168
C55   C     C_R   0.400034 0.225573 0.754669 -0.334651
C56   C     C_R   0.719613 0.640962 0.519767 -0.172900
C57   C     C_R   0.693544 0.329110 0.467653 -0.192551
C58   C     C_R   0.302247 0.667582 0.515131 -0.280385
C59   C     C_R   0.900171 0.725883 0.754752 -0.333709
C60   C     C_R   0.332850 0.921836 0.183085 -0.117215
C61   C     C_R   0.219355 0.141134 0.519045 -0.172713
C62   C     C_R   0.193920 0.829363 0.469008 -0.192032
C63   C     C_R   0.801795 0.167285 0.513663 -0.280355
C64   C     C_R   0.438177 0.180204 0.746775 -0.058197
C65   C     C_R   0.675654 0.703095 0.488413 -0.033975
C66   C     C_R   0.688856 0.307127 0.536695 0.007265
C67   C     C_R   0.306837 0.689562 0.446070 -0.110064
C68   C     C_R   0.938295 0.680616 0.746739 -0.063934
C69   C     C_R   0.175476 0.203329 0.487792 -0.036282
C70   C     C_R   0.189226 0.807339 0.538036 0.008924
C71   C     C_R   0.687927 0.100570 0.803460 -0.120170
C72   C     C_R   0.806488 0.189369 0.444751 -0.109414
C73   C     C_R   0.338215 0.092739 0.627627 -0.161430
C74   C     C_R   0.780584 0.769259 0.662360 -0.078734
C75   C     C_R   0.768900 0.200464 0.604632 -0.084204
C76   C     C_R   0.227065 0.796202 0.378702 -0.163422
C77   C     C_R   0.838513 0.592840 0.628125 -0.160368
C78   C     C_R   0.280441 0.269224 0.662014 -0.078322
C79   C     C_R   0.269317 0.700764 0.606035 -0.084253
C80   C     C_R   0.726699 0.295953 0.377379 -0.164400
C81   C     C_R   0.293749 0.147474 0.610570 0.020389
C82   C     C_R   0.167791 0.422433 0.817041 -0.063944
C83   C     C_R   0.825216 0.715052 0.677232 0.128070
C84   C     C_R   0.768460 0.216494 0.527587 0.221489
C85   C     C_R   0.228086 0.780588 0.456347 0.017530
C86   C     C_R   0.794010 0.647477 0.611124 0.019964
C87   C     C_R   0.325032 0.214950 0.676882 0.127192
C88   C     C_R   0.268915 0.716808 0.529034 0.221811
C89   C     C_R   0.727666 0.280302 0.454952 0.017238
C90   C     C_R   0.362570 0.066666 0.495846 -0.095399
C91   C     C_R   0.669705 0.902367 0.571729 -0.046319
C92   C     C_R   0.673777 0.100562 0.586947 -0.129583
C93   C     C_R   0.813778 0.600100 0.193562 -0.154710
C94   C     C_R   0.324712 0.897240 0.405582 -0.089949
C95   C     C_R   0.862623 0.566659 0.495942 -0.095177
C96   C     C_R   0.169660 0.402408 0.571589 -0.046396
C97   C     C_R   0.173845 0.600606 0.587219 -0.129519
C98   C     C_R   0.824672 0.397225 0.405389 -0.089008
C99   C     C_R   0.407020 0.804171 0.495805 -0.090245
C100  C     C_R   0.591731 0.194753 0.499053 -0.124943
C101  C     C_R   0.589413 0.806607 0.491768 -0.167432
C102  C     C_R   0.446098 0.158992 0.586607 -0.100595
C103  C     C_R   0.906954 0.304136 0.495555 -0.091510
C104  C     C_R   0.832289 0.422009 0.183023 -0.098001
C105  C     C_R   0.091825 0.694807 0.499376 -0.125093
C106  C     C_R   0.089331 0.306650 0.491526 -0.166043
C107  C     C_R   0.945931 0.659176 0.586350 -0.101359
C108  C     C_R   0.605310 0.193472 0.713994 -0.101630
C109  C     C_R   0.417092 0.829244 0.274368 -0.098875
C110  C     C_R   0.399401 0.190438 0.281818 -0.129195
C111  C     C_R   0.583321 0.830157 0.726230 -0.103723
C112  C     C_R   0.104440 0.693498 0.713617 -0.081125
C113  C     C_R   0.916949 0.329928 0.273629 -0.118276
C114  C     C_R   0.899348 0.690566 0.282039 -0.128327
C115  C     C_R   0.187903 0.601541 0.802801 -0.139393
C116  C     C_R   0.083305 0.330288 0.726309 -0.104193
C117  C     C_R   0.641538 0.861874 0.828882 0.036403
C118  C     C_R   0.329347 0.172756 0.185715 0.044803
C119  C     C_R   0.359603 0.861114 0.171875 0.020257
C120  C     C_R   0.675889 0.176117 0.807774 0.056512
C121  C     C_R   0.141496 0.362105 0.828965 0.035415
C122  C     C_R   0.829211 0.673046 0.186171 0.045537
C123  C     C_R   0.858950 0.361947 0.171108 0.019334
C124  C     C_R   0.175107 0.676971 0.806908 0.054762
C125  C     C_R   0.403685 0.116133 0.586656 0.066763
C126  C     C_3   0.745229 0.345856 0.953385 -0.174779
C127  C     C_R   0.655788 0.824928 0.537888 0.065695
C128  C     C_R   0.662607 0.178928 0.560630 0.074199
C129  C     C_R   0.335305 0.818835 0.429527 0.098781
C130  C     C_R   0.903677 0.616260 0.586628 0.066760
C131  C     C_R   0.155693 0.325002 0.537598 0.064528
C132  C     C_R   0.162747 0.679008 0.561174 0.074549
C133  C     C_R   0.835206 0.318787 0.429077 0.097994
C134  C     C_3   0.706893 0.275320 0.943397 -0.117472
C135  C     C_3   0.338068 0.743916 0.054098 -0.163807
C136  C     C_3   0.299775 0.294706 0.073299 -0.156343
H1    H     H_    0.716932 0.954128 0.882563 0.100997
H2    H     H_    0.196357 0.092529 0.462991 0.157370
H3    H     H_    0.171622 0.884251 0.426729 0.146210
H4    H     H_    0.823125 0.111751 0.554341 0.170661
H5    H     H_    0.427814 0.272583 0.813791 0.130009
H6    H     H_    0.696648 0.592279 0.463843 0.157777
H7    H     H_    0.671289 0.384013 0.425399 0.146550
H8    H     H_    0.323618 0.612078 0.555897 0.170582
H9    H     H_    0.321500 0.027905 0.467824 0.112872
H10   H     H_    0.719619 0.933192 0.621112 0.085890
H11   H     H_    0.724070 0.069805 0.642141 0.078891
H12   H     H_    0.261195 0.073962 0.138456 0.105186
H13   H     H_    0.273771 0.926872 0.345816 0.117953
H14   H     H_    0.821643 0.527815 0.468084 0.112909
H15   H     H_    0.219577 0.433226 0.620962 0.085997
H16   H     H_    0.224158 0.569871 0.642559 0.079161
H17   H     H_    0.773739 0.426875 0.345576 0.117936
H18   H     H_    0.432989 0.748520 0.522120 0.107383
H19   H     H_    0.565410 0.250252 0.471029 0.091178
H20   H     H_    0.567352 0.749322 0.474065 0.118117
H21   H     H_    0.483170 0.204141 0.643980 0.111646
H22   H     H_    0.932889 0.248472 0.521720 0.107632
H23   H     H_    0.284128 0.953871 0.117116 0.103219
H24   H     H_    0.065569 0.750339 0.471572 0.090937
H25   H     H_    0.067205 0.249374 0.473614 0.118229
H26   H     H_    0.982657 0.704634 0.643282 0.111504
H27   H     H_    0.581252 0.250381 0.686370 0.079933
H28   H     H_    0.446224 0.777184 0.293534 0.107299
H29   H     H_    0.425638 0.246059 0.307797 0.101748
H30   H     H_    0.553740 0.778644 0.707130 0.099952
H31   H     H_    0.079825 0.750108 0.684987 0.071564
H32   H     H_    0.945976 0.278015 0.291878 0.115331
H33   H     H_    0.925648 0.746154 0.308120 0.101285
H34   H     H_    0.739564 0.072473 0.856651 0.090688
H35   H     H_    0.053758 0.278765 0.707300 0.100481
H36   H     H_    0.236442 0.778805 0.075173 0.151722
H37   H     H_    0.759406 0.316077 0.841044 0.115676
H38   H     H_    0.753970 0.768498 0.902945 0.168526
H39   H     H_    0.214427 0.274104 0.126552 0.123963
H40   H     H_    0.781956 0.229101 0.124459 0.162539
H41   H     H_    0.304568 0.766379 0.890055 0.119632
H42   H     H_    0.252120 0.266696 0.900241 0.167915
H43   H     H_    0.712373 0.772395 0.124246 0.124306
H44   H     H_    0.724933 0.406157 0.930079 0.118474
H45   H     H_    0.216745 0.454571 0.882397 0.100655
H46   H     H_    0.273482 0.643027 0.038892 0.137531
H47   H     H_    0.248859 0.404484 0.075204 0.133929
H48   H     H_    0.717841 0.638727 0.949079 0.122302
H49   H     H_    0.269956 0.904726 0.931079 0.123707
H50   H     H_    0.818592 0.141030 0.039351 0.131844
H51   H     H_    0.746711 0.904226 0.074674 0.135593
H52   H     H_    0.215927 0.138339 0.948201 0.122519
H53   H     H_    0.652930 0.275711 0.908243 0.134824
H54   H     H_    0.393684 0.721038 0.113087 0.142481
H55   H     H_    0.355718 0.312806 0.124449 0.131026
H56   H     H_    0.761088 0.574245 0.138846 0.105227
H57   H     H_    0.609009 0.728224 0.896840 0.133752
H58   H     H_    0.149540 0.826560 0.856447 0.115721
H59   H     H_    0.891027 0.272069 0.062265 0.130852
H60   H     H_    0.855539 0.814703 0.126855 0.130881
H61   H     H_    0.109039 0.229987 0.898855 0.134150
H62   H     H_    0.857712 0.861251 0.787301 0.006776
H63   H     H_    0.268995 0.988935 0.569859 0.039801
H64   H     H_    0.128849 0.872105 0.264427 0.032001
H65   H     H_    0.823909 0.146267 0.764426 0.015964
H66   H     H_    0.357639 0.361095 0.787142 0.006933
H67   H     H_    0.783451 0.454078 0.117746 0.097190
H68   H     H_    0.769502 0.488868 0.570649 0.040068
H69   H     H_    0.628408 0.371728 0.262964 0.031739
H70   H     H_    0.324098 0.646335 0.765579 0.012629
H71   H     H_    0.571173 0.756896 0.334487 0.003196
H72   H     H_    0.540391 0.246925 0.873862 0.021738
H73   H     H_    0.364634 0.583113 0.475185 0.013325
H74   H     H_    0.658358 0.343619 0.616627 -0.007165
H75   H     H_    0.071101 0.257396 0.334038 0.002390
H76   H     H_    0.040230 0.748019 0.872818 0.024695
H77   H     H_    0.864275 0.082952 0.473758 0.013863
H78   H     H_    0.239829 0.573951 0.856670 0.099276
H79   H     H_    0.158757 0.843685 0.618044 -0.000100
H80   H     H_    0.927894 0.773014 0.813676 0.129410
N1    N     N_R   0.625380 0.928280 0.709340 -0.038325
N2    N     N_R   0.613900 0.929750 0.547530 -0.047651
N3    N     N_R   0.613900 0.070250 0.547530 -0.045475
N4    N     N_R   0.386100 0.929750 0.452470 -0.043868
N5    N     N_R   0.886100 0.570250 0.452470 -0.051513
N6    N     N_R   0.113900 0.429750 0.547530 -0.047505
N7    N     N_R   0.113900 0.570250 0.547530 -0.045209
N8    N     N_R   0.886100 0.429750 0.452470 -0.043969
N9    N     N_R   0.437800 0.869550 0.507970 -0.046180
N10   N     N_R   0.562200 0.130450 0.492030 -0.045491
N11   N     N_R   0.562200 0.869550 0.492030 -0.047411
N12   N     N_R   0.374620 0.071720 0.290660 -0.039091
N13   N     N_R   0.437800 0.130450 0.507970 -0.052486
N14   N     N_R   0.937800 0.369550 0.507970 -0.045949
N15   N     N_R   0.062200 0.630450 0.492030 -0.045754
N16   N     N_R   0.062200 0.369550 0.492030 -0.046876
N17   N     N_R   0.937800 0.630450 0.507970 -0.052754
N18   N     N_R   0.573690 0.128980 0.653840 -0.033216
N19   N     N_R   0.426310 0.871020 0.346160 -0.042723
N20   N     N_R   0.426310 0.128980 0.346160 -0.041288
N21   N     N_R   0.573690 0.871020 0.653840 -0.043607
N22   N     N_R   0.073690 0.628980 0.653840 -0.034705
N23   N     N_R   0.374620 0.928280 0.290660 -0.042025
N24   N     N_R   0.926310 0.371020 0.346160 -0.041971
N25   N     N_R   0.926310 0.628980 0.346160 -0.041398
N26   N     N_R   0.073690 0.371020 0.653840 -0.043568
N27   N     N_R   0.625380 0.071720 0.709340 -0.035235
N28   N     N_R   0.125380 0.428280 0.709340 -0.037801
N29   N     N_R   0.874620 0.571720 0.290660 -0.039584
N30   N     N_R   0.874620 0.428280 0.290660 -0.042919
N31   N     N_R   0.125380 0.571720 0.709340 -0.034123
N32   N     N_R   0.386100 0.070250 0.452470 -0.051535
Ni1   Ni    Ni4+2 0.616560 1.000000 0.627280 0.241835
Ni2   Ni    Ni4+2 0.383440 1.000000 0.372720 0.231522
Ni3   Ni    Ni4+2 0.116560 0.500000 0.627280 0.241923
Ni4   Ni    Ni4+2 0.883440 0.500000 0.372720 0.232016
Ni5   Ni    Ni4+2 0.497990 0.870580 0.500000 0.241202
Ni6   Ni    Ni4+2 0.502010 0.129420 0.500000 0.212861
Ni7   Ni    Ni4+2 0.997990 0.370580 0.500000 0.240604
Ni8   Ni    Ni4+2 0.002010 0.629420 0.500000 0.212420
O1    O     O_2   0.789778 0.830113 0.789417 -0.589563
O2    O     O_2   0.553937 0.146702 0.836704 -0.573547
O3    O     O_2   0.335523 0.649545 0.357277 -0.578900
O4    O     O_2   0.632147 0.422170 0.511150 -0.575634
O5    O     O_2   0.070853 0.143773 0.319999 -0.569880
O6    O     O_2   0.054113 0.647685 0.836369 -0.571555
O7    O     O_2   0.835481 0.149661 0.356296 -0.583631
O8    O     O_2   0.132437 0.922289 0.512514 -0.576173
O9    O     O_2   0.363601 0.961079 0.634515 -0.565445
O10   O     O_2   0.162897 0.844194 0.202650 -0.582983
O11   O     O_2   0.881473 0.136064 0.738047 -0.589851
O12   O     O_2   0.289641 0.329965 0.789132 -0.589190
O13   O     O_2   0.864106 0.461239 0.635171 -0.565499
O14   O     O_2   0.662824 0.344284 0.201617 -0.580791
O15   O     O_2   0.381909 0.636437 0.739606 -0.589336
O16   O     O_2   0.571034 0.643224 0.320970 -0.571329

loop_
_geom_bond_atom_site_label_1
_geom_bond_atom_site_label_2
_ccdc_geom_bond_type
C78   C87   A    
C10   H38   S    
C114  H33   S    
N25   Ni8   S    
C7    H61   S    
N27   Ni1   S    
N28   Ni3   S    
N4    Ni2   S    
C24   H48   S    
C11   C13   S    
C63   H4    S    
C48   C76   A    
C32   O14   D    
C60   H23   S    
C57   C66   A    
C4    C8    S    
C102  C125  A    
C110  C118  A    
C113  H32   S    
C6    H60   S    
N13   Ni6   S    
C23   C121  S    
C104  C123  A    
N30   Ni4   S    
C94   H13   S    
C7    C11   S    
C116  H35   S    
C38   H74   S    
C98   C133  A    
C13   C23   S    
C5    C9    S    
C111  N21   A    
C57   C89   A    
C71   C120  A    
C53   C133  S    
C55   H5    S    
C7    C45   S    
C134  H53   S    
N21   Ni5   S    
C96   N6    A    
C59   C83   A    
C112  C124  A    
C90   H9    S    
C36   H72   S    
C110  H29   S    
C75   C84   A    
C85   C88   A    
C105  H24   S    
C32   C80   S    
C14   C135  S    
C61   C69   A    
C56   C65   A    
C32   H69   S    
C99   H18   S    
C37   C67   S    
C42   C70   S    
C28   O10   D    
C62   C70   A    
C60   C119  A    
C6    C44   S    
C2    H46   S    
C106  H25   S    
C80   C89   A    
C108  C120  A    
C42   H79   S    
C17   C35   S    
N17   Ni8   S    
C26   C74   S    
N13   N32   A    
C40   O6    D    
C90   C125  A    
C113  N24   A    
C38   C66   S    
N32   Ni2   S    
C13   H47   S    
C98   N8    A    
N22   N31   A    
C31   O13   D    
C102  N13   A    
N26   N28   A    
N5    Ni4   S    
C3    C19   S    
C36   O2    D    
C62   H3    S    
C25   C122  S    
N18   Ni6   S    
C82   C121  A    
N12   Ni2   S    
C20   C45   S    
C52   C68   A    
C16   H43   S    
N18   N27   A    
C5    H59   S    
C56   H6    S    
N6    Ni3   S    
C103  N14   A    
C15   C23   S    
C107  N17   A    
C4    C35   S    
N6    N16   A    
C113  C123  A    
N3    N10   A    
C12   C134  S    
C33   O15   D    
C92   H11   S    
N24   N30   A    
N26   Ni7   S    
C99   N9    A    
C34   O16   D    
C3    C24   S    
N16   Ni7   S    
N1    Ni1   S    
C107  C130  A    
C26   H62   S    
C92   C128  A    
C102  H21   S    
C73   C81   A    
C79   C88   A    
C62   C85   A    
N7    N15   A    
C31   C77   S    
C105  C132  A    
C115  N31   A    
C47   C125  S    
C106  C131  A    
C30   H66   S    
C108  H27   S    
C108  N18   A    
C33   H70   S    
C94   C129  A    
C29   H65   S    
C116  C121  A    
C99   C129  A    
C136  H55   S    
C82   N28   A    
C104  H67   S    
C37   O3    D    
C46   C127  S    
C41   O7    D    
C53   C80   A    
C27   H63   S    
C93   C122  A    
C47   C73   A    
C46   C65   A    
N11   Ni5   S    
N14   Ni7   S    
C39   O5    D    
C47   C64   A    
C60   N23   A    
C51   C131  S    
C59   H80   S    
C33   C79   S    
C1    C117  A    
C15   C136  S    
C44   H51   S    
C43   H50   S    
C10   C24   S    
C112  H31   S    
C11   C20   S    
C14   C35   S    
C45   H52   S    
C20   C136  S    
C97   N7    A    
C49   H12   S    
N22   Ni8   S    
C5    C21   S    
C30   C78   S    
C101  N11   A    
C21   C123  S    
C92   N3    A    
C4    H58   S    
C135  H54   S    
C17   C135  S    
N15   Ni8   S    
N8    N14   A    
C59   C68   A    
C95   C130  A    
C4    C22   S    
C9    C18   S    
C56   C86   A    
C49   C118  A    
C54   C70   A    
C107  H26   S    
C10   C19   S    
C35   H49   S    
C55   C64   A    
C114  N25   A    
C94   N4    A    
C39   C69   S    
C71   H34   S    
C39   H75   S    
C95   N5    A    
C95   H14   S    
C28   H64   S    
C24   C25   S    
C49   N12   A    
C126  H44   S    
C9    H37   S    
C50   C66   A    
C37   H73   S    
C31   H68   S    
C81   C87   A    
C93   N29   A    
C96   C131  A    
C109  N19   A    
C100  H19   S    
C42   O8    D    
N29   Ni4   S    
C110  N20   A    
C77   C86   A    
C112  N22   A    
C40   C68   S    
C91   C127  A    
C98   H17   S    
C111  H30   S    
C29   O11   D    
N2    Ni1   S    
N25   N29   A    
C48   C129  S    
C30   O12   D    
C84   C89   A    
C15   C45   S    
C52   C77   A    
C3    H57   S    
C18   C120  S    
N2    N11   A    
C46   C74   A    
C19   C117  S    
C1    H1    S    
C19   C44   S    
C109  C119  A    
C54   C79   A    
C93   H56   S    
N7    Ni3   S    
C16   C25   S    
C17   C119  S    
C16   C44   S    
C20   C118  S    
N24   Ni7   S    
C115  C124  A    
N5    N17   A    
C100  C128  A    
N19   N23   A    
C2    C8    S    
C2    C135  S    
C97   C132  A    
C109  H28   S    
C58   C88   A    
C6    C10   S    
C8    H36   S    
C103  H22   S    
C22   C124  S    
C29   C75   S    
N31   Ni3   S    
C34   H71   S    
C12   C43   S    
C54   C132  S    
C40   H76   S    
C104  N30   A    
C9    C126  S    
C101  H20   S    
C116  N26   A    
C12   H40   S    
C63   C84   A    
C111  C117  A    
C52   C130  S    
C2    C22   S    
C91   N2    A    
C34   C65   S    
C103  C133  A    
C51   C78   A    
C71   N27   A    
C61   C81   A    
C50   C75   A    
C8    C17   S    
C6    C25   S    
C96   H15   S    
C14   C22   S    
C27   O9    D    
C26   O1    D    
C61   H2    S    
C7    C23   S    
C12   C21   S    
C100  N10   A    
C36   C64   S    
C11   H39   S    
C101  C127  A    
C97   H16   S    
C106  N16   A    
N4    N9    A    
C18   C134  S    
C74   C83   A    
C48   C67   A    
C55   C87   A    
C115  H78   S    
C90   N32   A    
N12   N20   A    
C14   H41   S    
N1    N21   A    
C41   H77   S    
N8    Ni4   S    
N19   Ni5   S    
C82   H45   S    
C114  C122  A    
C58   H8    S    
C58   C67   A    
N10   Ni6   S    
C83   C86   A    
C50   C128  S    
C63   C72   A    
C126  C134  S    
N9    Ni5   S    
N3    Ni1   S    
C15   H42   S    
C18   C43   S    
C105  N15   A    
C5    C43   S    
C1    N1    A    
C51   C69   A    
N20   Ni6   S    
C21   C126  S    
C27   C73   S    
C53   C72   A    
C38   O4    D    
C76   C85   A    
C91   H10   S    
C13   C136  S    
C3    C16   S    
C41   C72   S    
C57   H7    S    
N23   Ni2   S    
C28   C76   S    
