data_mof_unit_28884.cif
_audit_creation_date              2012-12-11T14:33:47-0500
_audit_creation_method            fapswitch 2.2
_symmetry_space_group_name_H-M    P1
_symmetry_Int_Tables_number       1
_space_group_crystal_system       triclinic
_cell_length_a                    13.894548
_cell_length_b                    14.002608
_cell_length_c                    27.340005
_cell_angle_alpha                 89.870771
_cell_angle_beta                  90.364959
_cell_angle_gamma                 119.655363
_cell_volume                      4622.44015278

loop_
_atom_site_label
_atom_site_type_symbol
_atom_type_description
_atom_site_fract_x
_atom_site_fract_y
_atom_site_fract_z
_atom_type_partial_charge
C1    C     C_R   0.234767 0.786681 0.568957 0.549804
C2    C     C_1   0.692505 0.854742 0.862704 0.139705
C3    C     C_1   0.121148 0.870038 0.854764 0.152850
C4    C     C_1   0.125232 0.253630 0.855098 0.141025
C5    C     C_1   0.622848 0.809941 0.660325 0.142001
C6    C     C_1   0.183549 0.812894 0.658085 0.145847
C7    C     C_1   0.185487 0.373877 0.658716 0.142015
C8    C     C_1   0.597885 0.793859 0.617623 0.116309
C9    C     C_1   0.203184 0.802972 0.616307 0.120603
C10   C     C_1   0.197249 0.402032 0.616716 0.120574
C11   C     C_R   0.065455 0.151081 0.096013 0.594373
C12   C     C_R   0.213371 0.448012 0.569042 0.554889
C13   C     C_R   0.778091 0.883757 0.088661 0.579310
C14   C     C_R   0.116889 0.893935 0.088213 0.592487
C15   C     C_R   0.072368 0.165727 0.942815 0.528751
C16   C     C_R   0.778353 0.886466 0.951292 0.549097
C17   C     C_R   0.092383 0.926678 0.942959 0.524461
C18   C     C_R   0.611197 0.891621 0.360701 -0.179020
C19   C     C_R   0.098559 0.730502 0.362551 -0.174650
C20   C     C_R   0.265729 0.362218 0.363347 -0.178339
C21   C     C_R   0.639140 0.907691 0.311400 -0.001081
C22   C     C_R   0.082058 0.742275 0.312951 0.003211
C23   C     C_R   0.552118 0.764829 0.569272 0.551572
C24   C     C_R   0.243457 0.311424 0.317376 0.006590
C25   C     C_R   0.676258 0.923364 0.210136 0.014229
C26   C     C_R   0.064087 0.759117 0.211250 0.006618
C27   C     C_R   0.203499 0.231663 0.220617 0.003859
C28   C     C_R   0.232055 0.788651 0.432053 0.563156
C29   C     C_R   0.211288 0.443988 0.431613 0.567928
C30   C     C_R   0.555689 0.767473 0.432078 0.571947
C31   C     C_R   0.639974 0.989448 0.232847 -0.113828
C32   C     C_R   0.983970 0.666790 0.236438 -0.110327
C33   C     C_R   0.307528 0.268109 0.242514 -0.106394
C34   C     C_3   0.642270 0.723582 0.792903 0.738707
C35   C     C_R   0.621085 0.981367 0.283200 -0.122507
C36   C     C_R   0.993704 0.657688 0.286931 -0.112542
C37   C     C_R   0.327558 0.308259 0.290469 -0.101893
C38   C     C_R   0.697758 0.931905 0.159839 -0.130245
C39   C     C_R   0.054621 0.770703 0.160881 -0.172015
C40   C     C_R   0.185502 0.201108 0.171170 -0.178296
C41   C     C_R   0.732147 0.863545 0.138057 0.011041
C42   C     C_R   0.137423 0.862716 0.136497 -0.000166
C43   C     C_R   0.083824 0.174021 0.148703 -0.005856
C44   C     C_R   0.671121 0.755349 0.366773 0.372895
C45   C     C_3   0.256085 0.940861 0.786823 0.731990
C46   C     C_R   0.257440 0.915578 0.364100 0.372665
C47   C     C_R   0.073499 0.318238 0.369982 0.375455
C48   C     C_R   0.696437 0.768191 0.317258 0.027601
C49   C     C_R   0.247332 0.924907 0.314033 0.029316
C50   C     C_R   0.050961 0.270024 0.323604 0.028969
C51   C     C_R   0.677820 0.842625 0.289168 0.011507
C52   C     C_R   0.160389 0.837326 0.288147 0.011810
C53   C     C_R   0.136765 0.268919 0.296686 0.012481
C54   C     C_R   0.731850 0.701588 0.294653 -0.118406
C55   C     C_R   0.327672 0.017054 0.288960 -0.124836
C56   C     C_3   0.063756 0.334389 0.788471 0.741783
C57   C     C_R   0.945583 0.228997 0.302457 -0.115040
C58   C     C_R   0.743480 0.704595 0.244337 -0.116575
C59   C     C_R   0.324977 0.020220 0.238327 -0.128805
C60   C     C_R   0.927216 0.193817 0.254053 -0.116236
C61   C     C_R   0.724266 0.777386 0.216180 0.029981
C62   C     C_R   0.238562 0.934079 0.212300 0.029882
C63   C     C_R   0.012785 0.195967 0.226366 0.034938
C64   C     C_3   0.553635 0.844822 0.738077 0.207445
C65   C     C_3   0.145139 0.721977 0.739880 0.211363
C66   C     C_3   0.278454 0.419098 0.740226 0.211549
C67   C     C_3   0.631287 0.714239 0.735978 0.797702
C68   C     C_R   0.693718 0.848598 0.238518 0.007950
C69   C     C_R   0.153951 0.843655 0.237232 0.012154
C70   C     C_R   0.117167 0.230340 0.248127 0.014499
C71   C     C_R   0.737311 0.780996 0.166049 0.362626
C72   C     C_R   0.233593 0.939039 0.161813 0.359832
C73   C     C_R   0.997121 0.169029 0.176758 0.350467
C74   C     C_R   0.619793 0.809997 0.387386 0.013790
C75   C     C_R   0.190839 0.814052 0.387244 0.010343
C76   C     C_R   0.182499 0.370738 0.388738 0.008398
C77   C     C_3   0.757043 0.919407 0.726326 0.260771
C78   C     C_3   0.271062 0.928566 0.731202 0.796579
C79   C     C_3   0.064044 0.840142 0.716323 0.241664
C80   C     C_3   0.144331 0.224569 0.716916 0.251338
C81   C     C_3   0.774548 0.927433 0.782642 0.291478
C82   C     C_3   0.049659 0.858161 0.771035 0.303205
C83   C     C_3   0.119171 0.190895 0.771164 0.306908
C84   C     C_1   0.725577 0.868921 0.904374 0.102096
C85   C     C_1   0.107599 0.893411 0.895514 0.116805
C86   C     C_1   0.104084 0.215367 0.895620 0.110767
C87   C     C_3   0.641228 0.821528 0.713714 -0.136227
C88   C     C_3   0.166786 0.825855 0.710032 -0.133840
C89   C     C_3   0.073624 0.357751 0.732292 0.798705
C90   C     C_3   0.170466 0.344808 0.710675 -0.132604
C91   C     C_3   0.571239 0.858061 0.794542 0.189033
C92   C     C_3   0.127921 0.736823 0.795076 0.181997
C93   C     C_3   0.264201 0.382908 0.794844 0.181804
C94   C     C_3   0.669331 0.840794 0.809678 -0.133095
C95   C     C_3   0.138336 0.851288 0.803376 -0.136245
C96   C     C_3   0.143114 0.290544 0.803905 -0.139262
Cr1   Cr    Cr6+3 0.164410 0.584450 0.499910 1.118359
Cr2   Cr    Cr6+3 0.415550 0.579960 0.499910 1.115825
Cr3   Cr    Cr6+3 0.420040 0.835590 0.499910 1.118021
Cr4   Cr    Cr6+3 0.155170 0.075460 0.019960 1.123168
Cr5   Cr    Cr6+3 0.924540 0.079710 0.019960 1.114839
Cr6   Cr    Cr6+3 0.920290 0.844830 0.019960 1.117834
F1    F     F_    0.591824 0.961642 0.808613 -0.553908
F2    F     F_    0.761828 0.707332 0.145225 -0.631011
F3    F     F_    0.318795 0.023846 0.137875 -0.626657
F4    F     F_    0.898812 0.142709 0.155116 -0.653528
F5    F     F_    0.687174 0.682445 0.393669 -0.612158
F6    F     F_    0.339604 0.001740 0.389005 -0.614229
F7    F     F_    0.990224 0.319166 0.395502 -0.610531
F8    F     F_    0.839941 0.908658 0.703353 -0.412451
F9    F     F_    0.073195 0.926974 0.688258 -0.431983
F10   F     F_    0.056033 0.153945 0.687329 -0.431511
F11   F     F_    0.862257 0.911995 0.795263 -0.468485
F12   F     F_    0.024668 0.654099 0.809851 -0.555066
F13   F     F_    0.058117 0.959383 0.777128 -0.455515
F14   F     F_    0.009366 0.111281 0.775914 -0.446351
F15   F     F_    0.530389 0.624663 0.722983 -0.479783
F16   F     F_    0.364316 0.918430 0.724017 -0.483986
F17   F     F_    0.091886 0.463053 0.723681 -0.477156
F18   F     F_    0.713337 0.696238 0.716956 -0.484460
F19   F     F_    0.287930 0.022312 0.706520 -0.485293
F20   F     F_    0.974968 0.285262 0.709106 -0.477067
F21   F     F_    0.544067 0.645640 0.814248 -0.524761
F22   F     F_    0.335566 0.930116 0.813501 -0.512571
F23   F     F_    0.337725 0.346224 0.806567 -0.557279
F24   F     F_    0.091426 0.430125 0.814107 -0.513127
F25   F     F_    0.447665 0.760674 0.727690 -0.444968
F26   F     F_    0.232238 0.701330 0.734800 -0.440886
F27   F     F_    0.304705 0.528153 0.737221 -0.439992
F28   F     F_    0.724784 0.701845 0.808494 -0.478921
F29   F     F_    0.271900 0.044970 0.796296 -0.499142
F30   F     F_    0.955094 0.258512 0.800122 -0.480295
H1    H     H_    0.494544 0.796930 0.813446 0.269266
H2    H     H_    0.625852 0.046938 0.211685 0.137213
H3    H     H_    0.915019 0.600885 0.216972 0.130274
H4    H     H_    0.374525 0.269258 0.221985 0.126334
H5    H     H_    0.590780 0.031431 0.299951 0.128170
H6    H     H_    0.932824 0.584251 0.305536 0.128629
H7    H     H_    0.409700 0.339750 0.306005 0.128246
H8    H     H_    0.767407 0.649581 0.227588 0.174883
H9    H     H_    0.389851 0.091029 0.219724 0.172402
H10   H     H_    0.846897 0.168359 0.237917 0.178368
H11   H     H_    0.746366 0.643911 0.315456 0.180862
H12   H     H_    0.190969 0.729465 0.817549 0.264711
H13   H     H_    0.395393 0.084809 0.308170 0.177785
H14   H     H_    0.878351 0.228604 0.322478 0.184585
H15   H     H_    0.561024 0.921612 0.722440 0.229845
H16   H     H_    0.069708 0.649099 0.725212 0.229984
H17   H     H_    0.348633 0.412898 0.724233 0.231641
H18   H     H_    0.762550 0.997000 0.712785 0.165967
H19   H     H_    0.988827 0.764637 0.703313 0.156866
H20   H     H_    0.217372 0.217467 0.705538 0.168304
H21   H     H_    0.795660 0.011449 0.794791 0.232997
H22   H     H_    0.965294 0.794940 0.782863 0.247205
H23   H     H_    0.284447 0.454569 0.818844 0.271402
H24   H     H_    0.171697 0.156037 0.783452 0.256690
H25   H     H_    0.690754 0.992988 0.138051 0.181976
H26   H     H_    0.981417 0.711169 0.141178 0.179507
H27   H     H_    0.251860 0.202985 0.149790 0.178267
H28   H     H_    0.573604 0.935815 0.376895 0.169801
H29   H     H_    0.044753 0.653373 0.380722 0.163827
H30   H     H_    0.349356 0.400624 0.377945 0.159784
O1    O     O_R   0.137150 0.468200 0.553200 -0.470187
O2    O     O_R   0.140110 0.470540 0.446010 -0.429839
O3    O     O_R   0.529460 0.669570 0.446010 -0.435709
O4    O     O_R   0.330430 0.859890 0.446010 -0.429830
O5    O     O_R   0.176710 0.690910 0.450560 -0.519411
O6    O     O_R   0.309090 0.485800 0.450560 -0.519075
O7    O     O_R   0.514200 0.823290 0.450560 -0.520111
O8    O     O_3   0.333333 0.666667 0.499990 -0.318991
O9    O     O_R   0.176750 0.985260 0.074180 -0.443101
O10   O     O_R   0.014740 0.191490 0.074180 -0.412512
O11   O     O_R   0.808510 0.823250 0.074180 -0.428437
O12   O     O_R   0.531800 0.668950 0.553200 -0.471028
O13   O     O_R   0.146100 0.172630 0.068980 -0.488675
O14   O     O_R   0.827370 0.973470 0.068980 -0.500546
O15   O     O_R   0.026530 0.853900 0.068980 -0.497593
O16   O     O_3   1.000000 0.000000 0.020040 -0.335649
O17   O     O_R   0.148270 0.170520 0.969620 -0.481754
O18   O     O_R   0.829480 0.977750 0.969620 -0.519189
O19   O     O_R   0.022250 0.851730 0.969620 -0.473632
O20   O     O_R   0.331050 0.862850 0.553200 -0.470129
O21   O     O_R   0.179100 0.982980 0.967000 -0.470398
O22   O     O_R   0.017020 0.196120 0.967000 -0.456008
O23   O     O_R   0.803880 0.820900 0.967000 -0.481643
O24   O     O_R   0.173970 0.688730 0.549930 -0.496561
O25   O     O_R   0.311270 0.485240 0.549930 -0.495116
O26   O     O_R   0.514760 0.826030 0.549930 -0.492801

loop_
_geom_bond_atom_site_label_1
_geom_bond_atom_site_label_2
_ccdc_geom_bond_type
C25   C31   A    
C65   C92   S    
C71   F2    S    
C26   C32   A    
C34   F21   S    
C55   C59   A    
C13   O14   A    
C18   C21   A    
C40   H27   S    
C2    C84   T    
C33   H4    S    
Cr4   O16   S    
C6    C9    T    
C13   C41   S    
C79   C82   S    
C81   H21   S    
C66   C90   S    
C29   C76   S    
C1    O24   A    
C27   C33   A    
Cr6   O11   S    
C13   O11   A    
C46   C49   A    
C60   C63   A    
C17   C85   S    
C32   C36   A    
C29   O6    A    
C22   C52   A    
C78   F16   S    
C47   C76   A    
C82   H22   S    
C15   O17   A    
C16   O23   A    
C80   C83   S    
C23   O26   A    
C30   C74   S    
C26   C39   A    
C55   H13   S    
C4    C86   T    
C89   F20   S    
C78   C88   S    
C16   C84   S    
C8    C23   S    
C6    C88   S    
C20   C76   A    
Cr5   O10   S    
C56   C96   S    
C19   H29   S    
C7    C10   T    
Cr4   O21   S    
C78   F19   S    
C46   C75   A    
Cr3   O20   S    
Cr5   O16   S    
C28   O5    A    
C60   H10   S    
C4    C96   S    
C43   C73   A    
C40   C43   A    
C20   C24   A    
Cr1   O1    S    
C46   F6    S    
C11   C43   S    
C45   C78   S    
C52   C69   A    
C56   F24   S    
C39   C42   A    
C67   F18   S    
C64   C87   S    
C28   O4    A    
C41   C71   A    
Cr3   O4    S    
C61   C71   A    
C58   C61   A    
C54   H11   S    
C11   O10   A    
C18   C74   A    
C57   H14   S    
Cr4   O9    S    
Cr6   O19   S    
C29   O2    A    
C25   C68   A    
C31   H2    S    
C53   C70   A    
C10   C12   S    
Cr3   O26   S    
C47   C50   A    
C48   C51   A    
C45   F22   S    
Cr1   O24   S    
C26   C69   A    
C77   C87   S    
C50   C53   A    
Cr6   O23   S    
C65   F26   S    
C89   F17   S    
C2    C94   S    
C19   C22   A    
C1    C9    S    
C30   O3    A    
C38   C41   A    
Cr4   O17   S    
C23   O12   A    
C57   C60   A    
C83   H24   S    
C63   C73   A    
C24   C53   A    
C47   F7    S    
C12   O25   A    
C92   C95   S    
C33   C37   A    
Cr1   O8    S    
C62   C69   A    
C5    C87   S    
C34   C67   S    
C48   C54   A    
C30   O7    A    
Cr2   O25   S    
C25   C38   A    
C5    C8    T    
C17   O21   A    
C91   H1    S    
C63   C70   A    
C93   H23   S    
C27   C40   A    
C49   C52   A    
C20   H30   S    
C15   O22   A    
C80   F10   S    
Cr4   O13   S    
C42   C72   A    
C24   C37   A    
C62   C72   A    
C14   C42   S    
C65   H16   S    
C44   C74   A    
C67   F15   S    
C59   H9    S    
C56   F30   S    
C27   C70   A    
C79   C88   S    
C66   H17   S    
C15   C86   S    
C21   C35   A    
C56   C89   S    
C45   F29   S    
C93   C96   S    
C66   C93   S    
C39   H26   S    
Cr6   O16   S    
C31   C35   A    
C3    C85   T    
C45   C95   S    
C21   C51   A    
C65   C88   S    
C79   H19   S    
C54   C58   A    
C44   F5    S    
C58   H8    S    
C16   O18   A    
C80   H20   S    
C59   C62   A    
Cr5   O22   S    
C82   C95   S    
C50   C57   A    
C67   C87   S    
C83   F14   S    
C34   C94   S    
C38   H25   S    
C91   F1    S    
C14   O9    A    
C49   C55   A    
C91   C94   S    
C77   H18   S    
C82   F13   S    
C32   H3    S    
C1    O20   A    
Cr3   O7    S    
C22   C36   A    
C11   O13   A    
C79   F9    S    
Cr1   O2    S    
Cr3   O8    S    
C66   F27   S    
C19   C75   A    
C64   H15   S    
Cr5   O18   S    
Cr1   O5    S    
C35   H5    S    
C64   F25   S    
C81   C94   S    
C7    C90   S    
C61   C68   A    
C73   F4    S    
C36   H6    S    
Cr2   O12   S    
C83   C96   S    
C51   C68   A    
C80   C90   S    
C77   F8    S    
C92   H12   S    
C93   F23   S    
Cr2   O3    S    
C18   H28   S    
Cr2   O8    S    
C17   O19   A    
C72   F3    S    
C34   F28   S    
C77   C81   S    
C37   H7    S    
C81   F11   S    
Cr6   O15   S    
C14   O15   A    
Cr5   O14   S    
C3    C95   S    
C64   C91   S    
C89   C90   S    
C28   C75   S    
C92   F12   S    
Cr2   O6    S    
C44   C48   A    
C12   O1    A    
