data_mof_unit_15237.cif
_audit_creation_date              2012-12-10T18:32:44-0500
_audit_creation_method            fapswitch 2.2
_symmetry_space_group_name_H-M    P1
_symmetry_Int_Tables_number       1
_space_group_crystal_system       triclinic
_cell_length_a                    15.004122
_cell_length_b                    15.3931
_cell_length_c                    15.732114
_cell_angle_alpha                 90.177601
_cell_angle_beta                  104.48018
_cell_angle_gamma                 82.077791
_cell_volume                      3482.62754472

loop_
_atom_site_label
_atom_site_type_symbol
_atom_type_description
_atom_site_fract_x
_atom_site_fract_y
_atom_site_fract_z
_atom_type_partial_charge
C1    C     C_R   0.441724 0.662363 0.489538 0.873930
C2    C     C_3   0.415054 0.560122 0.028573 -0.121789
C3    C     C_3   0.499682 0.494852 0.082574 0.269788
C4    C     C_3   0.499368 0.400727 0.046857 -0.433825
C5    C     C_3   0.496343 0.403302 0.947332 -0.143864
C6    C     C_1   0.499388 0.493752 0.174206 -0.082267
C7    C     C_1   0.502589 0.501527 0.825860 -0.085290
C8    C     C_1   0.502558 0.501771 0.750607 -0.162775
C9    C     C_R   0.405846 0.755025 0.494138 -0.078908
C10   C     C_R   0.593558 0.246074 0.547666 -0.106432
C11   C     C_R   0.278043 0.875004 0.474128 0.004761
C12   C     C_R   0.500851 0.500638 0.661475 0.889051
C13   C     C_R   0.310555 0.785934 0.468377 -0.247320
C14   C     C_R   0.468522 0.811946 0.530046 -0.259826
C15   C     C_R   0.438813 0.900699 0.538453 0.095186
C16   C     C_R   0.343105 0.933833 0.505261 0.118815
C17   C     C_R   0.504133 0.958141 0.572317 0.054127
C18   C     C_R   0.477807 0.048605 0.554009 0.080618
C19   C     C_R   0.382352 0.081312 0.522241 -0.230975
C20   C     C_R   0.316029 0.024862 0.500454 -0.240971
C21   C     C_R   0.594550 0.927837 0.623998 -0.280348
C22   C     C_R   0.660769 0.984571 0.650685 -0.032690
C23   C     C_R   0.558520 0.337735 0.517461 0.849086
C24   C     C_R   0.639189 0.072666 0.618611 0.052099
C25   C     C_R   0.547832 0.103501 0.568091 0.075105
C26   C     C_R   0.706273 0.130469 0.633893 -0.241161
C27   C     C_R   0.683168 0.217882 0.602783 -0.018670
C28   C     C_R   0.529355 0.187143 0.528470 -0.262519
C29   C     C_R   0.842816 0.635407 0.633191 -0.288332
C30   C     C_R   0.753526 0.613711 0.610125 0.035799
C31   C     C_R   0.793794 0.510688 0.508581 -0.030614
C32   C     C_R   0.886128 0.528896 0.529687 -0.004175
C33   C     C_R   0.909450 0.593380 0.592973 0.152255
C34   C     C_R   0.499385 0.498839 0.338481 0.904988
C35   C     C_R   0.955341 0.485480 0.490888 0.078787
C36   C     C_R   0.046546 0.509831 0.514050 0.077729
C37   C     C_R   0.066348 0.574633 0.577287 -0.235786
C38   C     C_R   0.998999 0.615157 0.616067 -0.202904
C39   C     C_R   0.936629 0.418029 0.430493 -0.247587
C40   C     C_R   0.004290 0.376704 0.392535 -0.218563
C41   C     C_R   0.092775 0.401065 0.412839 0.181972
C42   C     C_R   0.115121 0.467976 0.473569 -0.003762
C43   C     C_R   0.159512 0.358743 0.372870 -0.325635
C44   C     C_R   0.247745 0.383030 0.393199 0.018802
C45   C     C_3   0.413681 0.558077 0.929625 -0.449037
C46   C     C_R   0.205916 0.489919 0.490696 -0.064856
C47   C     C_3   0.591496 0.532100 0.975104 -0.151031
C48   C     C_3   0.590315 0.527559 0.073398 -0.496598
C49   C     C_1   0.498705 0.495456 0.249402 -0.181989
C50   C     C_3   0.502218 0.499132 0.917400 0.193942
H1    H     H_    0.429303 0.627181 0.049574 0.160950
H2    H     H_    0.350512 0.533479 0.889726 0.163306
H3    H     H_    0.561463 0.357168 0.085446 0.172622
H4    H     H_    0.244185 0.053518 0.475182 0.161416
H5    H     H_    0.463974 0.207516 0.481175 0.160307
H6    H     H_    0.261305 0.740827 0.443671 0.164601
H7    H     H_    0.541722 0.786773 0.547503 0.168815
H8    H     H_    0.409279 0.625884 0.903338 0.210250
H9    H     H_    0.356975 0.150774 0.516093 0.150950
H10   H     H_    0.612894 0.860716 0.649122 0.175486
H11   H     H_    0.776706 0.109322 0.671637 0.180101
H12   H     H_    0.017243 0.664211 0.664562 0.149697
H13   H     H_    0.229758 0.540223 0.534651 0.130102
H14   H     H_    0.300367 0.350704 0.363200 0.134643
H15   H     H_    0.987030 0.325229 0.346625 0.143449
H16   H     H_    0.859783 0.684145 0.682218 0.175718
H17   H     H_    0.701236 0.645164 0.641009 0.145951
H18   H     H_    0.768596 0.463653 0.461162 0.129168
H19   H     H_    0.652978 0.487313 0.966647 0.136080
H20   H     H_    0.133726 0.595351 0.599414 0.140828
H21   H     H_    0.870444 0.394477 0.411448 0.140824
H22   H     H_    0.143637 0.307358 0.326557 0.144161
H23   H     H_    0.596223 0.592589 0.103941 0.197313
H24   H     H_    0.652058 0.482179 0.110434 0.165514
H25   H     H_    0.425912 0.388724 0.912724 0.125746
H26   H     H_    0.439031 0.371855 0.057533 0.166325
N1    N     N_R   0.731690 0.552720 0.548990 -0.104155
N2    N     N_R   0.268300 0.447240 0.450950 -0.099935
O1    O     O_R   0.383120 0.605620 0.475300 -0.619090
O2    O     O_R   0.531890 0.639510 0.506740 -0.618147
O3    O     O_R   0.425580 0.483050 0.607130 -0.616173
O4    O     O_R   0.574360 0.516930 0.638570 -0.614024
O5    O     O_R   0.468110 0.360490 0.493260 -0.620817
O6    O     O_R   0.616880 0.394380 0.524700 -0.606532
O7    O     O_R   0.425640 0.483070 0.361430 -0.608291
O8    O     O_R   0.574420 0.516950 0.392870 -0.612263
Zn1   Zn    Zn3+2 0.400660 0.477370 0.479010 0.937867
Zn2   Zn    Zn3+2 0.599340 0.522630 0.520990 0.950581
C51   C     C_R   0.321702 0.548796 0.046788 0.140334
C52   C     C_R   0.272292 0.479686 0.012277 -0.145702
C53   C     C_R   0.188615 0.470046 0.032700 -0.146509
C54   C     C_R   0.153094 0.528878 0.087777 -0.103789
C55   C     C_R   0.200960 0.597801 0.122251 -0.114063
C56   C     C_R   0.284491 0.607928 0.101835 -0.156836
H27   H     H_    0.297404 0.433283 0.969105 0.114260
H28   H     H_    0.151277 0.416769 0.005779 0.129706
H29   H     H_    0.088450 0.521087 0.103694 0.129654
H30   H     H_    0.173489 0.643335 0.165091 0.128554
H31   H     H_    0.320780 0.661421 0.130131 0.118954
C57   C     C_R   0.752672 0.277778 0.634184 0.133720
C58   C     C_R   0.834646 0.269541 0.605345 -0.168514
C59   C     C_R   0.902078 0.323770 0.638185 -0.144894
C60   C     C_R   0.888186 0.386186 0.700078 -0.121111
C61   C     C_R   0.806829 0.394518 0.729251 -0.120206
C62   C     C_R   0.739474 0.340150 0.696918 -0.079456
H32   H     H_    0.846265 0.221156 0.557697 0.127881
H33   H     H_    0.965056 0.317527 0.615574 0.144122
H34   H     H_    0.940284 0.428341 0.725112 0.136977
H35   H     H_    0.796032 0.442954 0.777042 0.147771
H36   H     H_    0.677051 0.346668 0.720511 0.127696
C63   C     C_2   0.751140 0.948111 0.711102 0.896892
O9    O     O_2   0.787515 0.990216 0.773035 -0.662177
O10   O     O_R   0.792418 0.863265 0.699470 -0.825190
H37   H     H_    0.852981 0.844968 0.745301 0.337184
C64   C     C_R   0.176252 0.903803 0.447605 0.107090
C65   C     C_R   0.124453 0.888398 0.362698 -0.157912
C66   C     C_R   0.028186 0.914005 0.338402 -0.130904
C67   C     C_R   0.982938 0.954594 0.398731 -0.103027
C68   C     C_R   0.033836 0.969421 0.483567 -0.131793
C69   C     C_R   0.130092 0.943857 0.508160 -0.166685
H38   H     H_    0.158673 0.856988 0.315333 0.127991
H39   H     H_    0.988646 0.902306 0.272807 0.134623
H40   H     H_    0.908422 0.974340 0.379820 0.129355
H41   H     H_    0.998665 0.000497 0.530358 0.134173
H42   H     H_    0.168656 0.955012 0.574341 0.136382
C70   C     C_2   0.605682 0.622467 0.947202 0.918805
O11   O     O_2   0.555562 0.688216 0.960074 -0.644768
O12   O     O_R   0.677682 0.630144 0.907127 -0.817497
H43   H     H_    0.680650 0.693249 0.891125 0.347411
C71   C     C_R   0.565388 0.332156 0.920676 0.151199
C72   C     C_R   0.534628 0.284212 0.844962 -0.172307
C73   C     C_R   0.596242 0.221285 0.816406 -0.139727
C74   C     C_R   0.689425 0.205053 0.862920 -0.097101
C75   C     C_R   0.721022 0.251402 0.938343 -0.145209
C76   C     C_R   0.659666 0.314372 0.967330 -0.154366
H44   H     H_    0.462961 0.296468 0.806939 0.124529
H45   H     H_    0.571763 0.185548 0.757783 0.153758
H46   H     H_    0.737197 0.156739 0.840409 0.177639
H47   H     H_    0.793315 0.238628 0.974424 0.136108
H48   H     H_    0.686500 0.348719 0.026148 0.117293

loop_
_geom_bond_atom_site_label_1
_geom_bond_atom_site_label_2
_ccdc_geom_bond_type
N2    Zn1   S    
C10   C27   A    
O5    Zn1   S    
C62   H36   S    
C55   C56   A    
C4    H3    S    
C41   C42   A    
C36   C42   A    
C35   C36   A    
C66   H39   S    
C3    C6    S    
O12   H43   S    
O1    Zn1   S    
C7    C8    T    
C68   H41   S    
C44   H14   S    
C25   C28   A    
C57   C62   A    
C58   C59   A    
C23   O5    A    
C56   H31   S    
C36   C37   A    
C26   H11   S    
C24   C26   A    
C42   C46   A    
C61   H35   S    
O8    Zn2   S    
C15   C16   A    
C29   C33   A    
C3    C48   S    
C65   C66   A    
C18   C19   A    
C34   O8    A    
C51   C56   A    
C14   H7    S    
C9    C13   A    
C67   C68   A    
C47   H19   S    
C53   H28   S    
C30   N1    A    
C63   O9    D    
N1    Zn2   S    
C73   C74   A    
C60   H34   S    
C29   C30   A    
C11   C64   S    
C30   H17   S    
C8    C12   S    
C13   H6    S    
C74   H46   S    
C21   C22   A    
C41   C43   A    
C31   H18   S    
C18   C25   A    
C61   C62   A    
C28   H5    S    
C54   H29   S    
C31   N1    A    
C47   C50   S    
O7    Zn1   S    
C2    C45   S    
C76   H48   S    
C45   H8    S    
C27   C57   S    
C23   O6    A    
C32   C35   A    
C48   H24   S    
C52   H27   S    
C1    C9    S    
C24   C25   A    
C21   H10   S    
C20   H4    S    
C72   H44   S    
C65   H38   S    
C75   H47   S    
C46   N2    A    
C69   H42   S    
C45   H2    S    
C19   H9    S    
C73   H45   S    
C17   C21   A    
C34   O7    A    
C5    H25   S    
C2    C51   S    
C35   C39   A    
C9    C14   A    
C37   C38   A    
C11   C16   A    
C47   C48   S    
C16   C20   A    
C17   C18   A    
C26   C27   A    
C12   O4    A    
C59   H33   S    
C63   O10   S    
O3    Zn1   S    
C5    C71   S    
C71   C76   A    
C22   C63   S    
C40   H15   S    
C43   C44   A    
C74   C75   A    
C1    O1    A    
C22   C24   A    
C5    C50   S    
C3    C4    S    
C53   C54   A    
C47   C70   S    
O10   H37   S    
C10   C28   A    
C58   H32   S    
C15   C17   A    
C43   H22   S    
C40   C41   A    
C34   C49   S    
C70   O12   S    
C48   H23   S    
C31   C32   A    
O6    Zn2   S    
C7    C50   S    
C4    C5    S    
C72   C73   A    
C68   C69   A    
C75   C76   A    
C10   C23   S    
C33   C38   A    
C46   H13   S    
C32   C33   A    
C19   C20   A    
C44   N2    A    
C2    C3    S    
O2    Zn2   S    
C66   C67   A    
C11   C13   A    
C52   C53   A    
C45   C50   S    
C70   O11   D    
O4    Zn2   S    
C54   C55   A    
C12   O3    A    
C71   C72   A    
C67   H40   S    
C6    C49   T    
C59   C60   A    
C4    H26   S    
C2    H1    S    
C29   H16   S    
C39   C40   A    
C64   C69   A    
C60   C61   A    
C1    O2    A    
C39   H21   S    
C14   C15   A    
C57   C58   A    
C51   C52   A    
C37   H20   S    
C55   H30   S    
C64   C65   A    
C38   H12   S    
