data_mof_unit_42326.cif
_audit_creation_date              2012-12-10T20:25:46-0500
_audit_creation_method            fapswitch 2.2
_symmetry_space_group_name_H-M    P1
_symmetry_Int_Tables_number       1
_space_group_crystal_system       triclinic
_cell_length_a                    8.592471
_cell_length_b                    10.718389
_cell_length_c                    9.87811
_cell_angle_alpha                 90.231264
_cell_angle_beta                  98.184701
_cell_angle_gamma                 90.215105
_cell_volume                      900.466316014

loop_
_atom_site_label
_atom_site_type_symbol
_atom_type_description
_atom_site_fract_x
_atom_site_fract_y
_atom_site_fract_z
_atom_type_partial_charge
C1    C     C_R   0.492146 0.260357 0.498773 0.868030
C2    C     C_R   0.421425 0.409236 0.918677 0.297206
C3    C     C_3   0.249155 0.384473 0.892308 -0.537708
C4    C     C_R   0.201316 0.500079 0.464324 0.952609
C5    C     C_3   0.249487 0.383366 0.045608 -0.534798
C6    C     C_R   0.501091 0.739725 0.500165 0.906576
C7    C     C_R   0.798499 0.501164 0.535397 0.966129
C8    C     C_2   0.036327 0.498496 0.444638 -0.384769
C9    C     C_2   0.963067 0.505571 0.553894 -0.390393
C10   C     C_R   0.551124 0.066217 0.615915 -0.075003
C11   C     C_R   0.487460 0.128039 0.497255 -0.261655
C12   C     C_R   0.456267 0.933237 0.375495 -0.221287
C13   C     C_R   0.439232 0.060905 0.374902 0.454942
C14   C     C_3   0.752514 0.144824 0.844593 0.150159
C15   C     C_3   0.845495 0.200214 0.973377 -0.820876
C16   C     C_R   0.506144 0.871605 0.498568 -0.163053
C17   C     C_R   0.558697 0.938496 0.617297 0.015446
C18   C     C_3   0.509583 0.928022 0.756314 -0.492358
C19   C     C_3   0.496642 0.069149 0.754708 0.381485
C20   C     C_R   0.421622 0.409038 0.061236 0.296838
C21   C     C_R   0.589222 0.582592 0.083336 -0.147642
C22   C     C_R   0.589271 0.582571 0.939438 -0.148084
H1    H     H_    0.975556 0.490022 0.340535 0.180350
H2    H     H_    0.605478 0.891525 0.833187 0.202225
H3    H     H_    0.372843 0.101191 0.748670 0.094955
H4    H     H_    0.658848 0.650939 0.146454 0.157350
H5    H     H_    0.294599 0.180603 0.284687 0.322167
H6    H     H_    0.760367 0.211059 0.759402 0.160843
H7    H     H_    0.806772 0.054207 0.822694 0.130881
H8    H     H_    0.840097 0.136966 0.061391 0.263148
H9    H     H_    0.970076 0.212434 0.958241 0.208386
H10   H     H_    0.796461 0.292517 0.996082 0.256114
H11   H     H_    0.659004 0.650815 0.894150 0.151150
H12   H     H_    0.183142 0.464597 0.843094 0.211272
H13   H     H_    0.220942 0.292304 0.842702 0.203554
H14   H     H_    0.181689 0.461420 0.082809 0.215697
H15   H     H_    0.222312 0.290025 0.084168 0.228636
H16   H     H_    0.023324 0.515916 0.657220 0.169630
H17   H     H_    0.416031 0.881975 0.282124 0.190124
H18   H     H_    0.394222 0.880225 0.754705 0.180041
N1    N     N_R   0.498950 0.499140 0.142680 -0.122109
N2    N     N_R   0.498950 0.499180 0.857030 -0.119830
O1    O     O_R   0.500020 0.316790 0.614690 -0.615190
O2    O     O_3   0.594357 0.128332 0.865713 -0.581777
O3    O     O_R   0.500000 0.316760 0.385350 -0.589590
O4    O     O_R   0.271760 0.500010 0.587850 -0.618059
O5    O     O_R   0.271740 0.499970 0.358500 -0.635134
O6    O     O_R   0.500000 0.683240 0.614650 -0.618783
O7    O     O_R   0.499980 0.683210 0.385310 -0.632807
O8    O     O_R   0.728260 0.500030 0.641500 -0.629409
O9    O     O_R   0.728240 0.499990 0.412150 -0.612317
O10   O     O_3   0.364591 0.114827 0.257059 -0.756110
Zn1   Zn    Zn3+2 0.500010 0.500020 0.653130 0.942592
Zn2   Zn    Zn3+2 0.499990 0.499980 0.346870 0.950213

loop_
_geom_bond_atom_site_label_1
_geom_bond_atom_site_label_2
_ccdc_geom_bond_type
C21   H4    S    
C15   H9    S    
C5    H15   S    
C13   O10   S    
C1    C11   S    
C3    H13   S    
C10   C19   S    
C4    C8    S    
O9    Zn2   S    
C12   H17   S    
C2    C3    S    
C7    O9    A    
C15   H10   S    
N2    Zn1   S    
C5    C20   S    
C4    O4    A    
C21   C22   A    
C19   O2    S    
C11   C13   A    
C1    O3    A    
C22   N2    A    
C6    O6    A    
C2    N2    A    
O5    Zn2   S    
C21   N1    A    
O4    Zn1   S    
C9    H16   S    
O1    Zn1   S    
O3    Zn2   S    
C17   C18   S    
C6    O7    A    
O6    Zn1   S    
C19   H3    S    
C18   H2    S    
N1    Zn2   S    
O8    Zn1   S    
C10   C11   A    
C14   H7    S    
C2    C20   A    
O7    Zn2   S    
C5    H14   S    
C8    H1    S    
C12   C13   A    
H5    O10   S    
C15   H8    S    
C14   O2    S    
C18   C19   S    
C7    C9    S    
C22   H11   S    
C18   H18   S    
C14   C15   S    
C8    C9    D    
C10   C17   A    
C3    H12   S    
C14   H6    S    
C6    C16   S    
C1    O1    A    
C12   C16   A    
C7    O8    A    
C20   N1    A    
C16   C17   A    
C3    C5    S    
C4    O5    A    
