data_mof_unit_29195.cif
_audit_creation_date              2012-12-10T18:32:46-0500
_audit_creation_method            fapswitch 2.2
_symmetry_space_group_name_H-M    P1
_symmetry_Int_Tables_number       1
_space_group_crystal_system       triclinic
_cell_length_a                    14.988663
_cell_length_b                    15.570645
_cell_length_c                    15.758244
_cell_angle_alpha                 90.093769
_cell_angle_beta                  104.567669
_cell_angle_gamma                 82.333989
_cell_volume                      3525.7087878

loop_
_atom_site_label
_atom_site_type_symbol
_atom_type_description
_atom_site_fract_x
_atom_site_fract_y
_atom_site_fract_z
_atom_type_partial_charge
C1    C     C_R   0.441898 0.661943 0.488842 0.870047
C2    C     C_3   0.435197 0.573769 0.032073 -0.423351
C3    C     C_3   0.500176 0.494541 0.082885 0.205218
C4    C     C_3   0.471459 0.408135 0.041398 -0.219041
C5    C     C_3   0.474801 0.408758 0.943237 -0.253319
C6    C     C_1   0.497735 0.496155 0.173942 -0.048476
C7    C     C_1   0.506017 0.497690 0.826865 -0.030776
C8    C     C_1   0.504096 0.499211 0.751166 -0.111590
C9    C     C_R   0.408100 0.753831 0.493293 -0.063841
C10   C     C_R   0.593060 0.246034 0.531274 -0.060807
C11   C     C_R   0.289638 0.870992 0.506761 -0.169753
C12   C     C_R   0.501100 0.500156 0.661635 0.906844
C13   C     C_R   0.315627 0.783640 0.493147 -0.175329
C14   C     C_R   0.473463 0.811426 0.506776 -0.249132
C15   C     C_R   0.450837 0.897280 0.527233 0.095925
C16   C     C_R   0.356591 0.928143 0.523409 0.160605
C17   C     C_R   0.519254 0.953757 0.547596 0.071099
C18   C     C_R   0.490032 0.043695 0.548385 0.069355
C19   C     C_R   0.395821 0.072955 0.546571 -0.177119
C20   C     C_R   0.330624 0.015555 0.535724 -0.206938
C21   C     C_R   0.615808 0.923207 0.567766 -0.212621
C22   C     C_R   0.681238 0.980281 0.579140 -0.211815
C23   C     C_R   0.558159 0.338075 0.513764 0.871318
C24   C     C_R   0.652240 0.069081 0.567246 0.165853
C25   C     C_R   0.556184 0.101177 0.550465 0.095263
C26   C     C_R   0.717754 0.126244 0.569893 -0.174580
C27   C     C_R   0.688287 0.214661 0.552462 -0.167788
C28   C     C_R   0.528335 0.189264 0.530207 -0.218747
C29   C     C_R   0.836501 0.646459 0.626780 0.088680
C30   C     C_R   0.748092 0.620493 0.601621 0.036123
C31   C     C_R   0.798758 0.507292 0.518099 -0.067839
C32   C     C_R   0.891514 0.525535 0.544248 -0.028068
C33   C     C_R   0.911782 0.596224 0.600736 0.051382
C34   C     C_R   0.498962 0.499697 0.338367 0.901908
C35   C     C_R   0.963088 0.476452 0.513140 0.055084
C36   C     C_R   0.051576 0.504832 0.527238 0.045947
C37   C     C_R   0.071324 0.572404 0.585304 -0.231599
C38   C     C_R   0.005348 0.614368 0.625821 0.005912
C39   C     C_R   0.948996 0.397868 0.470817 -0.203129
C40   C     C_R   0.015122 0.352467 0.433623 -0.011831
C41   C     C_R   0.098443 0.386820 0.437245 0.031975
C42   C     C_R   0.118892 0.461798 0.486002 0.020792
C43   C     C_R   0.161830 0.347521 0.392823 -0.264013
C44   C     C_R   0.247246 0.376629 0.401292 0.113832
C45   C     C_3   0.433075 0.569981 0.933905 -0.423590
C46   C     C_R   0.206187 0.490567 0.490909 -0.052159
C47   C     C_3   0.605912 0.509515 0.979660 -0.026102
C48   C     C_3   0.601265 0.500113 0.077452 -0.468812
C49   C     C_1   0.497299 0.497781 0.249110 -0.152100
C50   C     C_3   0.507374 0.495393 0.919054 0.118471
H1    H     H_    0.460806 0.634750 0.058681 0.186806
H2    H     H_    0.362295 0.559346 0.895702 0.186109
H3    H     H_    0.363413 0.575933 0.040362 0.176810
H4    H     H_    0.522752 0.354055 0.078574 0.167382
H5    H     H_    0.259180 0.040114 0.534682 0.152762
H6    H     H_    0.455467 0.214373 0.509920 0.173988
H7    H     H_    0.739554 0.258005 0.554459 0.165162
H8    H     H_    0.754530 0.954582 0.593967 0.155644
H9    H     H_    0.217643 0.893685 0.505135 0.151957
H10   H     H_    0.263996 0.739645 0.483360 0.165460
H11   H     H_    0.542216 0.788282 0.499823 0.160431
H12   H     H_    0.444797 0.633786 0.910205 0.195588
H13   H     H_    0.371112 0.139674 0.556176 0.157078
H14   H     H_    0.642778 0.855266 0.577350 0.143128
H15   H     H_    0.791438 0.102377 0.584016 0.149407
H16   H     H_    0.227404 0.546390 0.526737 0.133404
H17   H     H_    0.690574 0.655552 0.622838 0.149882
H18   H     H_    0.776648 0.458789 0.471689 0.143420
H19   H     H_    0.140728 0.589385 0.606004 0.170686
H20   H     H_    0.888494 0.367312 0.470405 0.172377
H21   H     H_    0.145481 0.294171 0.350442 0.181708
H22   H     H_    0.628603 0.554722 0.116934 0.172177
H23   H     H_    0.646514 0.440648 0.110206 0.208436
H24   H     H_    0.403038 0.407746 0.900773 0.179388
N1    N     N_R   0.731690 0.552720 0.548990 -0.124325
N2    N     N_R   0.268300 0.447240 0.450950 -0.144521
O1    O     O_R   0.383120 0.605620 0.475300 -0.619687
O2    O     O_R   0.531890 0.639510 0.506740 -0.629132
O3    O     O_R   0.425580 0.483050 0.607130 -0.610409
O4    O     O_R   0.574360 0.516930 0.638570 -0.601210
O5    O     O_R   0.468110 0.360490 0.493260 -0.648603
O6    O     O_R   0.616880 0.394380 0.524700 -0.615658
O7    O     O_R   0.425640 0.483070 0.361430 -0.643414
O8    O     O_R   0.574420 0.516950 0.392870 -0.604381
Zn1   Zn    Zn3+2 0.400660 0.477370 0.479010 0.943180
Zn2   Zn    Zn3+2 0.599340 0.522630 0.520990 0.960352
C51   C     C_2   0.041130 0.669782 0.699723 0.388621
H25   H     H_    0.020999 0.664854 0.760651 0.080446
O9    O     O_2   0.096506 0.719097 0.694292 -0.565143
C52   C     C_2   0.313411 0.327328 0.356979 0.425389
H26   H     H_    0.370998 0.354090 0.344219 0.140424
O10   O     O_2   0.303779 0.253696 0.333023 -0.573028
C53   C     C_2   0.996208 0.267274 0.394749 0.405583
H27   H     H_    0.052565 0.217469 0.390414 0.067833
O11   O     O_2   0.916589 0.250942 0.368456 -0.553435
C54   C     C_3   0.843379 0.730530 0.674534 -0.914562
H28   H     H_    0.773706 0.767876 0.669450 0.233037
H29   H     H_    0.875199 0.717588 0.745523 0.250078
H30   H     H_    0.882343 0.773056 0.645282 0.258923
C55   C     C_2   0.685159 0.445337 0.962938 0.428230
H31   H     H_    0.676519 0.410896 0.902139 0.074559
O12   O     O_2   0.761775 0.435895 0.014899 -0.544250
C56   C     C_2   0.627919 0.599817 0.962321 0.450138
H32   H     H_    0.619156 0.651796 0.006752 0.063217
O13   O     O_2   0.651536 0.616529 0.896078 -0.566578
C57   C     C_2   0.532393 0.327383 0.923472 0.400336
H33   H     H_    0.600483 0.305038 0.966191 0.077513
O14   O     O_2   0.501995 0.284864 0.860164 -0.542883
C58   C     C_2   0.376365 0.392681 0.049791 0.442467
H34   H     H_    0.314614 0.435875 0.016263 0.064562
O15   O     O_2   0.368175 0.331211 0.093887 -0.530222

loop_
_geom_bond_atom_site_label_1
_geom_bond_atom_site_label_2
_ccdc_geom_bond_type
C10   C27   A    
C51   H25   S    
C54   H30   S    
C53   H27   S    
C23   O6    A    
C37   H19   S    
C1    O1    A    
C41   C42   A    
C45   H12   S    
C36   C42   A    
C19   C20   A    
C40   C53   S    
C9    C14   A    
C3    C6    S    
C46   N2    A    
C28   H6    S    
C7    C8    T    
C13   H10   S    
C25   C28   A    
C26   C27   A    
C37   C38   A    
C36   C37   A    
C24   C26   A    
C46   H16   S    
C58   O15   D    
C57   H33   S    
C15   C16   A    
C12   O3    A    
C29   C33   A    
C3    C48   S    
C18   C19   A    
C42   C46   A    
C5    H24   S    
C44   N2    A    
C9    C13   A    
C21   H14   S    
O4    Zn2   S    
C31   N1    A    
C35   C36   A    
C19   H13   S    
C54   H29   S    
C30   H17   S    
C16   C20   A    
O2    Zn2   S    
O1    Zn1   S    
C53   O11   D    
C21   C22   A    
C1    O2    A    
C41   C43   A    
C18   C25   A    
C34   O8    A    
C48   H22   S    
C20   H5    S    
C11   H9    S    
C47   C50   S    
C5    C57   S    
C2    C45   S    
C31   H18   S    
C47   C56   S    
C32   C35   A    
C1    C9    S    
C24   C25   A    
C27   H7    S    
C39   C40   A    
C45   H2    S    
O6    Zn2   S    
C14   H11   S    
C17   C21   A    
C47   C55   S    
C35   C39   A    
C43   C44   A    
C29   C30   A    
C11   C16   A    
N1    Zn2   S    
C52   O10   D    
C47   C48   S    
C8    C12   S    
C54   H28   S    
C55   O12   D    
C17   C18   A    
C56   O13   D    
C40   C41   A    
O7    Zn1   S    
C51   O9    D    
C22   C24   A    
C5    C50   S    
C34   O7    A    
C3    C4    S    
O3    Zn1   S    
C44   C52   S    
C10   C28   A    
C15   C17   A    
C34   C49   S    
C43   H21   S    
C23   O5    A    
C4    H4    S    
C26   H15   S    
C48   H23   S    
C31   C32   A    
C7    C50   S    
O8    Zn2   S    
C4    C5    S    
C2    H3    S    
C22   H8    S    
C29   C54   S    
C10   C23   S    
C4    C58   S    
C33   C38   A    
C38   C51   S    
C32   C33   A    
C2    C3    S    
C58   H34   S    
C30   N1    A    
C11   C13   A    
C52   H26   S    
C57   O14   D    
C45   C50   S    
C12   O4    A    
C55   H31   S    
C39   H20   S    
C6    C49   T    
C2    H1    S    
C56   H32   S    
C14   C15   A    
N2    Zn1   S    
O5    Zn1   S    
