data_mof_unit_47347.cif
_audit_creation_date              2012-10-26T18:43:50-0400
_audit_creation_method            fapswitch 2.2
_symmetry_space_group_name_H-M    P1
_symmetry_Int_Tables_number       1
_space_group_crystal_system       triclinic
_cell_length_a                    9.542334
_cell_length_b                    10.83751
_cell_length_c                    17.360387
_cell_angle_alpha                 90.327988
_cell_angle_beta                  85.984355
_cell_angle_gamma                 90.484171
_cell_volume                      1790.83161446

loop_
_atom_site_label
_atom_site_type_symbol
_atom_type_description
_atom_site_fract_x
_atom_site_fract_y
_atom_site_fract_z
_atom_type_partial_charge
C1    C     C_R   0.500362 0.737603 0.501857 0.549646
C2    C     C_R   0.526720 0.497868 0.265635 0.014724
C3    C     C_R   0.374461 0.934755 0.516504 0.021942
C4    C     C_R   0.481669 0.502090 0.649867 0.546635
C5    C     C_R   0.500719 0.870513 0.510249 0.007462
C6    C     C_R   0.627184 0.936674 0.514913 -0.162530
C7    C     C_R   0.626501 0.065382 0.514392 -0.161551
C8    C     C_R   0.499374 0.128906 0.509158 0.007814
C9    C     C_R   0.373586 0.061802 0.515927 0.024354
C10   C     C_3   0.249515 0.064280 0.468085 -0.278072
C11   C     C_3   0.250315 0.924447 0.469193 -0.262536
C12   C     C_R   0.340971 0.500852 0.775932 -0.115102
C13   C     C_R   0.934242 0.470748 0.434513 0.160267
C14   C     C_R   0.918205 0.541827 0.562031 -0.017484
C15   C     C_R   0.066928 0.541614 0.562096 -0.017812
C16   C     C_R   0.499556 0.262165 0.501337 0.550304
C17   C     C_R   0.081674 0.471656 0.434289 0.157738
C18   C     C_3   0.091863 0.353574 0.390069 -0.281073
C19   C     C_3   0.932799 0.352058 0.390901 -0.275020
C20   C     C_R   0.518209 0.499785 0.350082 0.544633
C21   C     C_R   0.471685 0.510870 0.734119 0.003040
C22   C     C_R   0.593011 0.532992 0.773051 -0.138756
C23   C     C_R   0.408093 0.496132 0.147093 -0.109518
C24   C     C_R   0.584223 0.544603 0.852678 -0.126089
C25   C     C_R   0.454344 0.532321 0.895175 0.059507
C26   C     C_R   0.330734 0.510408 0.856489 0.020907
C27   C     C_3   0.187520 0.492751 0.897793 -0.412602
C28   C     C_R   0.402577 0.500456 0.226974 -0.134818
C29   C     C_R   0.656959 0.491353 0.222955 -0.131663
C30   C     C_R   0.662456 0.487144 0.142575 -0.116698
C31   C     C_R   0.538215 0.491217 0.104327 0.044220
C32   C     C_2   0.450294 0.543278 0.979459 -0.136541
C33   C     C_2   0.545921 0.487248 0.019807 -0.141106
Cu1   Cu    Cu3+1 0.359330 0.500020 0.500000 0.936344
Cu2   Cu    Cu3+1 0.640670 0.499980 0.500000 0.935741
H1    H     H_    0.694897 0.542995 0.742009 0.118470
H2    H     H_    0.115959 0.573910 0.612803 0.114960
H3    H     H_    0.144040 0.365337 0.331350 0.117773
H4    H     H_    0.300646 0.505405 0.258285 0.119359
H5    H     H_    0.893724 0.363050 0.332597 0.119235
H6    H     H_    0.883158 0.275357 0.425535 0.145230
H7    H     H_    0.754173 0.489473 0.251468 0.116358
H8    H     H_    0.632279 0.437294 0.990192 0.118121
H9    H     H_    0.246583 0.483942 0.746050 0.120050
H10   H     H_    0.366415 0.596516 0.008585 0.119557
H11   H     H_    0.679433 0.564365 0.881136 0.104514
H12   H     H_    0.763554 0.482182 0.110203 0.097655
H13   H     H_    0.133928 0.278589 0.424225 0.144856
H14   H     H_    0.189784 0.487967 0.961364 0.123656
H15   H     H_    0.118347 0.569902 0.883329 0.122509
H16   H     H_    0.140371 0.404757 0.878531 0.128242
H17   H     H_    0.310152 0.494674 0.119193 0.097645
H18   H     H_    0.726945 0.889718 0.514823 0.134769
H19   H     H_    0.725977 0.114282 0.514161 0.131014
H20   H     H_    0.155415 0.103519 0.500428 0.133187
H21   H     H_    0.275593 0.102779 0.409537 0.131658
H22   H     H_    0.157393 0.883745 0.502305 0.139154
H23   H     H_    0.276242 0.882302 0.411431 0.142802
H24   H     H_    0.856978 0.574488 0.612654 0.111900
N1    N     N_R   0.852130 0.499070 0.499500 -0.231975
N2    N     N_R   0.148040 0.499110 0.499500 -0.232224
O1    O     O_R   0.381190 0.680360 0.500000 -0.499655
O2    O     O_R   0.618770 0.680320 0.499990 -0.506513
O3    O     O_R   0.367430 0.500040 0.613600 -0.516076
O4    O     O_R   0.605020 0.500000 0.613590 -0.513791
O5    O     O_R   0.381230 0.319680 0.500010 -0.497661
O6    O     O_R   0.618810 0.319640 0.500000 -0.507892
O7    O     O_R   0.394980 0.500000 0.386410 -0.508667
O8    O     O_R   0.632570 0.499960 0.386400 -0.504529

loop_
_geom_bond_atom_site_label_1
_geom_bond_atom_site_label_2
_ccdc_geom_bond_type
C26   C27   S    
C2    C28   A    
C31   C33   S    
C6    C7    A    
C14   H24   S    
Cu2   O6    S    
C29   H7    S    
C11   H23   S    
C14   N1    A    
C9    C10   S    
C4    O3    A    
C22   H1    S    
C14   C15   A    
C27   H15   S    
C13   C17   A    
C24   H11   S    
C32   C33   D    
Cu1   O5    S    
C25   C32   S    
Cu1   O3    S    
C17   C18   S    
C18   H3    S    
C7    C8    A    
C12   H9    S    
C16   O6    A    
C11   H22   S    
C21   C22   A    
C1    O1    A    
C28   H4    S    
C4    C21   S    
C23   H17   S    
C29   C30   A    
C2    C29   A    
C3    C9    A    
C5    C6    A    
C1    O2    A    
C10   H21   S    
C27   H16   S    
Cu1   Cu2   S    
C19   H5    S    
C15   N2    A    
C30   C31   A    
C22   C24   A    
C20   O8    A    
C10   H20   S    
C3    C11   S    
C10   C11   S    
Cu2   O4    S    
C6    H18   S    
C2    C20   S    
C23   C31   A    
C33   H8    S    
Cu1   O1    S    
C19   H6    S    
C30   H12   S    
C1    C5    S    
C16   O5    A    
C24   C25   A    
Cu2   O8    S    
C8    C9    A    
C8    C16   S    
C18   C19   S    
C32   H10   S    
Cu1   O7    S    
C13   N1    A    
C13   C19   S    
C4    O4    A    
C15   H2    S    
Cu2   O2    S    
C7    H19   S    
C17   N2    A    
C25   C26   A    
C23   C28   A    
C12   C21   A    
C20   O7    A    
Cu1   N2    S    
C27   H14   S    
C12   C26   A    
Cu2   N1    S    
C3    C5    A    
C18   H13   S    
