data_mof_unit_28510.cif
_audit_creation_date              2012-12-11T15:34:59-0500
_audit_creation_method            fapswitch 2.2
_symmetry_space_group_name_H-M    P1
_symmetry_Int_Tables_number       1
_space_group_crystal_system       triclinic
_cell_length_a                    30.523309
_cell_length_b                    7.25645
_cell_length_c                    26.152877
_cell_angle_alpha                 89.999815
_cell_angle_beta                  111.870201
_cell_angle_gamma                 90.000099
_cell_volume                      5375.72893208

loop_
_atom_site_label
_atom_site_type_symbol
_atom_type_description
_atom_site_fract_x
_atom_site_fract_y
_atom_site_fract_z
_atom_type_partial_charge
O1    O     O_R   0.295360 0.592990 0.320420 -0.533306
O2    O     O_R   0.704640 0.407010 0.679580 -0.535600
O3    O     O_R   0.204640 0.092990 0.179580 -0.533306
O4    O     O_R   0.795360 0.907010 0.820420 -0.535601
O5    O     O_R   0.294060 0.265620 0.213230 -0.537771
O6    O     O_R   0.705940 0.734380 0.786770 -0.541442
O7    O     O_R   0.205940 0.765620 0.286770 -0.537771
O8    O     O_R   0.794060 0.234380 0.713230 -0.541442
C1    C     C_R   0.304526 0.432010 0.199927 0.732227
C2    C     C_R   0.695522 0.567277 0.800110 0.732120
C3    C     C_R   0.195474 0.932010 0.300073 0.732227
C4    C     C_R   0.804478 0.067278 0.699890 0.732122
O9    O     O_R   0.300850 0.263360 0.322080 -0.537950
O10   O     O_R   0.699150 0.736640 0.677920 -0.535923
O11   O     O_R   0.199150 0.763360 0.177920 -0.537949
O12   O     O_R   0.800850 0.236640 0.822080 -0.535923
O13   O     O_R   0.211480 0.091820 0.289210 -0.538175
O14   O     O_R   0.788520 0.908180 0.710790 -0.533663
O15   O     O_R   0.288520 0.591820 0.210790 -0.538176
O16   O     O_R   0.711480 0.408180 0.789210 -0.533664
C5    C     C_R   0.313299 0.432087 0.342932 0.699867
C6    C     C_R   0.686540 0.568437 0.657068 0.700357
C7    C     C_R   0.186701 0.932087 0.157068 0.699868
C8    C     C_R   0.813460 0.068437 0.842932 0.700354
O17   O     O_3   0.220670 0.426670 0.239090 -0.376241
O18   O     O_3   0.779330 0.573330 0.760910 -0.377681
O19   O     O_3   0.279330 0.926670 0.260910 -0.376241
O20   O     O_3   0.720670 0.073330 0.739090 -0.377680
V1    V     V_3+5 0.255440 0.152290 0.252020 1.400935
V2    V     V_3+5 0.744560 0.847710 0.747980 1.396387
V3    V     V_3+5 0.244560 0.652290 0.247980 1.400935
V4    V     V_3+5 0.755440 0.347710 0.752020 1.396386
C9    C     C_R   0.850991 0.064311 0.898727 -0.044082
C10   C     C_R   0.149730 0.945346 0.101236 -0.040138
C11   C     C_R   0.649009 0.564311 0.601273 -0.044080
C12   C     C_R   0.350269 0.445346 0.398764 -0.040137
C13   C     C_R   0.873882 0.139006 0.995387 -0.156242
C14   C     C_R   0.130861 0.013224 0.004860 -0.155000
C15   C     C_R   0.626120 0.638981 0.504611 -0.156242
C16   C     C_R   0.369139 0.513246 0.495138 -0.155002
C17   C     C_R   0.839953 0.133477 0.942310 -0.198755
C18   C     C_R   0.163997 0.989047 0.057812 -0.200346
C19   C     C_R   0.660048 0.633463 0.557689 -0.198756
C20   C     C_R   0.336003 0.489059 0.442187 -0.200343
C21   C     C_R   0.897706 0.003316 0.908538 0.096811
C22   C     C_R   0.100902 0.928511 0.091485 0.098332
C23   C     C_R   0.602293 0.503321 0.591462 0.096811
C24   C     C_R   0.399098 0.428506 0.408516 0.098332
C25   C     C_R   0.934457 0.036578 0.961313 0.076523
C26   C     C_R   0.066532 0.981932 0.038896 0.076309
C27   C     C_R   0.565543 0.536577 0.538687 0.076526
C28   C     C_R   0.433468 0.481934 0.461104 0.076310
C29   C     C_R   0.920799 0.091320 0.005328 0.102266
C30   C     C_R   0.082517 0.010595 0.994994 0.101745
C31   C     C_R   0.579202 0.591301 0.494671 0.102264
C32   C     C_R   0.417483 0.510612 0.505005 0.101744
C33   C     C_R   0.984136 0.022849 0.972358 0.058945
C34   C     C_R   0.017353 0.013325 0.027947 0.059287
C35   C     C_R   0.515864 0.522854 0.527641 0.058945
C36   C     C_R   0.482647 0.513320 0.472052 0.059288
C37   C     C_R   0.001462 0.063022 0.070162 -0.193353
C38   C     C_R   0.002073 0.046454 0.930372 -0.193574
C39   C     C_R   0.498539 0.563000 0.429836 -0.193355
C40   C     C_R   0.497927 0.546476 0.569626 -0.193577
C41   C     C_R   0.954337 0.104438 0.058877 -0.182568
C42   C     C_R   0.050257 0.043159 0.941646 -0.181779
C43   C     C_R   0.545664 0.604409 0.441122 -0.182568
C44   C     C_R   0.449743 0.543186 0.558351 -0.181780
H1    H     H_    0.944112 0.148687 0.092446 0.135506
H2    H     H_    0.062414 0.068152 0.908239 0.135991
H3    H     H_    0.555890 0.648645 0.407552 0.135507
H4    H     H_    0.437586 0.568191 0.591758 0.135992
H5    H     H_    0.201194 0.001092 0.064843 0.123886
H6    H     H_    0.804389 0.179256 0.935365 0.127388
H7    H     H_    0.298806 0.501109 0.435156 0.123886
H8    H     H_    0.695612 0.679235 0.564634 0.127388
H9    H     H_    0.863659 0.186520 0.028646 0.133338
H10   H     H_    0.143156 0.040542 0.971693 0.133679
H11   H     H_    0.636343 0.686482 0.471353 0.133339
H12   H     H_    0.356844 0.540575 0.528304 0.133679
H13   H     H_    0.025788 0.086289 0.111822 0.153463
H14   H     H_    0.979456 0.083413 0.888973 0.153537
H15   H     H_    0.474214 0.586260 0.388176 0.153463
H16   H     H_    0.520545 0.583443 0.611024 0.153538
C45   C     C_R   0.094387 0.978334 0.482322 0.638343
C46   C     C_R   0.906376 0.035311 0.518570 0.633136
C47   C     C_R   0.405613 0.478337 0.017679 0.638342
C48   C     C_R   0.593624 0.535308 0.981431 0.633136
N1    N     N_R   0.075141 0.987679 0.425887 -0.537599
N2    N     N_R   0.925957 0.048573 0.574921 -0.539130
N3    N     N_R   0.424860 0.487680 0.074113 -0.537600
N4    N     N_R   0.574043 0.548572 0.925079 -0.539128
C49   C     C_R   0.027481 0.007537 0.398586 0.569303
C50   C     C_R   0.973911 0.049723 0.602122 0.566067
C51   C     C_R   0.472520 0.507536 0.101415 0.569303
C52   C     C_R   0.526090 0.549725 0.897878 0.566072
C53   C     C_R   0.997054 0.015761 0.427773 -0.057614
C54   C     C_R   0.004220 0.033541 0.572965 -0.057385
C55   C     C_R   0.502947 0.515759 0.072228 -0.057614
C56   C     C_R   0.495781 0.533544 0.927035 -0.057386
C57   C     C_R   0.015997 0.013975 0.485713 -0.047293
C58   C     C_R   0.985150 0.026641 0.515064 -0.047114
C59   C     C_R   0.484004 0.513976 0.014288 -0.047293
C60   C     C_R   0.514850 0.526641 0.984937 -0.047114
C61   C     C_R   0.065621 0.999176 0.514150 -0.051757
C62   C     C_R   0.935389 0.031928 0.486669 -0.052374
C63   C     C_R   0.434379 0.499181 0.985850 -0.051757
C64   C     C_R   0.564612 0.531924 0.013331 -0.052373
C65   C     C_R   0.948076 0.026631 0.399706 -0.130910
C66   C     C_R   0.053222 0.024529 0.601028 -0.130834
C67   C     C_R   0.551924 0.526626 0.100295 -0.130910
C68   C     C_R   0.446778 0.524536 0.898973 -0.130834
C69   C     C_R   0.916965 0.032892 0.427871 0.128009
C70   C     C_R   0.084151 0.005679 0.572919 0.128116
C71   C     C_R   0.583035 0.532885 0.072130 0.128009
C72   C     C_R   0.415849 0.505687 0.927082 0.128116
O21   O     O_2   0.141026 0.945821 0.507039 -0.514698
O22   O     O_2   0.859094 0.021771 0.494030 -0.512453
O23   O     O_2   0.358974 0.445824 0.992961 -0.514699
O24   O     O_2   0.640907 0.521768 0.005971 -0.512454
O25   O     O_2   0.009467 0.019932 0.343092 -0.530901
O26   O     O_2   0.992339 0.066548 0.657505 -0.530870
O27   O     O_2   0.490533 0.519930 0.156908 -0.530902
O28   O     O_2   0.507662 0.566553 0.842495 -0.530869
H17   H     H_    0.933690 0.028394 0.355058 0.168374
H18   H     H_    0.067715 0.030243 0.645645 0.168371
H19   H     H_    0.566311 0.528386 0.144942 0.168374
H20   H     H_    0.432285 0.530252 0.854356 0.168371
C73   C     C_R   0.898655 0.914436 0.644421 -0.194417
C74   C     C_R   0.098672 0.829044 0.356611 -0.193938
C75   C     C_R   0.601345 0.414436 0.855580 -0.194420
C76   C     C_R   0.401328 0.329045 0.143389 -0.193938
H21   H     H_    0.923987 0.804773 0.649580 0.145382
H22   H     H_    0.070930 0.729846 0.351972 0.150767
H23   H     H_    0.576012 0.304774 0.850420 0.145383
H24   H     H_    0.429070 0.229846 0.148029 0.150767
C77   C     C_R   0.868803 0.910953 0.674345 0.103879
C78   C     C_R   0.127301 0.810159 0.325421 0.104338
C79   C     C_R   0.631197 0.410953 0.825655 0.103877
C80   C     C_R   0.372699 0.310159 0.174579 0.104337
C81   C     C_R   0.836548 0.058411 0.668513 -0.113471
C82   C     C_R   0.163586 0.941353 0.331695 -0.114741
C83   C     C_R   0.663452 0.558410 0.831488 -0.113469
C84   C     C_R   0.336414 0.441354 0.168305 -0.114741
C85   C     C_R   0.834355 0.200634 0.630962 -0.328224
C86   C     C_R   0.169871 0.086398 0.369599 -0.328525
C87   C     C_R   0.665645 0.700633 0.869038 -0.328229
C88   C     C_R   0.330129 0.586400 0.130401 -0.328523
H25   H     H_    0.808912 0.310914 0.624410 0.150326
H26   H     H_    0.198129 0.184887 0.376220 0.149807
H27   H     H_    0.691089 0.810912 0.875590 0.150323
H28   H     H_    0.301871 0.684889 0.123780 0.149806
C89   C     C_R   0.863381 0.199205 0.599851 0.522892
C90   C     C_R   0.140943 0.104070 0.400514 0.518335
C91   C     C_R   0.636620 0.699204 0.900149 0.522893
C92   C     C_R   0.359057 0.604072 0.099486 0.518335
C93   C     C_R   0.895700 0.054517 0.606487 0.255848
C94   C     C_R   0.105389 0.973104 0.394459 0.254803
C95   C     C_R   0.604300 0.554516 0.893514 0.255852
C96   C     C_R   0.394612 0.473105 0.105542 0.254802
O29   O     O_3   0.857868 0.330977 0.559742 -0.528791
C97   C     C_3   0.876571 0.499106 0.585344 -0.230074
H29   H     H_    0.913515 0.483004 0.615364 0.129104
H30   H     H_    0.853735 0.559447 0.605588 0.142840
H31   H     H_    0.877331 0.597697 0.553257 0.185538
O30   O     O_3   0.149281 0.241208 0.439773 -0.531689
C98   C     C_3   0.137021 0.413088 0.413292 -0.220161
H32   H     H_    0.101141 0.410532 0.380238 0.128462
H33   H     H_    0.163828 0.458330 0.396614 0.137488
H34   H     H_    0.136441 0.516983 0.444155 0.186948
O31   O     O_3   0.642132 0.830976 0.940258 -0.528793
C99   C     C_3   0.623435 0.999112 0.914656 -0.230063
H35   H     H_    0.586493 0.983021 0.884630 0.129097
H36   H     H_    0.646276 0.059450 0.894419 0.142841
H37   H     H_    0.622671 0.097699 0.946742 0.185537
O32   O     O_3   0.350719 0.741210 0.060227 -0.531690
C100  C     C_3   0.362981 0.913089 0.086708 -0.220161
H38   H     H_    0.398862 0.910529 0.119762 0.128461
H39   H     H_    0.336174 0.958336 0.103386 0.137490
H40   H     H_    0.363562 0.016983 0.055845 0.186948
C101  C     C_3   0.087452 0.831811 0.134706 -0.822183
H41   H     H_    0.093195 0.925206 0.170247 0.195365
H42   H     H_    0.050612 0.780478 0.118212 0.225942
H43   H     H_    0.109452 0.706561 0.149233 0.220035
C102  C     C_3   0.905594 0.886760 0.864878 -0.817970
H44   H     H_    0.905306 0.976214 0.830351 0.192737
H45   H     H_    0.938766 0.806142 0.881213 0.223866
H46   H     H_    0.877421 0.781381 0.849211 0.227585
C103  C     C_3   0.412547 0.331796 0.365296 -0.822184
H47   H     H_    0.406806 0.425185 0.329755 0.195364
H48   H     H_    0.449387 0.280457 0.381792 0.225942
H49   H     H_    0.390547 0.206549 0.350770 0.220039
C104  C     C_3   0.594405 0.386776 0.635124 -0.817976
H50   H     H_    0.594694 0.476235 0.669650 0.192739
H51   H     H_    0.561232 0.306163 0.618791 0.223868
H52   H     H_    0.622577 0.281394 0.650792 0.227583
C105  C     C_3   0.864843 0.044548 0.393309 -0.656960
H53   H     H_    0.846477 0.919676 0.399646 0.235729
H54   H     H_    0.849575 0.170775 0.404057 0.239890
H55   H     H_    0.857902 0.052406 0.348542 0.178245
C106  C     C_3   0.136321 0.997293 0.607474 -0.657987
H56   H     H_    0.155086 0.111129 0.595843 0.240246
H57   H     H_    0.143599 0.012832 0.652155 0.178225
H58   H     H_    0.150896 0.861722 0.602102 0.235095
C107  C     C_3   0.635158 0.544535 0.106692 -0.656960
H59   H     H_    0.650427 0.670763 0.095945 0.239890
H60   H     H_    0.642098 0.552385 0.151459 0.178245
H61   H     H_    0.653523 0.419663 0.100353 0.235730
C108  C     C_3   0.363679 0.497308 0.892526 -0.657987
H62   H     H_    0.344915 0.611142 0.904159 0.240247
H63   H     H_    0.356401 0.512855 0.847846 0.178226
H64   H     H_    0.349104 0.361736 0.897897 0.235095
C109  C     C_3   0.872131 0.747621 0.711255 -0.720156
H65   H     H_    0.876659 0.794402 0.753079 0.208197
H66   H     H_    0.839682 0.662622 0.694038 0.214502
H67   H     H_    0.902595 0.657463 0.715010 0.193714
C110  C     C_3   0.117629 0.651033 0.285644 -0.729986
H68   H     H_    0.112781 0.702216 0.244067 0.208116
H69   H     H_    0.147296 0.551304 0.299662 0.211558
H70   H     H_    0.085059 0.575226 0.282306 0.199372
C111  C     C_3   0.627869 0.247622 0.788745 -0.720158
H71   H     H_    0.623339 0.294404 0.746921 0.208198
H72   H     H_    0.660318 0.162623 0.805962 0.214501
H73   H     H_    0.597405 0.157463 0.784991 0.193716
C112  C     C_3   0.382370 0.151031 0.214356 -0.729984
H74   H     H_    0.387217 0.202212 0.255933 0.208116
H75   H     H_    0.352703 0.051302 0.200337 0.211558
H76   H     H_    0.414941 0.075226 0.217695 0.199372

loop_
_geom_bond_atom_site_label_1
_geom_bond_atom_site_label_2
_ccdc_geom_bond_type
O17   V3    S    
C105  H55   S    
C55   C59   A    
O31   C99   S    
C25   C29   A    
O1    C5    A    
C57   C58   A    
C54   C66   A    
C47   N3    A    
O19   V1    S    
O13   V1    S    
C106  H56   S    
C82   C86   A    
O3    C7    A    
C10   C18   A    
C56   C60   A    
C84   C88   A    
C11   C23   A    
C108  H64   S    
C73   C93   A    
O29   C97   S    
C102  H44   S    
C25   C33   A    
C33   C38   A    
C98   H33   S    
C5    C12   S    
C46   C62   A    
C109  H65   S    
C110  H70   S    
O7    C3    A    
C6    C11   S    
C109  H67   S    
C80   C112  S    
C76   C96   A    
C36   C39   A    
C40   C44   A    
C64   C71   A    
O9    V1    S    
C49   O25   S    
C14   C18   A    
C111  H73   S    
C75   H23   S    
N1    C94   S    
O4    C8    A    
C51   C55   A    
C102  H45   S    
C43   H3    S    
C50   C54   A    
C101  H41   S    
C60   C64   A    
O1    V3    S    
C112  H76   S    
C9    C21   A    
C4    C81   S    
O2    V4    S    
O3    V1    S    
C111  H71   S    
C40   H16   S    
C46   N2    A    
C28   C36   A    
C24   C103  S    
C17   H6    S    
C86   H26   S    
C79   C83   A    
C1    O15   A    
C15   C31   A    
C48   N4    A    
C103  H49   S    
C2    O16   A    
C16   C32   A    
C86   C90   A    
O2    C6    A    
C77   C109  S    
C16   H12   S    
C58   C62   A    
C10   C22   A    
C48   O24   S    
C11   C19   A    
C66   C70   A    
C110  H69   S    
C97   H30   S    
C104  H50   S    
C99   H37   S    
C76   H24   S    
C13   C29   A    
C79   C111  S    
C34   C37   A    
O11   C7    A    
C38   H14   S    
O15   V3    S    
C35   C36   A    
O12   C8    A    
C13   C17   A    
C106  H57   S    
C74   H22   S    
O10   V2    S    
C45   C61   A    
C1    C84   S    
C99   H36   S    
N2    C50   A    
C98   H34   S    
O5    V1    S    
C109  H66   S    
N4    C52   A    
C57   C61   A    
C112  H75   S    
C39   C43   A    
O7    V3    S    
C38   C42   A    
C62   C69   A    
C91   C95   A    
C26   C34   A    
C88   H28   S    
C61   C70   A    
C92   C96   A    
C78   C110  S    
C78   C82   A    
C101  H42   S    
C98   H32   S    
C45   N1    A    
O18   V4    S    
C102  H46   S    
C15   C19   A    
C14   H10   S    
C104  H51   S    
C110  H68   S    
C32   C44   A    
C13   H9    S    
C27   C35   A    
O4    V2    S    
C73   C77   A    
C89   O29   S    
C44   H4    S    
O8    V4    S    
C20   H7    S    
C87   H27   S    
C47   O23   S    
C72   C108  S    
C107  H59   S    
C37   C41   A    
C18   H5    S    
C97   H31   S    
C53   C65   A    
C31   C43   A    
C14   C30   A    
C21   C25   A    
O8    C4    A    
C100  H40   S    
C55   C67   A    
C108  H62   S    
C35   C40   A    
C70   C106  S    
O9    C5    A    
C103  H47   S    
C46   O22   S    
C26   C30   A    
C105  H54   S    
C75   C95   A    
N3    C96   S    
C66   H18   S    
C73   H21   S    
C50   O26   S    
C52   O28   S    
C65   H17   S    
O32   C100  S    
O6    V2    S    
C16   C20   A    
C56   C68   A    
N4    C95   S    
C67   H19   S    
O30   C98   S    
C106  H58   S    
C12   C20   A    
C45   O21   S    
C76   C80   A    
C74   C78   A    
C49   C53   A    
C83   C87   A    
C68   C72   A    
C29   C41   A    
C99   H35   S    
C22   C101  S    
C59   C63   A    
C97   H29   S    
O16   V4    S    
C107  H61   S    
C51   O27   S    
C19   H8    S    
C77   C81   A    
C92   O32   S    
C7    C10   S    
N1    C49   A    
C101  H43   S    
C112  H74   S    
C23   C104  S    
C80   C84   A    
O5    C1    A    
C3    O13   A    
O6    C2    A    
C23   C27   A    
O11   V3    S    
C30   C42   A    
C65   C69   A    
C87   C91   A    
O12   V4    S    
C22   C26   A    
C39   H15   S    
C8    C9    S    
C74   C94   A    
C9    C17   A    
O10   C6    A    
N2    C93   S    
C71   C107  S    
C85   C89   A    
C111  H72   S    
C54   C58   A    
C104  H52   S    
C21   C102  S    
C33   C34   A    
C42   H2    S    
C41   H1    S    
C52   C56   A    
O20   V2    S    
C81   C85   A    
C108  H63   S    
C100  H39   S    
C12   C24   A    
C27   C31   A    
C2    C83   S    
C89   C93   A    
C105  H53   S    
C3    C82   S    
C85   H25   S    
C63   C72   A    
C68   H20   S    
C75   C79   A    
O14   V2    S    
N3    C51   A    
C48   C64   A    
C91   O31   S    
C24   C28   A    
C47   C63   A    
C67   C71   A    
C100  H38   S    
C4    O14   A    
C59   C60   A    
C90   C94   A    
C69   C105  S    
C90   O30   S    
C37   H13   S    
C88   C92   A    
C103  H48   S    
C107  H60   S    
C53   C57   A    
C28   C32   A    
C15   H11   S    
