data_mof_unit_44827.cif
_audit_creation_date              2013-03-05T15:51:45-0500
_audit_creation_method            fapswitch 2.2
_symmetry_space_group_name_H-M    P1
_symmetry_Int_Tables_number       1
_space_group_crystal_system       triclinic
_cell_length_a                    7.248126
_cell_length_b                    12.436282
_cell_length_c                    28.60462
_cell_angle_alpha                 90.000155
_cell_angle_beta                  89.956337
_cell_angle_gamma                 90.000014
_cell_volume                      2578.41222965

loop_
_atom_site_label
_atom_site_type_symbol
_atom_site_description
_atom_site_fract_x
_atom_site_fract_y
_atom_site_fract_z
_atom_type_partial_charge
O1    O     O_R   0.647170 0.849180 0.201220 -0.581267
O2    O     O_R   0.352830 0.150820 0.798780 -0.576150
O3    O     O_R   0.352830 0.150820 0.701220 -0.581485
O4    O     O_R   0.647170 0.849180 0.298780 -0.576596
O5    O     O_R   0.147170 0.650820 0.298780 -0.576596
O6    O     O_R   0.852830 0.349180 0.701220 -0.581488
O7    O     O_R   0.852830 0.349180 0.798780 -0.576148
O8    O     O_R   0.147170 0.650820 0.201220 -0.581259
O9    O     O_R   0.317430 0.862210 0.298450 -0.583100
O10   O     O_R   0.682570 0.137790 0.701550 -0.578951
O11   O     O_R   0.682570 0.137790 0.798450 -0.583315
O12   O     O_R   0.317430 0.862210 0.201550 -0.579213
O13   O     O_R   0.817430 0.637790 0.201550 -0.579219
O14   O     O_R   0.182570 0.362210 0.798450 -0.583317
O15   O     O_R   0.182570 0.362210 0.701550 -0.578951
O16   O     O_R   0.817430 0.637790 0.298450 -0.583100
H1    H     H_    0.124775 0.232660 0.451961 0.185685
H2    H     H_    0.136795 0.766133 0.547169 0.185335
H3    H     H_    0.867728 0.766686 0.951890 0.185378
H4    H     H_    0.870394 0.233231 0.047144 0.185623
H5    H     H_    0.370405 0.266770 0.047146 0.185625
H6    H     H_    0.367719 0.733316 0.951889 0.185390
H7    H     H_    0.636810 0.733865 0.547168 0.185335
H8    H     H_    0.624773 0.267339 0.451964 0.185678
C1    C     C_R   0.486112 0.888301 0.313068 0.921894
C2    C     C_R   0.514312 0.111711 0.686921 0.921504
C3    C     C_R   0.513778 0.111603 0.813032 0.921946
C4    C     C_R   0.485780 0.888214 0.186897 0.921338
C5    C     C_R   0.985779 0.611785 0.186897 0.921333
C6    C     C_R   0.013778 0.388398 0.813031 0.921947
C7    C     C_R   0.014312 0.388288 0.686921 0.921503
C8    C     C_R   0.986112 0.611699 0.313068 0.921896
H9    H     H_    0.025650 0.605806 0.693226 0.104864
H10   H     H_    0.996874 0.393822 0.306773 0.105507
H11   H     H_    0.979900 0.394176 0.193097 0.104967
H12   H     H_    0.996537 0.606140 0.806548 0.105293
H13   H     H_    0.496558 0.893862 0.806550 0.105296
H14   H     H_    0.479918 0.105824 0.193098 0.104967
H15   H     H_    0.496868 0.106179 0.306774 0.105507
H16   H     H_    0.525679 0.894194 0.693227 0.104865
H17   H     H_    0.047791 0.266431 0.371086 0.131568
H18   H     H_    0.068536 0.732998 0.628513 0.131394
H19   H     H_    0.943522 0.733329 0.870858 0.131495
H20   H     H_    0.939164 0.266791 0.128386 0.131447
H21   H     H_    0.439196 0.233209 0.128386 0.131447
H22   H     H_    0.443536 0.766672 0.870859 0.131495
H23   H     H_    0.568569 0.767000 0.628513 0.131394
H24   H     H_    0.547786 0.233569 0.371088 0.131569
H25   H     H_    0.996469 0.344548 0.597033 0.189103
H26   H     H_    0.996365 0.655836 0.402755 0.188922
H27   H     H_    0.999755 0.655989 0.097031 0.188755
H28   H     H_    0.008020 0.344728 0.902810 0.189250
H29   H     H_    0.508006 0.155276 0.902811 0.189251
H30   H     H_    0.499780 0.844013 0.097031 0.188761
H31   H     H_    0.496368 0.844163 0.402755 0.188920
H32   H     H_    0.496461 0.155447 0.597033 0.189102
O17   O     O_3   0.480630 0.680630 0.250000 -0.287841
O18   O     O_3   0.519370 0.319370 0.750000 -0.287872
O19   O     O_3   0.980630 0.819370 0.250000 -0.287840
O20   O     O_3   0.019370 0.180630 0.750000 -0.287873
V1    V     V_3+5 0.205800 0.762860 0.250000 1.231579
V2    V     V_3+5 0.794200 0.237140 0.750000 1.231699
V3    V     V_3+5 0.705800 0.737140 0.250000 1.231574
V4    V     V_3+5 0.294200 0.262860 0.750000 1.231699
C9    C     C_R   0.997891 0.533723 0.351366 -0.134231
C10   C     C_R   0.011048 0.466319 0.648537 -0.134544
C11   C     C_R   0.001594 0.466499 0.851284 -0.134052
C12   C     C_R   0.989423 0.533913 0.148465 -0.134447
C13   C     C_R   0.489431 0.966087 0.148465 -0.134445
C14   C     C_R   0.501595 0.033503 0.851286 -0.134053
C15   C     C_R   0.511053 0.033679 0.648538 -0.134548
C16   C     C_R   0.497890 0.966277 0.351366 -0.134229
C17   C     C_R   0.040211 0.351659 0.378794 -0.137163
C18   C     C_R   0.056022 0.647969 0.620804 -0.137288
C19   C     C_R   0.954071 0.648237 0.878630 -0.136916
C20   C     C_R   0.949099 0.351955 0.120705 -0.137321
C21   C     C_R   0.449121 0.148046 0.120706 -0.137325
C22   C     C_R   0.454079 0.851765 0.878631 -0.136916
C23   C     C_R   0.556046 0.852029 0.620805 -0.137284
C24   C     C_R   0.540206 0.148341 0.378796 -0.137165
C25   C     C_R   0.009450 0.423677 0.342208 -0.185848
C26   C     C_R   0.029187 0.576109 0.657630 -0.183608
C27   C     C_R   0.986084 0.576356 0.842043 -0.185961
C28   C     C_R   0.974656 0.423944 0.157526 -0.183795
C29   C     C_R   0.474671 0.076056 0.157527 -0.183796
C30   C     C_R   0.486096 0.923645 0.842045 -0.185966
C31   C     C_R   0.529208 0.923889 0.657631 -0.183604
C32   C     C_R   0.509446 0.076324 0.342209 -0.185848
C33   C     C_R   0.016209 0.571212 0.397151 -0.045620
C34   C     C_R   0.019565 0.428946 0.602522 -0.050629
C35   C     C_R   0.985626 0.429100 0.897141 -0.046991
C36   C     C_R   0.978926 0.571364 0.102490 -0.049266
C37   C     C_R   0.478944 0.928637 0.102490 -0.049253
C38   C     C_R   0.485618 0.070903 0.897142 -0.046985
C39   C     C_R   0.519565 0.071050 0.602522 -0.050640
C40   C     C_R   0.516209 0.928787 0.397151 -0.045619
C41   C     C_R   0.060242 0.501072 0.434370 0.145462
C42   C     C_R   0.063243 0.498553 0.565046 0.146395
C43   C     C_R   0.939735 0.498908 0.934344 0.145612
C44   C     C_R   0.936971 0.501435 0.065018 0.146314
C45   C     C_R   0.436980 0.998565 0.065018 0.146315
C46   C     C_R   0.439728 0.001094 0.934345 0.145611
C47   C     C_R   0.563246 0.001443 0.565047 0.146397
C48   C     C_R   0.560239 0.998926 0.434370 0.145463
C49   C     C_R   0.065339 0.389422 0.424701 0.105370
C50   C     C_R   0.073840 0.610080 0.574707 0.104952
C51   C     C_R   0.931115 0.610435 0.924615 0.105102
C52   C     C_R   0.929552 0.389788 0.074651 0.105153
C53   C     C_R   0.429566 0.110212 0.074653 0.105154
C54   C     C_R   0.431112 0.889567 0.924615 0.105098
C55   C     C_R   0.573853 0.889917 0.574708 0.104950
C56   C     C_R   0.565335 0.110577 0.424702 0.105373
C57   C     C_R   0.091311 0.537949 0.481115 -0.100600
C58   C     C_R   0.090736 0.461314 0.518189 -0.098734
C59   C     C_R   0.909774 0.461826 0.981108 -0.100338
C60   C     C_R   0.908449 0.538468 0.018175 -0.098956
C61   C     C_R   0.408444 0.961532 0.018176 -0.098983
C62   C     C_R   0.409768 0.038175 0.981109 -0.100333
C63   C     C_R   0.590733 0.038683 0.518190 -0.098725
C64   C     C_R   0.591310 0.962049 0.481115 -0.100603
C65   C     C_R   0.124325 0.351426 0.506694 0.433233
C66   C     C_R   0.128546 0.647483 0.492474 0.432130
C67   C     C_R   0.872234 0.648074 0.006674 0.433623
C68   C     C_R   0.875068 0.352011 0.992468 0.431759
C69   C     C_R   0.375068 0.147991 0.992470 0.431752
C70   C     C_R   0.372224 0.851926 0.006674 0.433613
C71   C     C_R   0.628550 0.852515 0.492474 0.432134
C72   C     C_R   0.624320 0.148571 0.506695 0.433239
C73   C     C_R   0.103828 0.316758 0.460447 -0.329230
C74   C     C_R   0.112095 0.682326 0.538785 -0.329262
C75   C     C_R   0.891139 0.682810 0.960381 -0.329037
C76   C     C_R   0.892844 0.317252 0.038751 -0.329498
C77   C     C_R   0.392852 0.182749 0.038753 -0.329501
C78   C     C_R   0.391127 0.817192 0.960381 -0.329048
C79   C     C_R   0.612106 0.817672 0.538785 -0.329261
C80   C     C_R   0.603824 0.183240 0.460448 -0.329219
N1    N     N_R   0.209084 0.278801 0.539374 0.223073
O21   O     O_R   0.192539 0.175275 0.534133 -0.397609
O22   O     O_R   0.328629 0.315247 0.569350 -0.419987
N2    N     N_R   0.213133 0.719355 0.459449 0.222547
O23   O     O_R   0.197075 0.822983 0.464375 -0.399487
O24   O     O_R   0.331318 0.682101 0.429264 -0.418775
N3    N     N_R   0.786545 0.720177 0.039433 0.222643
O25   O     O_R   0.802529 0.823779 0.034377 -0.398218
O26   O     O_R   0.667071 0.683157 0.069343 -0.419390
N4    N     N_R   0.791480 0.279631 0.959509 0.222953
O27   O     O_R   0.808045 0.176076 0.964619 -0.398976
O28   O     O_R   0.673248 0.316334 0.929252 -0.419306
N5    N     N_R   0.291480 0.220371 0.959511 0.222950
O29   O     O_R   0.173244 0.183671 0.929255 -0.419309
O30   O     O_R   0.308051 0.323927 0.964622 -0.398973
N6    N     N_R   0.286541 0.779819 0.039435 0.222685
O31   O     O_R   0.167125 0.816835 0.069354 -0.419393
O32   O     O_R   0.302473 0.676217 0.034366 -0.398218
N7    N     N_R   0.713140 0.780645 0.459448 0.222549
O33   O     O_R   0.831319 0.817901 0.429263 -0.418773
O34   O     O_R   0.697087 0.677016 0.464374 -0.399497
N8    N     N_R   0.709082 0.221194 0.539375 0.223060
O35   O     O_R   0.828647 0.184745 0.569347 -0.419983
O36   O     O_R   0.692517 0.324719 0.534139 -0.397605

loop_
_geom_bond_atom_site_label_1
_geom_bond_atom_site_label_2
_geom_bond_distance
_ccdc_geom_bond_type
C7    C10   1.465526 S    
C11   C27   1.396102 A    
C60   C67   1.426631 A    
N7    O34   1.301642 A    
C4    C13   1.465290 S    
C44   C60   1.432024 A    
H23   C23   1.084011 S    
H25   C34   1.074418 S    
O11   V2    2.024899 S    
C19   C27   1.395652 A    
C20   C28   1.394816 A    
C23   C31   1.394924 A    
O4    C1    1.328821 A    
C64   C71   1.426230 A    
O9    C1    1.332561 A    
C10   C34   1.397216 A    
O3    V4    2.016951 S    
C9    C33   1.396597 A    
N1    O22   1.300990 A    
O4    V3    2.016949 S    
H6    C78   1.084401 S    
O9    V1    2.025738 S    
O8    C5    1.331403 A    
H16   C31   1.083404 S    
O13   C5    1.329814 A    
C14   C38   1.396462 A    
C71   C79   1.398789 A    
C57   C58   1.425817 A    
C13   C37   1.397254 A    
N5    O30   1.301680 A    
C43   C59   1.431351 A    
C42   C58   1.431867 A    
C15   C39   1.397219 A    
H12   C27   1.083378 S    
C45   C53   1.416572 A    
N3    O25   1.301668 A    
N3    O26   1.301032 A    
C68   C76   1.398729 A    
O20   V2    1.776939 S    
O19   V1    1.776940 S    
C65   N1    1.438011 S    
H20   C20   1.084047 S    
H30   C37   1.074577 S    
C58   C65   1.426490 A    
C70   N6    1.437751 S    
H5    C77   1.084385 S    
C57   C66   1.426232 A    
C39   C47   1.413581 A    
O1    C4    1.331393 A    
O15   V4    2.025745 S    
O2    C3    1.328789 A    
O16   V3    2.025743 S    
C61   C70   1.426644 A    
C6    C11   1.465729 S    
C46   C62   1.431335 A    
O8    V1    2.017399 S    
O5    C8    1.328823 A    
C41   C49   1.416268 A    
C63   C72   1.426484 A    
H8    C80   1.084326 S    
O6    C7    1.331560 A    
C21   C29   1.394811 A    
C20   C52   1.406099 A    
O7    C6    1.328787 A    
N8    O36   1.301709 A    
C2    C15   1.465528 S    
O10   V2    2.025741 S    
H15   C32   1.083373 S    
C56   C80   1.392967 A    
O1    V3    2.017405 S    
C17   C25   1.395522 A    
C16   C32   1.395920 A    
O2    V4    2.017403 S    
O17   V3    1.776939 S    
N4    O28   1.301119 A    
H3    C75   1.084399 S    
C44   C52   1.416565 A    
H18   C18   1.084010 S    
H14   C29   1.083446 S    
C53   C77   1.392666 A    
C12   C28   1.396045 A    
C19   C51   1.406614 A    
N2    O23   1.301638 A    
C51   C75   1.392956 A    
C37   C45   1.413592 A    
H22   C22   1.084051 S    
C49   C73   1.392967 A    
O18   V4    1.776939 S    
O14   C6    1.332675 A    
H1    C73   1.084325 S    
C33   C41   1.413036 A    
H4    C76   1.084385 S    
O7    V2    2.017397 S    
H27   C36   1.074576 S    
C18   C50   1.406090 A    
C5    C12   1.465287 S    
H13   C30   1.083364 S    
H26   C33   1.074206 S    
C17   C49   1.406572 A    
O13   V3    2.024897 S    
O11   C3    1.332678 A    
H11   C28   1.083441 S    
O14   V4    2.024895 S    
C24   C56   1.406577 A    
C11   C35   1.396457 A    
O10   C2    1.329809 A    
O5    V1    2.016955 S    
C22   C54   1.406606 A    
C1    C16   1.465583 S    
C21   C53   1.406089 A    
C70   C78   1.399479 A    
C3    C14   1.465729 S    
C69   N5    1.437721 S    
C15   C31   1.396163 A    
C62   C69   1.426136 A    
O12   C4    1.329819 A    
C40   C48   1.413033 A    
N8    O35   1.301022 A    
H2    C74   1.084393 S    
C71   N7    1.437472 S    
C14   C30   1.396100 A    
C13   C29   1.396047 A    
C36   C44   1.413584 A    
H19   C19   1.084053 S    
C48   C56   1.416269 A    
N4    O27   1.301679 A    
H9    C26   1.083408 S    
C69   C77   1.398720 A    
C50   C74   1.392675 A    
C65   C73   1.399383 A    
C59   C68   1.426133 A    
C67   C75   1.399487 A    
H29   C38   1.074089 S    
O3    C2    1.331566 A    
C47   C63   1.431864 A    
N6    O32   1.301680 A    
H31   C40   1.074206 S    
H32   C39   1.074418 S    
C63   C64   1.425811 A    
O15   C7    1.329811 A    
N2    O24   1.301086 A    
C47   C55   1.416330 A    
H7    C79   1.084393 S    
O16   C8    1.332562 A    
C43   C51   1.416008 A    
N1    O21   1.301713 A    
C42   C50   1.416333 A    
C23   C55   1.406092 A    
O6    V2    2.016956 S    
C45   C61   1.432014 A    
H24   C24   1.083993 S    
C72   C80   1.399386 A    
C66   N2    1.437472 S    
C24   C32   1.395521 A    
C61   C62   1.425763 A    
O12   V1    2.024901 S    
C55   C79   1.392674 A    
C59   C60   1.425749 A    
C68   N4    1.437718 S    
C46   C54   1.416009 A    
C12   C36   1.397262 A    
C34   C42   1.413584 A    
C52   C76   1.392658 A    
C54   C78   1.392958 A    
C72   N8    1.438002 S    
H17   C17   1.083992 S    
C16   C40   1.396595 A    
N6    O31   1.300926 A    
C38   C46   1.412890 A    
C22   C30   1.395653 A    
C67   N3    1.437713 S    
N7    O33   1.301077 A    
C9    C25   1.395919 A    
H28   C35   1.074088 S    
H21   C21   1.084047 S    
C35   C43   1.412881 A    
N5    O29   1.301121 A    
C41   C57   1.431584 A    
C66   C74   1.398784 A    
H10   C25   1.083369 S    
C18   C26   1.394921 A    
C10   C26   1.396160 A    
C8    C9    1.465581 S    
C48   C64   1.431589 A    
