data_mof_unit_21407.cif
_audit_creation_date              2013-03-05T16:01:46-0500
_audit_creation_method            fapswitch 2.2
_symmetry_space_group_name_H-M    P1
_symmetry_Int_Tables_number       1
_space_group_crystal_system       triclinic
_cell_length_a                    14.862384
_cell_length_b                    14.027965
_cell_length_c                    11.537268
_cell_angle_alpha                 90.05954
_cell_angle_beta                  89.696392
_cell_angle_gamma                 89.952709
_cell_volume                      2405.35759821

loop_
_atom_site_label
_atom_site_type_symbol
_atom_site_description
_atom_site_fract_x
_atom_site_fract_y
_atom_site_fract_z
_atom_type_partial_charge
O1    O     O_R   0.367850 0.580280 0.500030 -0.622694
O2    O     O_R   0.632150 0.419720 0.499970 -0.617143
O3    O     O_R   0.632150 0.580280 0.499970 -0.621807
O4    O     O_R   0.367850 0.419720 0.500030 -0.618012
C1    C     C_R   0.326831 0.499920 0.498789 0.897644
C2    C     C_R   0.673101 0.499832 0.500511 0.897384
O5    O     O_R   0.500010 0.580270 0.334450 -0.613307
O6    O     O_R   0.499990 0.419730 0.665550 -0.614800
O7    O     O_R   0.499990 0.580270 0.665550 -0.612786
O8    O     O_R   0.500010 0.419730 0.334450 -0.613711
C3    C     C_R   0.500038 0.499962 0.281761 0.899229
C4    C     C_R   0.500004 0.500040 0.718238 0.900474
Zn1   Zn    Zn3+2 0.500000 0.607200 0.500000 0.944020
Zn2   Zn    Zn3+2 0.500000 0.392800 0.500000 0.949036
C5    C     C_1   0.500038 0.499905 0.161409 -0.196149
C6    C     C_1   0.500105 0.500103 0.838588 -0.194860
C7    C     C_1   0.500074 0.499955 0.059279 -0.001358
C8    C     C_1   0.500127 0.500056 0.940717 -0.000680
C9    C     C_R   0.812402 0.490585 0.396140 -0.297113
C10   C     C_R   0.187430 0.472524 0.597922 -0.293864
C11   C     C_R   0.768839 0.497696 0.502025 -0.063452
C12   C     C_R   0.230989 0.497926 0.496268 -0.066385
C13   C     C_R   0.814428 0.490792 0.607362 0.144102
C14   C     C_R   0.185170 0.509660 0.391626 0.138333
C15   C     C_R   0.906511 0.466540 0.604595 0.070072
C16   C     C_R   0.093251 0.484904 0.388233 0.070953
C17   C     C_R   0.952994 0.472644 0.496828 -0.069923
C18   C     C_R   0.046790 0.472744 0.495212 -0.068843
C19   C     C_R   0.905542 0.482171 0.391160 0.086426
C20   C     C_R   0.094274 0.464260 0.600945 0.086477
C21   C     C_R   0.953786 0.436649 0.704732 0.178832
C22   C     C_R   0.046113 0.471747 0.282795 0.181171
C23   C     C_R   0.048334 0.443832 0.705934 0.190433
C24   C     C_R   0.951519 0.478898 0.283306 0.192702
C25   C     C_R   0.559185 0.798103 0.430389 -0.050973
C26   C     C_R   0.440785 0.201904 0.569577 -0.050054
C27   C     C_R   0.440796 0.798323 0.569586 -0.053095
C28   C     C_R   0.559210 0.201681 0.430421 -0.050632
N1    N     N_R   0.500000 0.750030 0.500000 -0.103170
N2    N     N_R   0.500000 0.249970 0.500000 -0.102771
C29   C     C_R   0.439351 0.898956 0.571235 0.013504
C30   C     C_R   0.560637 0.101051 0.428753 0.013088
C31   C     C_R   0.560622 0.898729 0.428734 0.013180
C32   C     C_R   0.439348 0.101280 0.571233 0.013170
C33   C     C_R   0.499988 0.949412 0.499987 0.085629
C34   C     C_R   0.499991 0.050596 0.499992 0.085305
C35   C     C_R   0.379026 0.950118 0.642085 -0.200122
C36   C     C_R   0.620955 0.049891 0.357894 -0.199983
C37   C     C_R   0.620944 0.949664 0.357879 -0.200114
C38   C     C_R   0.379020 0.050347 0.642080 -0.200181
H1    H     H_    0.772049 0.493337 0.318337 0.151324
H2    H     H_    0.227776 0.461669 0.674681 0.152809
C39   C     C_3   0.766070 0.521234 0.717657 -0.911380
H3    H     H_    0.813471 0.541386 0.787239 0.255147
H4    H     H_    0.725675 0.586472 0.701461 0.245847
H5    H     H_    0.719981 0.464040 0.747770 0.238291
C40   C     C_3   0.233129 0.558052 0.291159 -0.904140
H6    H     H_    0.270782 0.621180 0.322668 0.253814
H7    H     H_    0.281378 0.508045 0.249426 0.233255
H8    H     H_    0.185712 0.586847 0.226321 0.253549
C41   C     C_3   0.906444 0.382084 0.800811 -0.909911
H9    H     H_    0.899340 0.426883 0.879685 0.240170
H10   H     H_    0.839556 0.355623 0.773569 0.255643
H11   H     H_    0.945441 0.317019 0.822743 0.247937
C42   C     C_3   0.093706 0.433779 0.175506 -0.916253
H12   H     H_    0.161213 0.404693 0.195573 0.256796
H13   H     H_    0.055492 0.372754 0.139128 0.247279
H14   H     H_    0.099679 0.490109 0.108418 0.241308
C43   C     C_3   0.100057 0.430337 0.818137 -0.932674
H15   H     H_    0.056522 0.421255 0.895475 0.253017
H16   H     H_    0.144219 0.366687 0.811067 0.242734
H17   H     H_    0.141521 0.494504 0.835707 0.237296
C44   C     C_3   0.899727 0.483057 0.170080 -0.932864
H18   H     H_    0.943157 0.485799 0.091937 0.250042
H19   H     H_    0.855514 0.419612 0.162499 0.241876
H20   H     H_    0.858301 0.548916 0.167631 0.238640
H21   H     H_    0.605241 0.757873 0.376183 0.135988
H22   H     H_    0.394708 0.242138 0.623756 0.134858
H23   H     H_    0.394736 0.758264 0.623782 0.136334
H24   H     H_    0.605284 0.241741 0.376242 0.135589
H25   H     H_    0.331843 0.912642 0.697508 0.143785
H26   H     H_    0.668142 0.087369 0.302477 0.143729
H27   H     H_    0.668123 0.912010 0.302451 0.143769
H28   H     H_    0.331832 0.088003 0.697495 0.143211

loop_
_geom_bond_atom_site_label_1
_geom_bond_atom_site_label_2
_geom_bond_distance
_ccdc_geom_bond_type
C15   C21   1.418930 A    
C16   C22   1.418957 A    
C17   C19   1.418023 A    
C44   H18   1.106735 S    
C21   C41   1.517926 S    
O3    C2    1.281776 A    
C38   H28   1.083321 S    
C10   C20   1.389722 A    
C39   H3    1.107493 S    
O5    C3    1.279546 A    
C27   H23   1.082684 S    
O1    C1    1.282113 A    
C9    C11   1.383028 A    
C14   C16   1.410597 A    
C28   C30   1.411880 A    
C43   H15   1.106930 S    
C40   H7    1.110392 S    
C41   H10   1.108377 S    
C30   C34   1.408301 A    
C43   H16   1.110400 S    
O7    Zn1   1.947380 S    
C3    C5    1.388530 S    
C1    C12   1.425199 S    
C4    C6    1.388516 S    
C14   C40   1.518593 S    
C42   H13   1.110928 S    
C21   C23   1.409037 A    
C25   C31   1.411909 A    
O3    Zn1   1.999731 S    
C23   C43   1.520972 S    
C13   C15   1.410148 A    
C27   C29   1.411926 A    
C44   H19   1.110383 S    
O2    C2    1.278508 A    
C32   C34   1.408302 A    
C13   C39   1.518829 S    
C35   C38   1.406002 A    
C39   H4    1.110630 S    
C26   N2    1.366804 A    
O8    Zn2   1.947381 S    
C31   C37   1.406075 A    
C40   H8    1.106859 S    
C33   C34   1.419406 A    
C2    C11   1.423377 S    
C19   C24   1.417127 A    
C25   H21   1.082692 S    
C22   C24   1.409366 A    
C43   H17   1.110394 S    
C25   N1    1.366796 A    
O6    C4    1.279563 A    
C42   H14   1.109969 S    
C7    C8    1.367873 S    
C29   C35   1.406088 A    
C30   C36   1.406059 A    
C31   C33   1.408284 A    
C6    C8    1.178300 T    
C36   C37   1.405988 A    
C10   C12   1.383749 A    
C11   C13   1.397956 A    
C44   H20   1.110263 S    
C12   C14   1.399027 A    
C26   C32   1.411885 A    
O1    Zn1   2.000344 S    
C9    C19   1.390096 A    
C39   H5    1.110225 S    
C32   C38   1.406060 A    
C5    C7    1.178305 T    
O6    Zn2   1.946610 S    
C20   C23   1.416965 A    
O4    C1    1.279292 A    
C15   C17   1.421865 A    
C16   C18   1.421588 A    
C37   H27   1.083305 S    
C18   C20   1.417594 A    
C27   N1    1.366793 A    
C26   H22   1.082737 S    
C41   H11   1.110939 S    
C28   N2    1.366780 A    
C40   H6    1.109881 S    
C28   H24   1.082716 S    
C36   H26   1.083314 S    
C35   H25   1.083303 S    
O4    Zn2   1.999732 S    
C41   H9    1.109895 S    
O2    Zn2   2.000343 S    
O7    C4    1.279686 A    
Zn1   N1    2.003614 S    
O8    C3    1.279714 A    
C24   C44   1.520906 S    
Zn2   N2    2.003616 S    
C9    H1    1.082900 S    
O5    Zn1   1.946611 S    
C10   H2    1.082947 S    
C42   H12   1.108467 S    
C17   C18   1.394055 A    
C29   C33   1.408282 A    
C22   C42   1.518203 S    
