data_mof_unit_20895.cif
_audit_creation_date              2012-12-10T17:17:54-0500
_audit_creation_method            fapswitch 2.2
_symmetry_space_group_name_H-M    P1
_symmetry_Int_Tables_number       1
_space_group_crystal_system       triclinic
_cell_length_a                    14.934871
_cell_length_b                    15.612355
_cell_length_c                    9.687916
_cell_angle_alpha                 92.086325
_cell_angle_beta                  91.130395
_cell_angle_gamma                 90.390224
_cell_volume                      2256.91610817

loop_
_atom_site_label
_atom_site_type_symbol
_atom_type_description
_atom_site_fract_x
_atom_site_fract_y
_atom_site_fract_z
_atom_type_partial_charge
C1    C     C_R   0.379601 0.882809 0.497660 0.973845
C2    C     C_R   0.377466 0.115120 0.501603 0.977566
C3    C     C_R   0.879601 0.382809 0.497660 0.973845
C4    C     C_R   0.877466 0.615120 0.501603 0.977566
C5    C     C_R   0.309702 0.243030 0.410008 0.573160
C6    C     C_R   0.336459 0.732127 0.489506 0.587153
C7    C     C_R   0.809702 0.743030 0.410008 0.573161
C8    C     C_R   0.836459 0.232127 0.489506 0.587153
C9    C     C_R   0.746518 0.806741 0.407927 -0.252091
C10   C     C_R   0.773639 0.167103 0.496440 -0.262025
C11   C     C_R   0.246518 0.306741 0.407927 -0.252090
C12   C     C_R   0.273639 0.667103 0.496440 -0.262025
C13   C     C_R   0.675569 0.806348 0.498424 -0.090647
C14   C     C_R   0.683102 0.186685 0.504456 -0.055178
C15   C     C_R   0.175569 0.306348 0.498424 -0.090647
C16   C     C_R   0.183102 0.686685 0.504456 -0.055178
C17   C     C_R   0.663153 0.021088 0.139753 -0.101883
C18   C     C_R   0.163153 0.521088 0.139753 -0.101883
C19   C     C_R   0.735901 0.052045 0.067416 -0.210452
C20   C     C_R   0.235901 0.552045 0.067416 -0.210452
C21   C     C_R   0.720703 0.090792 0.941599 -0.209133
C22   C     C_R   0.220703 0.590792 0.941599 -0.209133
C23   C     C_R   0.633338 0.094029 0.886576 0.453557
C24   C     C_R   0.133338 0.594029 0.886576 0.453556
C25   C     C_R   0.570803 0.034644 0.933554 0.072122
C26   C     C_R   0.070803 0.534644 0.933554 0.072122
C27   C     C_R   0.577190 0.018319 0.077172 0.138095
C28   C     C_R   0.077190 0.518319 0.077172 0.138095
C29   C     C_R   0.426790 0.973700 0.064952 0.455651
C30   C     C_R   0.926790 0.473700 0.064952 0.455650
C31   C     C_R   0.620110 0.116697 0.501896 0.760486
C32   C     C_R   0.615801 0.879256 0.499168 0.782149
C33   C     C_R   0.120110 0.616697 0.501896 0.760486
C34   C     C_R   0.115801 0.379256 0.499168 0.782149
C35   C     C_R   0.431320 0.967625 0.919072 -0.030019
C36   C     C_R   0.931320 0.467625 0.919072 -0.030018
C37   C     C_R   0.217779 0.109642 0.698175 0.621817
C38   C     C_R   0.185353 0.923826 0.488338 0.594410
C39   C     C_R   0.717779 0.609642 0.698175 0.621817
C40   C     C_R   0.685353 0.423826 0.488338 0.594410
C41   C     C_R   0.139902 0.107035 0.775482 0.639184
C42   C     C_R   0.093901 0.941722 0.490445 0.601055
C43   C     C_R   0.639902 0.607035 0.775482 0.639184
C44   C     C_R   0.593901 0.441722 0.490445 0.601055
C45   C     C_R   0.574053 0.667579 0.759869 -0.268650
C46   C     C_R   0.531878 0.375691 0.499551 -0.254901
C47   C     C_R   0.074053 0.167579 0.759869 -0.268650
C48   C     C_R   0.031878 0.875691 0.499550 -0.254901
C49   C     C_R   0.585591 0.732422 0.668443 -0.133299
C50   C     C_R   0.560921 0.291448 0.504575 -0.104476
C51   C     C_R   0.085591 0.232422 0.668443 -0.133299
C52   C     C_R   0.060921 0.791448 0.504575 -0.104476
C53   C     C_R   0.664167 0.738629 0.589711 0.030282
C54   C     C_R   0.653134 0.271871 0.500946 0.054254
C55   C     C_R   0.164167 0.238629 0.589711 0.030282
C56   C     C_R   0.153134 0.771871 0.500946 0.054254
C57   C     C_R   0.231078 0.174563 0.599296 -0.131852
C58   C     C_R   0.216872 0.838842 0.494475 -0.146985
C59   C     C_R   0.731078 0.674563 0.599296 -0.131852
C60   C     C_R   0.716872 0.338842 0.494475 -0.146985
C61   C     C_R   0.304894 0.177784 0.505889 -0.142009
C62   C     C_R   0.309403 0.817785 0.492391 -0.130577
C63   C     C_R   0.804894 0.677783 0.505889 -0.142009
C64   C     C_R   0.809403 0.317785 0.492391 -0.130577
Cu1   Cu    Cu3+1 0.499990 0.000000 0.640660 1.039214
Cu2   Cu    Cu3+1 0.999990 0.500000 0.640660 1.039214
Cu3   Cu    Cu3+1 0.500010 0.000000 0.359340 1.086613
Cu4   Cu    Cu3+1 0.000010 0.500000 0.359340 1.086613
H1    H     H_    0.773337 0.129907 0.900503 0.189096
H2    H     H_    0.273337 0.629907 0.900503 0.189096
H3    H     H_    0.375946 0.941267 0.858224 0.244399
H4    H     H_    0.875946 0.441267 0.858224 0.244398
H5    H     H_    0.513030 0.663825 0.817988 0.194887
H6    H     H_    0.460994 0.389642 0.501866 0.195226
H7    H     H_    0.013030 0.163825 0.817988 0.194887
H8    H     H_    0.960994 0.889642 0.501866 0.195226
H9    H     H_    0.530170 0.775683 0.657914 0.213755
H10   H     H_    0.510659 0.241914 0.511787 0.177776
H11   H     H_    0.030170 0.275684 0.657914 0.213755
H12   H     H_    0.010659 0.741914 0.511787 0.177775
H13   H     H_    0.754408 0.858226 0.336909 0.167659
H14   H     H_    0.795522 0.100995 0.493932 0.158624
H15   H     H_    0.254408 0.358226 0.336909 0.167659
H16   H     H_    0.295522 0.600995 0.493932 0.158624
H17   H     H_    0.676254 0.997666 0.240885 0.175099
H18   H     H_    0.176254 0.497666 0.240885 0.175099
H19   H     H_    0.802159 0.053601 0.114856 0.196781
H20   H     H_    0.302159 0.553601 0.114856 0.196781
N1    N     N_R   0.501200 0.000000 0.147910 -0.245202
N2    N     N_R   0.001200 0.500000 0.147910 -0.245202
N3    N     N_R   0.501270 0.000000 0.852040 -0.234894
N4    N     N_R   0.001270 0.500000 0.852040 -0.234894
O1    O     O_R   0.409820 0.909830 0.618810 -0.594313
O2    O     O_R   0.409820 0.090170 0.618810 -0.504210
O3    O     O_R   0.909820 0.409830 0.618810 -0.594313
O4    O     O_R   0.909820 0.590170 0.618810 -0.504210
O5    O     O_R   0.409840 0.909830 0.381240 -0.499462
O6    O     O_R   0.409840 0.090170 0.381240 -0.488165
O7    O     O_R   0.909840 0.409830 0.381240 -0.499462
O8    O     O_R   0.909840 0.590170 0.381240 -0.488165
O9    O     O_R   0.590170 0.090170 0.618760 -0.568780
O10   O     O_R   0.590170 0.909830 0.618760 -0.614524
O11   O     O_R   0.090170 0.590170 0.618760 -0.568780
O12   O     O_R   0.090170 0.409830 0.618760 -0.614524
O13   O     O_R   0.590190 0.090180 0.381190 -0.581853
O14   O     O_R   0.590190 0.909820 0.381190 -0.604484
O15   O     O_R   0.090190 0.590180 0.381190 -0.581853
O16   O     O_R   0.090190 0.409820 0.381190 -0.604484
F1    F     F_    0.378416 0.247574 0.320576 -0.646530
F2    F     F_    0.424075 0.711290 0.477791 -0.654893
F3    F     F_    0.878416 0.747575 0.320576 -0.646530
F4    F     F_    0.924075 0.211290 0.477791 -0.654893
S1    S     S_3+6 0.594322 0.200347 0.873149 0.034093
O17   O     O_2   0.662879 0.254410 0.804732 -0.306018
O18   O     O_2   0.506564 0.202746 0.795075 -0.279739
O19   O     O_3   0.579211 0.240710 0.034284 -0.486560
H21   H     H_    0.557952 0.299964 0.022066 0.387260
S2    S     S_3+6 0.094322 0.700347 0.873149 0.034094
O20   O     O_2   0.162880 0.754410 0.804732 -0.306017
O21   O     O_2   0.006564 0.702746 0.795075 -0.279739
O22   O     O_3   0.079211 0.740710 0.034284 -0.486559
H22   H     H_    0.057952 0.799964 0.022066 0.387260
F5    F     F_    0.275700 0.045418 0.720477 -0.606437
F6    F     F_    0.242059 0.990062 0.476610 -0.642508
F7    F     F_    0.775700 0.545418 0.720477 -0.606437
F8    F     F_    0.742059 0.490062 0.476610 -0.642508
F9    F     F_    0.126231 0.042882 0.863130 -0.599352
F10   F     F_    0.065225 0.023675 0.482435 -0.610019
F11   F     F_    0.626231 0.542882 0.863131 -0.599351
F12   F     F_    0.565225 0.523675 0.482435 -0.610019
S3    S     S_3+6 0.319667 0.944301 0.123892 0.062506
O23   O     O_2   0.321187 0.854243 0.173624 -0.305542
O24   O     O_2   0.289492 0.006296 0.234133 -0.198009
O25   O     O_3   0.243680 0.945918 0.993807 -0.450489
H23   H     H_    0.189239 0.918870 0.030253 0.408382
S4    S     S_3+6 0.819667 0.444302 0.123892 0.062507
O26   O     O_2   0.821187 0.354243 0.173624 -0.305543
O27   O     O_2   0.789492 0.506296 0.234133 -0.198008
O28   O     O_3   0.743680 0.445918 0.993807 -0.450488
H24   H     H_    0.689240 0.418869 0.030252 0.408382

loop_
_geom_bond_atom_site_label_1
_geom_bond_atom_site_label_2
_ccdc_geom_bond_type
C58   C62   A    
Cu2   Cu4   S    
C39   F7    S    
C6    F2    S    
C48   H8    S    
C13   C32   S    
C33   O15   A    
Cu1   O9    S    
C14   C31   S    
C30   N2    A    
S3    O25   S    
C1    C62   S    
C16   C56   A    
C53   C59   A    
C54   C60   A    
C3    C64   S    
C2    O6    A    
C4    C63   S    
C18   H18   S    
C17   H17   S    
C31   O9    A    
C19   C21   A    
C24   C26   A    
C38   C42   A    
C19   H19   S    
C8    F4    S    
C6    C12   A    
C43   F11   S    
C44   F12   S    
Cu3   N1    S    
O19   H21   S    
C12   H16   S    
C45   H5    S    
C9    C13   A    
S2    O20   D    
Cu3   O6    S    
C37   F5    S    
C11   C15   A    
C12   C16   A    
C49   H9    S    
Cu1   Cu3   S    
Cu4   N2    S    
Cu4   O15   S    
C15   C34   S    
C18   C20   A    
C2    C61   S    
C42   F10   S    
S1    O19   S    
C36   N4    A    
Cu1   O1    S    
C40   F8    S    
C32   O14   A    
C31   O13   A    
Cu1   O10   S    
S4    O28   S    
C50   H10   S    
C29   N1    A    
C44   C46   A    
C13   C53   A    
C56   C58   A    
C4    O4    A    
C37   C57   A    
C25   N3    A    
C52   C56   A    
C17   C27   A    
Cu2   O12   S    
C2    O2    A    
C18   C28   A    
S4    O27   D    
C10   C14   A    
C1    O5    A    
Cu3   O13   S    
Cu2   N4    S    
C11   H15   S    
C10   H14   S    
C34   O12   A    
C21   H1    S    
S2    O22   S    
C15   C55   A    
Cu4   O8    S    
C16   C33   S    
C23   S1    S    
C45   C49   A    
C39   C59   A    
C41   C47   A    
C5    C61   A    
C42   C48   A    
C57   C61   A    
C43   C45   A    
C51   H11   S    
C7    C63   A    
O22   H22   S    
C8    C64   A    
Cu1   N3    S    
C1    O1    A    
Cu1   O2    S    
C14   C54   A    
C20   C22   A    
C30   S4    S    
C55   C57   A    
C22   C24   A    
C59   C63   A    
C40   C44   A    
C41   F9    S    
C46   H6    S    
Cu2   O4    S    
S1    O17   D    
C7    C9    A    
C46   C50   A    
C33   O11   A    
C24   S2    S    
Cu2   O11   S    
S4    O26   D    
S3    O24   D    
C47   C51   A    
O28   H24   S    
Cu3   O14   S    
C5    C11   A    
O25   H23   S    
C32   O10   A    
C25   C27   A    
C29   C35   A    
C26   C28   A    
C4    O8    A    
C30   C36   A    
C60   C64   A    
C34   O16   A    
C6    C62   A    
C21   C23   A    
Cu4   O7    S    
C47   H7    S    
C50   C54   A    
C29   S3    S    
C5    F1    S    
C49   C53   A    
C20   H20   S    
C17   C19   A    
C3    O3    A    
C7    F3    S    
C27   N1    A    
C51   C55   A    
C23   C25   A    
C37   C41   A    
S3    O23   D    
S2    O21   D    
Cu3   O5    S    
C35   H3    S    
C3    O7    A    
C48   C52   A    
C39   C43   A    
C8    C10   A    
C40   C60   A    
C28   N2    A    
Cu4   O16   S    
C52   H12   S    
C26   N4    A    
C38   C58   A    
C22   H2    S    
C38   F6    S    
C36   H4    S    
C9    H13   S    
Cu2   O3    S    
S1    O18   D    
C35   N3    A    
