data_mof_unit_11063.cif
_audit_creation_date              2013-03-05T15:41:12-0500
_audit_creation_method            fapswitch 2.2
_symmetry_space_group_name_H-M    P1
_symmetry_Int_Tables_number       1
_space_group_crystal_system       triclinic
_cell_length_a                    16.880208
_cell_length_b                    16.845147
_cell_length_c                    16.86286
_cell_angle_alpha                 67.915469
_cell_angle_beta                  68.095336
_cell_angle_gamma                 67.736265
_cell_volume                      3960.4254893

loop_
_atom_site_label
_atom_site_type_symbol
_atom_site_description
_atom_site_fract_x
_atom_site_fract_y
_atom_site_fract_z
_atom_type_partial_charge
O1    O     O_R   0.124540 0.978640 0.385460 -0.559735
O2    O     O_R   0.875460 0.021360 0.614540 -0.563623
O3    O     O_R   0.978640 0.385460 0.124540 -0.589467
O4    O     O_R   0.021360 0.614540 0.875460 -0.591974
O5    O     O_R   0.385460 0.124540 0.978640 -0.592444
O6    O     O_R   0.614540 0.875460 0.021360 -0.574963
O7    O     O_R   0.614540 0.021360 0.875460 -0.595698
O8    O     O_R   0.385460 0.978640 0.124540 -0.577129
O9    O     O_R   0.875460 0.614540 0.021360 -0.594612
O10   O     O_R   0.124540 0.385460 0.978640 -0.576834
O11   O     O_R   0.021360 0.875460 0.614540 -0.596458
O12   O     O_R   0.978640 0.124540 0.385460 -0.580397
C1    C     C_R   0.311548 0.004418 0.433765 -0.037539
C2    C     C_R   0.680378 0.036401 0.549197 -0.060166
C3    C     C_R   0.010302 0.427000 0.309929 -0.055207
C4    C     C_R   0.039720 0.549268 0.678432 -0.026122
C5    C     C_R   0.434718 0.312354 0.000479 -0.045587
C6    C     C_R   0.547744 0.680615 0.037157 -0.023924
C7    C     C_R   0.564685 0.000278 0.687424 -0.052556
C8    C     C_R   0.450623 0.967387 0.318580 -0.015798
C9    C     C_R   0.686656 0.564317 0.001176 -0.047701
C10   C     C_R   0.319404 0.451610 0.962788 -0.011777
C11   C     C_R   0.050449 0.675540 0.545052 -0.057688
C12   C     C_R   0.960943 0.321241 0.451139 -0.023815
Cu1   Cu    Cu3+1 0.995180 0.995180 0.424630 1.075854
Cu2   Cu    Cu3+1 0.004820 0.004820 0.575370 1.083800
Cu3   Cu    Cu3+1 0.995180 0.424630 0.995180 1.085891
Cu4   Cu    Cu3+1 0.004820 0.575370 0.004820 1.042400
Cu5   Cu    Cu3+1 0.424630 0.995180 0.995180 1.084082
Cu6   Cu    Cu3+1 0.575370 0.004820 0.004820 1.075144
C13   C     C_R   0.029886 0.827915 0.563863 0.804342
C14   C     C_R   0.970416 0.171924 0.436012 0.869380
C15   C     C_R   0.829672 0.567770 0.019650 0.826560
C16   C     C_R   0.171615 0.435578 0.971542 0.883181
C17   C     C_R   0.567666 0.019466 0.829907 0.823811
C18   C     C_R   0.435360 0.973051 0.171376 0.858735
C19   C     C_R   0.432181 0.170114 0.980532 0.823822
C20   C     C_R   0.564275 0.828296 0.028687 0.857349
C21   C     C_R   0.981105 0.431638 0.170000 0.834232
C22   C     C_R   0.027958 0.564835 0.828148 0.851246
C23   C     C_R   0.169932 0.981921 0.431801 0.836109
C24   C     C_R   0.828355 0.027721 0.564735 0.819604
O13   O     O_R   0.013780 0.867370 0.487190 -0.552006
O14   O     O_R   0.986220 0.132630 0.512810 -0.510922
O15   O     O_R   0.867370 0.487190 0.013780 -0.564127
O16   O     O_R   0.132630 0.512810 0.986220 -0.538105
O17   O     O_R   0.487190 0.013780 0.867370 -0.569388
O18   O     O_R   0.512810 0.986220 0.132630 -0.522109
O19   O     O_R   0.512810 0.132630 0.986220 -0.574962
O20   O     O_R   0.487190 0.867370 0.013780 -0.523478
O21   O     O_R   0.986220 0.512810 0.132630 -0.582737
O22   O     O_R   0.013780 0.487190 0.867370 -0.522727
O23   O     O_R   0.132630 0.986220 0.512810 -0.574744
O24   O     O_R   0.867370 0.013780 0.487190 -0.578397
C25   C     C_R   0.404900 0.990012 0.399747 -0.001315
C26   C     C_R   0.598581 0.015331 0.594183 -0.009246
C27   C     C_R   0.990657 0.398507 0.403617 -0.008053
C28   C     C_R   0.036888 0.590066 0.588910 -0.011618
C29   C     C_R   0.400792 0.405935 0.985341 -0.004216
C30   C     C_R   0.593255 0.598783 0.015390 -0.004626
C31   C     C_R   0.265712 0.981890 0.392077 -0.077047
C32   C     C_R   0.729593 0.040945 0.599211 -0.059196
C33   C     C_R   0.980278 0.390606 0.265721 -0.072162
C34   C     C_R   0.044916 0.598723 0.728423 -0.061630
C35   C     C_R   0.393131 0.266322 0.978020 -0.076990
C36   C     C_R   0.597772 0.729226 0.043000 -0.053167
C37   C     C_R   0.606583 0.021774 0.733853 -0.084627
C38   C     C_R   0.400995 0.961939 0.269544 -0.040837
C39   C     C_R   0.733055 0.606301 0.022831 -0.083557
C40   C     C_R   0.270412 0.401616 0.957607 -0.032098
C41   C     C_R   0.049310 0.727644 0.596440 -0.072584
C42   C     C_R   0.955134 0.271302 0.402231 -0.049027
C43   C     C_R   0.487443 0.968215 0.729268 0.286664
C44   C     C_R   0.545212 0.947361 0.290812 0.346578
C45   C     C_R   0.075596 0.700955 0.450246 0.315511
C46   C     C_R   0.937533 0.296786 0.545647 0.350859
C47   C     C_R   0.728851 0.486546 0.969400 0.293690
C48   C     C_R   0.291740 0.546573 0.942302 0.346855
C49   C     C_R   0.268991 0.036907 0.510897 0.284029
C50   C     C_R   0.708429 0.056249 0.454712 0.306186
C51   C     C_R   0.511568 0.269682 0.033858 0.289245
C52   C     C_R   0.453046 0.709618 0.055451 0.346099
C53   C     C_R   0.059932 0.490501 0.263800 0.299474
C54   C     C_R   0.048305 0.456229 0.711562 0.353768
C55   C     C_R   0.314037 0.954924 0.312967 -0.025936
C56   C     C_R   0.685195 0.049469 0.686101 0.031348
C57   C     C_R   0.947642 0.315062 0.314871 0.023876
C58   C     C_R   0.058686 0.684355 0.683604 0.034234
C59   C     C_R   0.314789 0.314538 0.949267 0.022617
C60   C     C_R   0.684740 0.684536 0.051590 0.022173
H1    H     H_    0.306280 0.989200 0.784956 0.184889
H2    H     H_    0.711935 0.975409 0.221621 0.201403
H3    H     H_    0.102034 0.740940 0.269846 0.206613
H4    H     H_    0.943754 0.239118 0.720066 0.200562
H5    H     H_    0.785017 0.304668 0.989746 0.185611
H6    H     H_    0.216121 0.708343 0.982428 0.185114
H7    H     H_    0.213353 0.016743 0.691971 0.185512
H8    H     H_    0.782845 0.016778 0.293219 0.188300
H9    H     H_    0.692530 0.212406 0.015588 0.182882
H10   H     H_    0.285819 0.779369 0.026156 0.199434
H11   H     H_    0.091595 0.655831 0.192473 0.186491
H12   H     H_    0.991350 0.305924 0.789265 0.208008
C61   C     C_R   0.672528 0.025625 0.412017 0.000014
C62   C     C_R   0.320008 0.018378 0.569414 0.000054
C63   C     C_R   0.014889 0.417784 0.674298 0.021084
C64   C     C_R   0.056695 0.548495 0.308747 0.003494
C65   C     C_R   0.410172 0.673136 0.025413 0.029860
C66   C     C_R   0.570126 0.320342 0.015319 -0.000864
C67   C     C_R   0.588110 0.977202 0.327181 0.027501
C68   C     C_R   0.428560 0.988430 0.678098 -0.000945
C69   C     C_R   0.326968 0.588976 0.974260 0.049965
C70   C     C_R   0.678045 0.428134 0.987978 -0.002016
C71   C     C_R   0.964014 0.335476 0.589499 0.018963
C72   C     C_R   0.064211 0.653684 0.402921 -0.003757
C73   C     C_R   0.715738 0.012128 0.327031 -0.146641
C74   C     C_R   0.283004 0.012638 0.660744 -0.123356
C75   C     C_R   0.991507 0.337718 0.720406 -0.081819
C76   C     C_R   0.080009 0.628847 0.263506 -0.143390
C77   C     C_R   0.322840 0.714164 0.016550 -0.110314
C78   C     C_R   0.661260 0.282512 0.010964 -0.130422
C79   C     C_R   0.675439 0.984958 0.286669 -0.098015
C80   C     C_R   0.337343 0.993984 0.715110 -0.124054
C81   C     C_R   0.283209 0.674173 0.988075 -0.100853
C82   C     C_R   0.715340 0.336492 0.993406 -0.134748
C83   C     C_R   0.962357 0.299547 0.680034 -0.122541
C84   C     C_R   0.083835 0.680184 0.309491 -0.139658
C85   C     C_R   0.543179 0.995773 0.409615 0.017766
C86   C     C_R   0.463412 0.001626 0.586046 0.028875
C87   C     C_R   0.992194 0.413305 0.541650 0.021815
C88   C     C_R   0.037797 0.574887 0.449309 0.024664
C89   C     C_R   0.410009 0.544457 0.991817 0.014721
C90   C     C_R   0.586178 0.463902 0.999363 0.030350
C91   C     C_R   0.588866 0.010073 0.455642 0.023674
C92   C     C_R   0.411991 0.005968 0.534394 0.030748
C93   C     C_R   0.455200 0.590073 0.007535 0.017269
C94   C     C_R   0.535101 0.412733 0.002317 0.031007
C95   C     C_R   0.009681 0.458485 0.586258 0.014689
C96   C     C_R   0.030863 0.524139 0.402483 0.026793
C97   C     C_R   0.453137 0.998051 0.447525 -0.028042
C98   C     C_R   0.550417 0.008801 0.545358 -0.026809
C99   C     C_R   0.003670 0.445744 0.449408 -0.023131
C100  C     C_R   0.027495 0.541664 0.541400 -0.026226
C101  C     C_R   0.448467 0.454305 0.993411 -0.026696
C102  C     C_R   0.545010 0.551254 0.006880 -0.025174
C103  C     C_3   0.279794 0.904447 0.282178 -0.536507
H13   H     H_    0.334517 0.860421 0.244175 0.279992
H14   H     H_    0.249555 0.857969 0.340695 0.282519
H15   H     H_    0.232329 0.950291 0.242314 0.249559
C104  C     C_3   0.714963 0.100638 0.721303 -0.628101
H16   H     H_    0.657149 0.147029 0.755291 0.213405
H17   H     H_    0.757371 0.054425 0.766288 0.244428
H18   H     H_    0.751881 0.144615 0.665736 0.294166
C105  C     C_3   0.897191 0.285509 0.278665 -0.634358
H19   H     H_    0.855290 0.245552 0.333149 0.289925
H20   H     H_    0.849998 0.343880 0.245876 0.217204
H21   H     H_    0.943714 0.245213 0.232032 0.247545
C106  C     C_3   0.096741 0.724084 0.723116 -0.613772
H22   H     H_    0.142396 0.762622 0.670895 0.230341
H23   H     H_    0.042895 0.766381 0.764610 0.233015
H24   H     H_    0.139412 0.670568 0.763175 0.293750
C107  C     C_3   0.283756 0.278402 0.899695 -0.636862
H25   H     H_    0.341093 0.245687 0.852096 0.218126
H26   H     H_    0.244123 0.231600 0.946842 0.248754
H27   H     H_    0.242974 0.332909 0.857868 0.285983
C108  C     C_3   0.720264 0.714544 0.102390 -0.636710
H28   H     H_    0.754363 0.656465 0.148741 0.216042
H29   H     H_    0.765519 0.756122 0.056119 0.247707
H30   H     H_    0.665048 0.752940 0.145733 0.289949
N1    N     N_R   0.485514 0.894650 0.809136 0.146393
O25   O     O_R   0.559800 0.842072 0.827549 -0.380470
O26   O     O_R   0.412494 0.872654 0.857554 -0.384804
N2    N     N_R   0.595544 0.875518 0.249914 0.105887
O27   O     O_R   0.566909 0.805604 0.276492 -0.373922
O28   O     O_R   0.670009 0.877819 0.188438 -0.399499
N3    N     N_R   0.137683 0.752899 0.404669 0.115864
O29   O     O_R   0.123196 0.823775 0.339181 -0.390072
O30   O     O_R   0.211585 0.725646 0.426889 -0.355422
N4    N     N_R   0.869677 0.251356 0.594791 0.099290
O31   O     O_R   0.798217 0.277839 0.568484 -0.372541
O32   O     O_R   0.879950 0.182033 0.662605 -0.395232
N5    N     N_R   0.808841 0.483906 0.896889 0.145338
O33   O     O_R   0.825047 0.558014 0.841647 -0.381906
O34   O     O_R   0.862631 0.408926 0.881605 -0.405840
N6    N     N_R   0.251637 0.597099 0.869586 0.109073
O35   O     O_R   0.266693 0.559872 0.808298 -0.378291
O36   O     O_R   0.217883 0.683129 0.853299 -0.401313
N7    N     N_R   0.187599 0.108917 0.513385 0.146588
O37   O     O_R   0.168521 0.160853 0.439281 -0.365916
O38   O     O_R   0.138724 0.130928 0.586502 -0.375733
N8    N     N_R   0.748687 0.128541 0.404728 0.132009
O39   O     O_R   0.728785 0.193443 0.439051 -0.362760
O40   O     O_R   0.793884 0.137283 0.321886 -0.399504
N9    N     N_R   0.513229 0.189469 0.106990 0.148784
O41   O     O_R   0.438777 0.172120 0.158800 -0.363677
O42   O     O_R   0.586259 0.139635 0.129315 -0.386850
N10   N     N_R   0.402318 0.752603 0.125519 0.113482
O43   O     O_R   0.429649 0.726168 0.196370 -0.354400
O44   O     O_R   0.328724 0.815777 0.120741 -0.381481
N11   N     N_R   0.130329 0.477423 0.184267 0.137359
O45   O     O_R   0.168580 0.397332 0.174243 -0.367322
O46   O     O_R   0.164553 0.541092 0.127568 -0.409532
N12   N     N_R   0.118985 0.400119 0.753090 0.117876
O47   O     O_R   0.191555 0.423886 0.727508 -0.364340
O48   O     O_R   0.115888 0.322357 0.808840 -0.387776

loop_
_geom_bond_atom_site_label_1
_geom_bond_atom_site_label_2
_geom_bond_distance
_ccdc_geom_bond_type
C7    C26   1.415187 A    
H5    C82   1.080506 S    
C11   C28   1.412504 A    
C2    C26   1.412539 A    
C95   C100  1.406575 A    
C1    C49   1.430912 A    
C90   C102  1.401386 A    
C108  H28   1.110562 S    
C73   C79   1.396797 A    
O5    C19   1.307037 A    
C15   O15   1.287150 A    
N1    O25   1.302079 A    
C66   C78   1.409295 A    
C21   O21   1.294278 A    
C23   C31   1.501428 S    
C17   O17   1.290909 A    
Cu1   O13   1.968207 S    
C44   C67   1.411414 A    
C103  H13   1.100262 S    
Cu2   O14   1.968206 S    
C43   C68   1.418086 A    
C14   C42   1.502921 S    
N5    O33   1.301999 A    
Cu3   O22   1.972856 S    
C35   C59   1.418457 A    
C32   C56   1.409423 A    
Cu4   O16   1.970894 S    
N8    O39   1.302123 A    
C13   O13   1.290928 A    
Cu5   O17   1.975650 S    
H11   C76   1.078333 S    
Cu6   O18   1.975648 S    
C55   C103  1.501674 S    
C66   C94   1.400972 A    
C94   C101  1.400136 A    
C46   N4    1.436492 S    
C104  H17   1.110299 S    
C70   C82   1.410013 A    
C72   C84   1.408902 A    
Cu4   O21   1.972855 S    
C64   C96   1.410876 A    
C87   C99   1.404236 A    
C2    C32   1.423672 A    
C4    C54   1.421030 A    
C25   C97   1.409090 A    
N6    O35   1.302506 A    
O8    C18   1.312438 A    
C59   C107  1.514818 S    
C28   C100  1.419756 A    
H3    C84   1.076694 S    
C65   C93   1.402404 A    
C85   C91   1.408244 A    
C107  H26   1.110278 S    
H9    C78   1.080955 S    
C62   C74   1.409754 A    
C67   C85   1.402145 A    
C106  H22   1.110720 S    
C20   C36   1.498994 S    
C48   N6    1.443699 S    
C12   C27   1.413599 A    
N9    O42   1.300226 A    
H1    C80   1.080976 S    
C19   C35   1.490804 S    
C47   N5    1.443531 S    
C57   C105  1.511149 S    
C7    C37   1.436902 A    
C48   C69   1.415841 A    
C16   O16   1.287928 A    
C2    C50   1.425136 A    
C105  H20   1.110608 S    
C51   N9    1.446182 S    
C16   C40   1.499845 S    
C52   N10   1.439509 S    
O10   Cu3   1.968139 S    
C15   C39   1.497609 S    
Cu3   O15   1.970895 S    
C13   C41   1.509743 S    
C51   C66   1.418120 A    
O11   C13   1.314516 A    
N11   O45   1.302167 A    
C108  H29   1.110260 S    
O7    Cu6   1.969684 S    
O12   C14   1.312422 A    
O1    Cu1   1.970619 S    
C38   C55   1.403273 A    
C3    C27   1.412728 A    
C1    C31   1.437261 A    
C63   C75   1.401862 A    
C85   C97   1.403423 A    
C8    C25   1.412605 A    
C6    C52   1.429245 A    
C65   C77   1.409929 A    
C107  H27   1.100360 S    
C103  H14   1.092377 S    
N2    O28   1.300239 A    
N4    O31   1.301367 A    
O5    Cu5   1.962707 S    
Cu5   O20   1.966073 S    
N5    O34   1.298969 A    
N12   O47   1.301726 A    
C50   C61   1.411890 A    
C69   C81   1.406883 A    
C11   C41   1.438165 A    
C7    C43   1.431870 A    
Cu1   O24   1.975818 S    
C10   C48   1.426574 A    
C9    C30   1.417514 A    
N3    O30   1.301082 A    
C104  H18   1.098777 S    
C92   C97   1.401288 A    
O3    C21   1.300466 A    
C12   C46   1.423185 A    
C3    C53   1.420665 A    
H2    C79   1.077948 S    
O11   Cu2   1.963912 S    
Cu1   Cu2   2.674540 S    
C52   C65   1.415136 A    
C63   C95   1.402908 A    
C9    C39   1.440238 A    
H7    C74   1.080851 S    
C68   C80   1.409559 A    
C47   C70   1.417375 A    
C50   N8    1.443291 S    
O4    C22   1.309693 A    
Cu5   Cu6   2.677493 S    
C86   C92   1.409071 A    
C19   O19   1.288785 A    
C62   C92   1.402145 A    
C89   C93   1.410952 A    
N3    O29   1.301377 A    
C17   C37   1.494898 S    
C90   C94   1.409830 A    
O6    C20   1.313448 A    
C46   C71   1.414623 A    
C14   O14   1.290663 A    
C8    C44   1.426629 A    
O10   C16   1.311452 A    
H10   C77   1.077659 S    
C4    C28   1.415024 A    
C58   C106  1.511575 S    
C70   C90   1.400544 A    
C105  H21   1.110210 S    
C42   C57   1.407596 A    
C23   O23   1.290672 A    
H12   C75   1.079958 S    
N12   O48   1.300615 A    
O9    C15   1.309219 A    
C69   C89   1.400383 A    
C93   C102  1.402784 A    
O6    Cu6   1.962707 S    
Cu6   O19   1.966074 S    
C5    C29   1.414402 A    
C30   C102  1.411546 A    
C108  H30   1.100749 S    
C60   C108  1.512428 S    
C49   C62   1.418284 A    
C56   C104  1.511057 S    
C40   C59   1.405862 A    
C54   C63   1.407020 A    
O8    Cu5   1.969683 S    
C53   N11   1.447072 S    
C39   C60   1.417108 A    
C88   C96   1.421394 A    
Cu2   O23   1.975818 S    
C10   C29   1.411715 A    
C103  H15   1.110341 S    
C89   C101  1.401312 A    
N2    O27   1.301661 A    
C12   C42   1.428985 A    
C75   C83   1.392085 A    
C74   C80   1.404627 A    
H4    C83   1.076031 S    
C54   N12   1.441670 S    
C45   N3    1.429312 S    
C24   C32   1.503231 S    
C37   C56   1.419967 A    
N8    O40   1.300193 A    
H6    C81   1.080808 S    
C33   C57   1.416779 A    
C45   C72   1.419880 A    
C8    C38   1.423423 A    
O1    C23   1.308490 A    
C11   C45   1.426885 A    
N10   O43   1.301580 A    
C96   C99   1.408301 A    
O2    Cu2   1.970619 S    
N4    O32   1.300688 A    
C18   C38   1.498211 S    
C49   N7    1.446805 S    
C20   O20   1.288499 A    
C77   C81   1.398696 A    
C106  H24   1.095866 S    
C6    C36   1.428325 A    
C21   C33   1.494954 S    
C72   C88   1.407141 A    
C5    C35   1.438452 A    
C61   C73   1.406039 A    
C22   C34   1.509495 S    
C53   C64   1.420306 A    
C27   C99   1.413737 A    
O12   Cu1   1.963912 S    
O3    Cu3   1.968403 S    
C31   C55   1.419257 A    
C61   C91   1.401594 A    
N7    O37   1.302052 A    
C76   C84   1.391850 A    
C22   O22   1.293844 A    
C104  H16   1.110478 S    
C24   O24   1.292255 A    
C67   C79   1.408649 A    
H8    C73   1.079902 S    
C107  H25   1.110636 S    
C34   C58   1.417461 A    
O2    C24   1.309642 A    
C26   C98   1.409346 A    
C71   C83   1.408549 A    
O7    C17   1.306966 A    
C36   C60   1.407871 A    
N6    O36   1.300774 A    
C18   O18   1.287938 A    
C5    C51   1.431903 A    
C86   C98   1.400946 A    
C88   C100  1.404894 A    
C6    C30   1.411635 A    
N7    O38   1.300517 A    
N10   O44   1.300265 A    
C29   C101  1.411377 A    
C41   C58   1.413287 A    
C87   C95   1.413703 A    
C91   C98   1.401429 A    
C106  H23   1.110426 S    
N9    O41   1.302010 A    
O4    Cu4   1.968405 S    
C9    C47   1.430644 A    
Cu3   Cu4   2.672798 S    
N11   O46   1.297867 A    
C3    C33   1.431581 A    
C4    C34   1.432119 A    
C105  H19   1.099227 S    
C71   C87   1.409568 A    
C43   N1    1.446881 S    
C44   N2    1.439920 S    
C10   C40   1.427500 A    
C64   C76   1.404317 A    
C78   C82   1.404526 A    
O9    Cu4   1.968139 S    
C68   C86   1.401172 A    
C1    C25   1.418291 A    
N1    O26   1.300342 A    
