data_mof_unit_23010.cif
_audit_creation_date              2012-12-11T15:33:35-0500
_audit_creation_method            fapswitch 2.2
_symmetry_space_group_name_H-M    P1
_symmetry_Int_Tables_number       1
_space_group_crystal_system       triclinic
_cell_length_a                    27.091331
_cell_length_b                    7.194093
_cell_length_c                    22.734061
_cell_angle_alpha                 90.00162
_cell_angle_beta                  101.266448
_cell_angle_gamma                 90.001126
_cell_volume                      4345.42774051

loop_
_atom_site_label
_atom_site_type_symbol
_atom_type_description
_atom_site_fract_x
_atom_site_fract_y
_atom_site_fract_z
_atom_type_partial_charge
O1    O     O_R   0.207310 0.594030 0.676830 -0.533104
O2    O     O_R   0.792690 0.405970 0.323170 -0.533363
O3    O     O_R   0.292690 0.094030 0.823170 -0.533104
O4    O     O_R   0.707310 0.905970 0.176830 -0.533365
O5    O     O_R   0.197320 0.262370 0.795700 -0.538870
O6    O     O_R   0.802680 0.737630 0.204300 -0.538853
O7    O     O_R   0.302680 0.762370 0.704300 -0.538871
O8    O     O_R   0.697320 0.237630 0.295700 -0.538852
C1    C     C_R   0.184602 0.432528 0.811890 0.674433
C2    C     C_R   0.815374 0.567477 0.188078 0.674812
C3    C     C_R   0.315398 0.932528 0.688110 0.674412
C4    C     C_R   0.684626 0.067477 0.311922 0.674817
O9    O     O_R   0.201410 0.264250 0.675590 -0.534201
O10   O     O_R   0.798590 0.735750 0.324410 -0.534328
O11   O     O_R   0.298590 0.764250 0.824410 -0.534191
O12   O     O_R   0.701410 0.235750 0.175590 -0.534317
O13   O     O_R   0.296810 0.094940 0.702210 -0.538510
O14   O     O_R   0.703190 0.905060 0.297790 -0.538317
O15   O     O_R   0.203190 0.594940 0.797790 -0.538508
O16   O     O_R   0.796810 0.405060 0.202210 -0.538319
C5    C     C_R   0.190096 0.431596 0.652922 0.687292
C6    C     C_R   0.809947 0.568388 0.347033 0.686630
C7    C     C_R   0.309904 0.931605 0.847076 0.687303
C8    C     C_R   0.690054 0.068381 0.152967 0.686655
O17   O     O_3   0.281300 0.427390 0.758870 -0.371890
O18   O     O_3   0.718700 0.572610 0.241130 -0.371862
O19   O     O_3   0.218700 0.927390 0.741130 -0.371895
O20   O     O_3   0.781300 0.072610 0.258870 -0.371871
V1    V     V_3+5 0.244190 0.152150 0.748350 1.404550
V2    V     V_3+5 0.755810 0.847850 0.251650 1.403673
V3    V     V_3+5 0.255810 0.652150 0.751650 1.404557
V4    V     V_3+5 0.744190 0.347850 0.248350 1.403687
C9    C     C_R   0.655049 0.072691 0.094131 -0.048230
C10   C     C_R   0.344659 0.927210 0.906114 -0.050744
C11   C     C_R   0.844958 0.572726 0.405866 -0.048209
C12   C     C_R   0.155343 0.427159 0.593881 -0.050785
C13   C     C_R   0.630705 0.241170 0.000797 -0.174294
C14   C     C_R   0.368940 0.757432 0.999219 -0.166185
C15   C     C_R   0.869321 0.741305 0.499182 -0.174284
C16   C     C_R   0.131035 0.257140 0.500823 -0.166330
C17   C     C_R   0.667071 0.189581 0.049959 -0.154491
C18   C     C_R   0.332791 0.807732 0.949712 -0.156573
C19   C     C_R   0.832946 0.689664 0.450033 -0.154475
C20   C     C_R   0.167191 0.307504 0.550315 -0.156529
C21   C     C_R   0.606457 0.996001 0.086036 -0.214267
C22   C     C_R   0.393016 0.006138 0.914826 -0.206651
C23   C     C_R   0.893548 0.496032 0.413956 -0.214352
C24   C     C_R   0.107000 0.506197 0.585143 -0.206680
C25   C     C_R   0.568529 0.043380 0.035088 0.070257
C26   C     C_R   0.430768 0.960085 0.966133 0.085994
C27   C     C_R   0.931483 0.543449 0.464894 0.070121
C28   C     C_R   0.069241 0.460091 0.533844 0.086082
C29   C     C_R   0.580736 0.177940 0.994281 0.074822
C30   C     C_R   0.418442 0.826692 0.007232 0.092628
C31   C     C_R   0.919289 0.678071 0.505691 0.074747
C32   C     C_R   0.081548 0.326549 0.492775 0.092754
C33   C     C_R   0.518517 0.967833 0.024788 0.025850
C34   C     C_R   0.480868 0.034887 0.976269 0.039403
C35   C     C_R   0.981490 0.467863 0.475198 0.025799
C36   C     C_R   0.019150 0.534967 0.523699 0.039610
C37   C     C_R   0.494000 0.178032 0.940085 -0.236572
C38   C     C_R   0.505347 0.824774 0.061002 -0.250286
C39   C     C_R   0.006032 0.678200 0.559862 -0.236455
C40   C     C_R   0.994641 0.324705 0.439009 -0.250482
C41   C     C_R   0.542797 0.248514 0.948119 -0.032712
C42   C     C_R   0.456269 0.757871 0.053801 -0.024986
C43   C     C_R   0.957238 0.748692 0.551836 -0.032796
C44   C     C_R   0.043711 0.257707 0.446215 -0.024729
H1    H     H_    0.401087 0.090151 0.878611 0.103594
H2    H     H_    0.598441 0.912253 0.122337 0.105198
H3    H     H_    0.098942 0.590340 0.621337 0.103613
H4    H     H_    0.901558 0.412252 0.377658 0.105192
H5    H     H_    0.295917 0.743649 0.943494 0.114934
H6    H     H_    0.704326 0.250134 0.055346 0.114031
H7    H     H_    0.204052 0.243318 0.556555 0.114962
H8    H     H_    0.795693 0.750223 0.444650 0.114030
H9    H     H_    0.641890 0.335820 0.968805 0.133662
H10   H     H_    0.358066 0.657308 0.029823 0.133156
H11   H     H_    0.858144 0.835996 0.531169 0.133661
H12   H     H_    0.141896 0.156834 0.470266 0.133132
H13   H     H_    0.466283 0.243773 0.905975 0.135956
H14   H     H_    0.532854 0.760038 0.095588 0.135548
H15   H     H_    0.033758 0.743979 0.593956 0.135945
H16   H     H_    0.967122 0.259959 0.404437 0.135494
C45   C     C_R   0.629618 0.881634 0.367795 -0.160139
C46   C     C_R   0.370518 0.118391 0.632394 -0.162279
C47   C     C_R   0.870381 0.381633 0.132204 -0.160146
C48   C     C_R   0.129482 0.618392 0.867608 -0.162280
H17   H     H_    0.644976 0.753926 0.353673 0.124816
H18   H     H_    0.355129 0.246094 0.646474 0.124656
H19   H     H_    0.855023 0.253925 0.146324 0.124814
H20   H     H_    0.144872 0.746095 0.853529 0.124654
C49   C     C_R   0.593715 0.868675 0.404316 -0.140333
C50   C     C_R   0.406500 0.131361 0.595976 -0.143638
C51   C     C_R   0.906284 0.368675 0.095683 -0.140322
C52   C     C_R   0.093501 0.631362 0.904025 -0.143633
H21   H     H_    0.582734 0.731897 0.416951 0.133535
H22   H     H_    0.417501 0.268144 0.583369 0.132990
H23   H     H_    0.917265 0.231896 0.083047 0.133538
H24   H     H_    0.082501 0.768144 0.916634 0.132991
C53   C     C_R   0.572509 0.029362 0.424397 0.019164
C54   C     C_R   0.427746 0.970679 0.575949 0.020046
C55   C     C_R   0.927491 0.529362 0.075603 0.019164
C56   C     C_R   0.072254 0.470680 0.924051 0.020050
C57   C     C_R   0.588098 0.203783 0.406496 -0.135678
C58   C     C_R   0.412139 0.796254 0.593824 -0.138983
C59   C     C_R   0.911903 0.703783 0.093506 -0.135673
C60   C     C_R   0.087860 0.296255 0.906174 -0.138983
H25   H     H_    0.572619 0.330769 0.420961 0.138579
H26   H     H_    0.427656 0.669273 0.579410 0.137920
H27   H     H_    0.927383 0.830769 0.079042 0.138583
H28   H     H_    0.072342 0.169273 0.920588 0.137921
C61   C     C_R   0.624099 0.216883 0.369831 -0.158713
C62   C     C_R   0.376060 0.783143 0.630385 -0.160392
C63   C     C_R   0.875902 0.716882 0.130171 -0.158722
C64   C     C_R   0.123939 0.283144 0.869614 -0.160395
H29   H     H_    0.635251 0.353529 0.357294 0.121141
H30   H     H_    0.364895 0.646493 0.642902 0.120755
H31   H     H_    0.864751 0.853529 0.142709 0.121142
H32   H     H_    0.135103 0.146494 0.857095 0.120754
C65   C     C_R   0.645543 0.055848 0.350056 -0.048294
C66   C     C_R   0.354555 0.944170 0.650079 -0.047175
C67   C     C_R   0.854457 0.555848 0.149944 -0.048301
C68   C     C_R   0.145445 0.444171 0.849921 -0.047174
N1    N     N_R   0.514098 0.168691 0.483836 -0.281688
N2    N     N_R   0.486198 0.831357 0.516564 -0.282080
N3    N     N_R   0.985903 0.668691 0.016165 -0.281680
N4    N     N_R   0.013801 0.331356 0.983435 -0.282073
N5    N     N_R   0.480391 0.154721 0.519270 -0.287414
N6    N     N_R   0.519905 0.845326 0.481130 -0.286686
N7    N     N_R   0.019609 0.654721 0.980731 -0.287407
N8    N     N_R   0.980095 0.345326 0.018869 -0.286677
C69   C     C_R   0.465647 0.985780 0.536490 0.510162
C70   C     C_R   0.534646 0.014267 0.463906 0.511478
C71   C     C_R   0.034353 0.485780 0.963510 0.510167
C72   C     C_R   0.965355 0.514267 0.036094 0.511486
C73   C     C_R   0.551585 0.406254 0.909413 0.094386
C74   C     C_R   0.544006 0.383600 0.846922 -0.136753
C75   C     C_R   0.550128 0.534376 0.810188 -0.110583
C76   C     C_R   0.563615 0.708585 0.835527 -0.096270
C77   C     C_R   0.570946 0.732361 0.897625 -0.108833
C78   C     C_R   0.564693 0.582249 0.934536 -0.129159
H33   H     H_    0.533317 0.249417 0.826773 0.109569
H34   H     H_    0.544291 0.516269 0.762061 0.118776
H35   H     H_    0.568295 0.825243 0.807051 0.109694
H36   H     H_    0.581367 0.867229 0.917060 0.127169
H37   H     H_    0.569816 0.603046 0.982542 0.122370
C79   C     C_R   0.446653 0.606761 0.094284 0.091219
C80   C     C_R   0.464640 0.426643 0.087249 -0.120787
C81   C     C_R   0.455871 0.283837 0.125644 -0.118232
C82   C     C_R   0.429428 0.320279 0.171377 -0.094426
C83   C     C_R   0.411825 0.499778 0.178905 -0.108369
C84   C     C_R   0.420484 0.643037 0.140580 -0.145923
H38   H     H_    0.485288 0.397214 0.052050 0.125854
H39   H     H_    0.469622 0.145085 0.120086 0.126152
H40   H     H_    0.422692 0.209541 0.201064 0.109287
H41   H     H_    0.391509 0.527914 0.214470 0.116091
H42   H     H_    0.406818 0.781773 0.146812 0.109804
C85   C     C_R   0.948460 0.906464 0.590539 0.094418
C86   C     C_R   0.956065 0.883864 0.653034 -0.136740
C87   C     C_R   0.949953 0.034665 0.689765 -0.110588
C88   C     C_R   0.936448 0.208847 0.664418 -0.096282
C89   C     C_R   0.929091 0.232569 0.602318 -0.108811
C90   C     C_R   0.935335 0.082432 0.565409 -0.129165
H43   H     H_    0.966766 0.749702 0.673187 0.109560
H44   H     H_    0.955810 0.016599 0.737894 0.118770
H45   H     H_    0.931776 0.325526 0.692892 0.109695
H46   H     H_    0.918655 0.367414 0.582878 0.127187
H47   H     H_    0.930190 0.103187 0.517400 0.122339
C91   C     C_R   0.053297 0.106485 0.405745 0.091293
C92   C     C_R   0.035015 0.926698 0.412569 -0.120824
C93   C     C_R   0.043728 0.783820 0.374170 -0.118156
C94   C     C_R   0.070414 0.819850 0.328642 -0.094397
C95   C     C_R   0.088310 0.999019 0.321315 -0.108398
C96   C     C_R   0.079699 0.142361 0.359638 -0.146082
H48   H     H_    0.014175 0.897579 0.447608 0.125775
H49   H     H_    0.029741 0.645336 0.379562 0.126184
H50   H     H_    0.077109 0.709053 0.298954 0.109333
H51   H     H_    0.108812 0.026842 0.285906 0.116080
H52   H     H_    0.093584 0.280848 0.353552 0.109912

loop_
_geom_bond_atom_site_label_1
_geom_bond_atom_site_label_2
_ccdc_geom_bond_type
C93   H49   S    
O17   V3    S    
C92   C93   A    
C48   C52   A    
O1    C5    A    
C56   C71   S    
C47   H19   S    
O19   V1    S    
C9    C21   A    
O3    C7    A    
C89   C90   A    
C10   C18   A    
C48   C68   A    
O15   V3    S    
C87   C88   A    
C25   C33   A    
C33   C38   A    
C5    C12   S    
C94   C95   A    
O7    C3    A    
C6    C11   S    
C35   C40   A    
C26   C30   A    
C58   C62   A    
C36   C39   A    
C40   C44   A    
C57   C61   A    
C14   C18   A    
N7    C71   A    
C74   H33   S    
C58   H26   S    
O4    C8    A    
C51   H23   S    
C91   C92   A    
C50   H22   S    
C55   C72   S    
O1    V3    S    
C1    C68   S    
O13   V1    S    
O2    V4    S    
C84   H42   S    
O3    V1    S    
C95   C96   A    
C40   H16   S    
C22   H1    S    
C46   C50   A    
C17   H6    S    
C45   C49   A    
C1    O15   A    
C15   C31   A    
C4    C65   S    
C48   H20   S    
N2    C69   A    
C2    O16   A    
C16   C32   A    
C47   C51   A    
O2    C6    A    
C82   C83   A    
C16   H12   S    
C45   C65   A    
C10   C22   A    
C11   C19   A    
C16   C20   A    
C42   C79   S    
C87   H44   S    
O8    C4    A    
C13   C29   A    
C34   C37   A    
O11   C7    A    
C38   H14   S    
C73   C74   A    
C11   C23   A    
C35   C36   A    
O12   C8    A    
C90   H47   S    
N6    C70   A    
C44   C91   S    
O10   V2    S    
N4    N8    A    
C51   C55   A    
O5    V1    S    
C91   C96   A    
C53   C57   A    
C39   C43   A    
C73   C78   A    
O7    V3    S    
C38   C42   A    
C26   C34   A    
C63   C67   A    
N3    C72   A    
C2    C67   S    
C46   H18   S    
N4    C71   A    
C49   C53   A    
C45   H17   S    
O18   V4    S    
C23   C27   A    
C14   H10   S    
C53   C70   S    
C13   H9    S    
C64   H32   S    
C39   H15   S    
O8    V4    S    
C37   H13   S    
C20   H7    S    
C80   H38   S    
O5    C1    A    
N1    N5    A    
C75   H34   S    
C31   C43   A    
C85   C86   A    
C14   C30   A    
C21   C25   A    
N8    C72   A    
C7    C10   S    
O9    C5    A    
C82   H40   S    
C76   C77   A    
C59   C63   A    
C62   H30   S    
C77   H36   S    
C61   H29   S    
O6    V2    S    
C63   H31   S    
C81   H39   S    
C52   C56   A    
O14   V2    S    
N5    C69   A    
C12   C20   A    
C3    C66   S    
C27   C35   A    
C79   C84   A    
C24   H3    S    
C49   H21   S    
C56   C60   A    
C29   C41   A    
C93   C94   A    
C55   C59   A    
C88   C89   A    
O16   V4    S    
O9    V1    S    
C19   H8    S    
C57   H25   S    
C83   H41   S    
C3    O13   A    
C18   H5    S    
C64   C68   A    
C21   H2    S    
C85   C90   A    
C59   H27   S    
C78   H37   S    
C76   H35   S    
O6    C2    A    
C15   C19   A    
C75   C76   A    
O11   V3    S    
C96   H52   S    
C30   C42   A    
O12   V4    S    
C92   H48   S    
C22   C26   A    
C8    C9    S    
C9    C17   A    
C86   C87   A    
O10   C6    A    
C86   H43   S    
C89   H46   S    
C54   C69   S    
C41   C73   S    
N1    C70   A    
C32   C44   A    
C77   C78   A    
C47   C67   A    
C60   C64   A    
C33   C34   A    
C94   H50   S    
C25   C29   A    
C52   H24   S    
O20   V2    S    
C12   C24   A    
C27   C31   A    
C79   C80   A    
C37   C41   A    
C13   C17   A    
C46   C66   A    
N3    N7    A    
C23   H4    S    
C74   C75   A    
C88   H45   S    
C62   C66   A    
C60   H28   S    
C24   C28   A    
C61   C65   A    
C83   C84   A    
C50   C54   A    
C28   C36   A    
C54   C58   A    
C4    O14   A    
N2    N6    A    
C81   C82   A    
C43   C85   S    
C80   C81   A    
C95   H51   S    
O4    V2    S    
C28   C32   A    
C15   H11   S    
