data_mof_unit_37887.cif
_audit_creation_date              2012-12-11T17:17:11-0500
_audit_creation_method            fapswitch 2.2
_symmetry_space_group_name_H-M    P1
_symmetry_Int_Tables_number       1
_space_group_crystal_system       triclinic
_cell_length_a                    6.940416
_cell_length_b                    13.370317
_cell_length_c                    14.670904
_cell_angle_alpha                 98.864766
_cell_angle_beta                  89.788824
_cell_angle_gamma                 90.282634
_cell_volume                      1345.11041148

loop_
_atom_site_label
_atom_site_type_symbol
_atom_type_description
_atom_site_fract_x
_atom_site_fract_y
_atom_site_fract_z
_atom_type_partial_charge
O1    O     O_R   0.354890 0.151580 0.148210 -0.534831
O2    O     O_R   0.645110 0.848420 0.851790 -0.534831
O3    O     O_R   0.682370 0.152980 0.336770 -0.546765
O4    O     O_R   0.317630 0.847020 0.663230 -0.546771
O5    O     O_R   0.854980 0.348430 0.351800 -0.535007
O6    O     O_R   0.145020 0.651570 0.648200 -0.535007
C1    C     C_R   0.513352 0.130923 0.365981 0.688495
C2    C     C_R   0.486648 0.869077 0.634020 0.688493
O7    O     O_R   0.684450 0.139580 0.148000 -0.538794
O8    O     O_R   0.315550 0.860420 0.852000 -0.538795
O9    O     O_R   0.857080 0.334940 0.161680 -0.538358
O10   O     O_R   0.142920 0.665060 0.838320 -0.538358
C3    C     C_R   0.515535 0.112651 0.114043 0.731447
C4    C     C_R   0.484465 0.887349 0.885957 0.731449
O11   O     O_R   0.352790 0.165070 0.338330 -0.538026
O12   O     O_R   0.647210 0.834930 0.661670 -0.538024
O13   O     O_3   0.522170 0.314120 0.254710 -0.367519
O14   O     O_3   0.477830 0.685880 0.745290 -0.367518
V1    V     V_3+5 0.796120 0.238110 0.249130 1.403365
V2    V     V_3+5 0.203880 0.761890 0.750870 1.403360
O15   O     O_R   0.186930 0.347040 0.163240 -0.543195
O16   O     O_R   0.813070 0.652960 0.836760 -0.543195
C5    C     C_R   0.018602 0.368786 0.133579 0.678870
C6    C     C_R   0.981398 0.631215 0.866421 0.678871
O17   O     O_R   0.184850 0.360440 0.352010 -0.537103
O18   O     O_R   0.815150 0.639560 0.647990 -0.537102
C7    C     C_R   0.015825 0.387298 0.386012 0.735289
C8    C     C_R   0.984174 0.612702 0.613988 0.735286
V3    V     V_3+5 0.296410 0.261900 0.250880 1.412480
V4    V     V_3+5 0.703590 0.738100 0.749120 1.412481
O19   O     O_3   0.020490 0.185890 0.245290 -0.370756
O20   O     O_3   0.979510 0.814110 0.754710 -0.370757
C9    C     C_1   0.005138 0.466894 0.466351 -0.192809
C10   C     C_1   0.994862 0.533106 0.533648 -0.192812
C11   C     C_3   0.080160 0.589586 0.033607 -0.141649
C12   C     C_3   0.919840 0.410414 0.966394 -0.141649
C13   C     C_3   0.904848 0.541272 0.076357 -0.143267
C14   C     C_3   0.095152 0.458729 0.923643 -0.143267
H1    H     H_    0.826612 0.574948 0.139764 0.102780
H2    H     H_    0.173388 0.425052 0.860236 0.102784
H3    H     H_    0.146279 0.663906 0.060875 0.100419
H4    H     H_    0.853721 0.336094 0.939125 0.100417
C15   C     C_3   0.009826 0.438894 0.062725 -0.005551
C16   C     C_3   0.990174 0.561107 0.937275 -0.005553
C17   C     C_3   0.185345 0.486400 0.020773 -0.114649
C18   C     C_3   0.814655 0.513600 0.979227 -0.114648
H5    H     H_    0.338323 0.474953 0.038285 0.107037
H6    H     H_    0.661676 0.525047 0.961715 0.107037
C19   C     C_3   0.318970 0.014786 0.471596 -0.152990
C20   C     C_3   0.681029 0.985215 0.528405 -0.153020
C21   C     C_3   0.420697 0.910486 0.463726 -0.181797
C22   C     C_3   0.579302 0.089516 0.536274 -0.181822
H7    H     H_    0.356454 0.836452 0.434031 0.111287
H8    H     H_    0.643540 0.163551 0.565971 0.111297
H9    H     H_    0.169985 0.027176 0.448480 0.119705
H10   H     H_    0.830016 0.972824 0.551517 0.119728
C23   C     C_3   0.495438 0.939151 0.563436 -0.082421
C24   C     C_3   0.504563 0.060851 0.436564 -0.082423
C25   C     C_3   0.394759 0.042275 0.571241 0.193261
C26   C     C_3   0.605241 0.957728 0.428761 0.193255
C27   C     C_1   0.504946 0.033089 0.033672 -0.195814
C28   C     C_1   0.495054 0.966911 0.966328 -0.195813
C29   C     C_3   0.273292 0.089807 0.653581 -0.359622
C30   C     C_3   0.190328 0.191385 0.638377 -0.772937
H11   H     H_    0.308096 0.245121 0.628119 0.224992
H12   H     H_    0.094567 0.181313 0.577102 0.221805
H13   H     H_    0.104589 0.224083 0.699740 0.213870
H14   H     H_    0.153033 0.037609 0.664073 0.182990
H15   H     H_    0.364448 0.100814 0.716437 0.165784
C31   C     C_3   0.726717 0.910192 0.346425 -0.359590
C32   C     C_3   0.809519 0.808572 0.361603 -0.772925
H16   H     H_    0.905309 0.818587 0.422870 0.221802
H17   H     H_    0.691665 0.754887 0.371865 0.224986
H18   H     H_    0.895191 0.775843 0.300228 0.213868
H19   H     H_    0.635601 0.899241 0.283555 0.165781
H20   H     H_    0.847054 0.962358 0.335969 0.182967

loop_
_geom_bond_atom_site_label_1
_geom_bond_atom_site_label_2
_ccdc_geom_bond_type
V4    O20   S    
O13   V3    S    
C12   H4    S    
O4    C2    A    
V1    O19   S    
C7    C9    S    
O9    V1    S    
C11   C13   S    
O3    C1    A    
C23   C25   S    
O12   V4    S    
C4    C28   S    
C5    C15   S    
O7    C3    A    
C14   C17   S    
O5    C7    A    
O7    V1    S    
O6    C8    A    
C29   H15   S    
O8    V2    S    
C19   C21   S    
C20   C22   S    
O3    V1    S    
C31   C32   S    
C21   C23   S    
C1    C24   S    
C22   H8    S    
C1    O11   A    
C8    C10   S    
C2    O12   A    
O2    C4    A    
C16   C18   S    
O11   V3    S    
C17   H5    S    
O17   V3    S    
C18   H6    S    
C30   H13   S    
O8    C4    A    
C32   H17   S    
C19   H9    S    
O15   V3    S    
C20   H10   S    
C19   C24   S    
C21   H7    S    
C30   H12   S    
C13   C15   S    
C14   C16   S    
C22   C25   S    
C2    C23   S    
C26   C31   S    
O10   V2    S    
O1    V3    S    
C9    C10   T    
C12   C18   S    
C11   C16   S    
C15   C17   S    
C22   C24   S    
O14   V4    S    
O18   V4    S    
O15   C5    A    
C31   H20   S    
C6    C16   S    
O16   C6    A    
O1    C3    A    
C11   C17   S    
V2    O20   S    
C29   H14   S    
O16   V4    S    
C20   C23   S    
C25   C29   S    
C32   H18   S    
O5    V1    S    
O17   C7    A    
O6    V2    S    
O10   C6    A    
O18   C8    A    
C19   C25   S    
O2    V4    S    
C20   C26   S    
C30   H11   S    
C12   C14   S    
C32   H16   S    
V3    O19   S    
C14   H2    S    
O9    C5    A    
O13   V1    S    
O14   V2    S    
C27   C28   T    
C11   H3    S    
C29   C30   S    
O4    V2    S    
C3    C27   S    
C13   H1    S    
C31   H19   S    
C12   C15   S    
C21   C26   S    
C13   C18   S    
C24   C26   S    
