data_mof_unit_48125.cif
_audit_creation_date              2012-10-26T17:11:25-0400
_audit_creation_method            fapswitch 2.2
_symmetry_space_group_name_H-M    P1
_symmetry_Int_Tables_number       1
_space_group_crystal_system       triclinic
_cell_length_a                    27.942957
_cell_length_b                    18.750809
_cell_length_c                    16.866479
_cell_angle_alpha                 89.986359
_cell_angle_beta                  62.508029
_cell_angle_gamma                 89.981385
_cell_volume                      7839.30166543

loop_
_atom_site_label
_atom_site_type_symbol
_atom_type_description
_atom_site_fract_x
_atom_site_fract_y
_atom_site_fract_z
_atom_type_partial_charge
C1    C     C_R   0.294980 0.728171 0.329680 0.533063
C2    C     C_R   0.610826 0.000021 0.466025 0.022055
C3    C     C_R   0.690025 0.714175 0.904272 -0.009171
C4    C     C_R   0.926526 0.903154 0.066604 0.551786
C5    C     C_R   0.073383 0.096962 0.933464 0.552206
C6    C     C_R   0.073362 0.903008 0.933485 0.552386
C7    C     C_R   0.926458 0.096804 0.066635 0.551529
C8    C     C_R   0.426520 0.403163 0.066608 0.550875
C9    C     C_R   0.573378 0.596969 0.933467 0.552072
C10   C     C_R   0.573430 0.403044 0.933459 0.551700
C11   C     C_R   0.426510 0.596828 0.066610 0.551530
C12   C     C_R   0.073236 0.628406 0.424792 0.008268
C13   C     C_R   0.917167 0.499904 0.436744 0.024532
C14   C     C_R   0.972130 0.369915 0.423040 0.008040
C15   C     C_R   0.973464 0.629439 0.418637 0.010974
C16   C     C_R   0.069924 0.370161 0.435250 0.006058
C17   C     C_R   0.569882 0.129423 0.435244 0.005001
C18   C     C_R   0.472012 0.870205 0.423402 0.008727
C19   C     C_R   0.472226 0.129752 0.422528 0.008163
C20   C     C_R   0.569602 0.870535 0.436200 0.006479
C21   C     C_R   0.054034 0.692702 0.404650 -0.000690
C22   C     C_R   0.999676 0.304688 0.416411 -0.006967
C23   C     C_R   0.002885 0.693920 0.406094 -0.003073
C24   C     C_R   0.111930 0.499933 0.462685 0.024880
C25   C     C_R   0.048684 0.304818 0.422277 -0.007385
C26   C     C_R   0.549278 0.194573 0.420231 -0.009850
C27   C     C_R   0.499839 0.805097 0.415977 -0.006565
C28   C     C_R   0.500291 0.194771 0.414305 -0.007384
C29   C     C_R   0.548779 0.805281 0.422029 -0.007529
C30   C     C_R   0.995316 0.564791 0.430180 0.001678
C31   C     C_R   0.042968 0.434652 0.439846 0.002700
C32   C     C_R   0.044476 0.564572 0.435092 0.004897
C33   C     C_R   0.994335 0.434619 0.433352 0.002989
C34   C     C_R   0.493927 0.065130 0.434478 0.003260
C35   C     C_R   0.618030 0.873035 0.442679 -0.083361
C36   C     C_R   0.542258 0.934934 0.441964 0.003299
C37   C     C_R   0.542394 0.065072 0.441487 0.003432
C38   C     C_R   0.493808 0.934869 0.434937 0.003323
C39   C     C_R   0.468133 0.000005 0.435860 0.004351
C40   C     C_R   0.564972 0.000015 0.450324 0.004411
C41   C     C_R   0.968827 0.499800 0.433779 0.004217
C42   C     C_R   0.066278 0.499755 0.446400 0.006113
C43   C     C_R   0.391630 0.934800 0.437236 -0.012839
C44   C     C_R   0.634863 0.065018 0.470574 -0.010880
C45   C     C_R   0.634803 0.935012 0.470775 -0.011179
C46   C     C_R   0.423201 0.127693 0.417740 -0.087383
C47   C     C_R   0.391666 0.065209 0.437049 -0.012513
C48   C     C_R   0.891758 0.434696 0.437020 -0.012708
C49   C     C_R   0.135832 0.565049 0.467435 -0.013622
C50   C     C_R   0.135393 0.434890 0.468975 -0.011128
C51   C     C_R   0.891901 0.565166 0.436634 -0.014864
C52   C     C_R   0.336649 0.934673 0.453252 -0.028462
C53   C     C_R   0.676333 0.064912 0.498530 -0.024970
C54   C     C_R   0.676305 0.935107 0.498629 -0.024907
C55   C     C_R   0.336665 0.065345 0.453177 -0.028914
C56   C     C_R   0.836696 0.434648 0.453372 -0.029052
C57   C     C_R   0.423109 0.872282 0.418262 -0.086858
C58   C     C_R   0.176579 0.565001 0.497258 -0.023767
C59   C     C_R   0.176509 0.435098 0.497739 -0.025202
C60   C     C_R   0.836750 0.565328 0.453304 -0.029300
C61   C     C_R   0.310554 0.000016 0.460875 -0.157274
C62   C     C_R   0.695086 0.000005 0.513719 -0.160958
C63   C     C_R   0.810596 0.500009 0.461215 -0.157184
C64   C     C_R   0.195026 0.500078 0.513171 -0.160735
C65   C     C_2   0.575320 0.735901 0.420085 0.201256
C66   C     C_2   0.477339 0.264273 0.405556 0.202319
C67   C     C_2   0.476633 0.735565 0.408073 0.202129
C68   C     C_R   0.618206 0.126952 0.442133 -0.085870
C69   C     C_2   0.576162 0.263885 0.417060 0.198716
C70   C     C_2   0.074857 0.235368 0.421398 0.199321
C71   C     C_2   0.981069 0.763469 0.394509 0.179332
C72   C     C_2   0.976060 0.235141 0.409701 0.200458
C73   C     C_2   0.085588 0.760097 0.385566 0.182421
C74   C     C_R   0.118378 0.372667 0.441689 -0.083314
C75   C     C_R   0.923565 0.627611 0.416603 -0.086254
C76   C     C_R   0.923144 0.372067 0.418183 -0.086990
C77   C     C_R   0.704890 0.271592 0.670366 0.548820
C78   C     C_R   0.119758 0.626846 0.437420 -0.099643
C79   C     C_R   0.219941 0.766389 0.954215 0.031787
C80   C     C_R   0.778144 0.231661 0.047984 0.029879
C81   C     C_R   0.778473 0.768788 0.047335 0.029159
C82   C     C_R   0.220126 0.233327 0.954033 0.031063
C83   C     C_R   0.720234 0.265510 0.953434 0.029609
C84   C     C_R   0.278239 0.730937 0.047595 0.037792
C85   C     C_R   0.278465 0.268799 0.047342 0.030276
C86   C     C_R   0.720116 0.733335 0.954045 0.030135
C87   C     C_R   0.240596 0.697295 0.948569 -0.104512
C88   C     C_R   0.704952 0.728299 0.670371 0.548918
C89   C     C_R   0.721514 0.227744 0.090272 -0.111543
C90   C     C_R   0.757722 0.699747 0.053164 -0.111283
C91   C     C_R   0.240717 0.302440 0.948427 -0.106859
C92   C     C_R   0.776844 0.269435 0.911222 -0.106619
C93   C     C_R   0.257489 0.799979 0.053370 -0.090021
C94   C     C_R   0.257815 0.199721 0.053025 -0.110559
C95   C     C_R   0.740806 0.802412 0.948295 -0.108415
C96   C     C_R   0.269396 0.679700 0.994923 -0.101515
C97   C     C_R   0.692839 0.244577 0.043457 -0.112152
C98   C     C_R   0.728907 0.682159 0.006879 -0.110204
C99   C     C_R   0.294985 0.271820 0.329677 0.525176
C100  C     C_R   0.269536 0.320043 0.994738 -0.106921
C101  C     C_R   0.805503 0.252620 0.958004 -0.107896
C102  C     C_R   0.228707 0.817569 0.007030 -0.098167
C103  C     C_R   0.229008 0.182123 0.006728 -0.109378
C104  C     C_R   0.769634 0.820005 0.994594 -0.108929
C105  C     C_R   0.143872 0.828646 0.944240 -0.117506
C106  C     C_R   0.854821 0.169761 0.056792 -0.117756
C107  C     C_R   0.855083 0.830308 0.056584 -0.116448
C108  C     C_R   0.144014 0.171104 0.944136 -0.119759
C109  C     C_R   0.644067 0.328414 0.944145 -0.118572
C110  C     C_R   0.795015 0.228239 0.329698 0.524987
C111  C     C_R   0.354936 0.669511 0.056711 -0.117870
C112  C     C_R   0.355061 0.330343 0.056599 -0.115566
C113  C     C_R   0.643992 0.671135 0.944151 -0.119195
C114  C     C_R   0.117519 0.851485 0.895260 -0.013713
C115  C     C_R   0.881980 0.147964 0.105031 -0.014415
C116  C     C_R   0.882057 0.852099 0.105027 -0.014533
C117  C     C_R   0.117581 0.148416 0.895219 -0.013499
C118  C     C_R   0.617562 0.351364 0.895315 -0.013907
C119  C     C_R   0.381997 0.647830 0.105067 -0.013597
C120  C     C_R   0.382043 0.352119 0.105034 -0.014525
C121  C     C_R   0.204946 0.771689 0.670382 0.552963
C122  C     C_R   0.617570 0.648431 0.895224 -0.013370
C123  C     C_R   0.136291 0.829470 0.806996 -0.135448
C124  C     C_R   0.863587 0.170451 0.193035 -0.138058
C125  C     C_R   0.863599 0.829556 0.193026 -0.137093
C126  C     C_R   0.136310 0.170516 0.806992 -0.134178
C127  C     C_R   0.636266 0.329430 0.807021 -0.133369
C128  C     C_R   0.363581 0.670418 0.193033 -0.138525
C129  C     C_R   0.363590 0.329568 0.193029 -0.137933
C130  C     C_R   0.636306 0.670519 0.806992 -0.133447
C131  C     C_R   0.182225 0.787048 0.766088 -0.015644
C132  C     C_R   0.204952 0.228301 0.670371 0.548821
C133  C     C_R   0.817384 0.212315 0.234334 -0.016872
C134  C     C_R   0.817408 0.787669 0.234200 -0.016675
C135  C     C_R   0.182257 0.212888 0.766062 -0.016638
C136  C     C_R   0.682148 0.286947 0.765998 -0.016088
C137  C     C_R   0.317362 0.712271 0.234239 -0.019177
C138  C     C_R   0.317403 0.287674 0.234200 -0.016432
C139  C     C_R   0.682255 0.712887 0.766061 -0.016322
C140  C     C_R   0.208721 0.764444 0.815200 -0.114684
C141  C     C_R   0.790266 0.234043 0.185993 -0.120194
C142  C     C_R   0.790320 0.766120 0.185668 -0.121329
C143  C     C_R   0.794985 0.771820 0.329678 0.525504
C144  C     C_R   0.208802 0.235379 0.815122 -0.113667
C145  C     C_R   0.708566 0.263997 0.814967 -0.115651
C146  C     C_R   0.290202 0.733734 0.185785 -0.110889
C147  C     C_R   0.290317 0.266120 0.185667 -0.121133
C148  C     C_R   0.708800 0.735375 0.815121 -0.114321
C149  C     C_R   0.200989 0.631170 0.511666 0.541983
C150  C     C_R   0.803605 0.368262 0.471755 0.530490
C151  C     C_R   0.803638 0.631745 0.471687 0.530556
C152  C     C_R   0.200871 0.368864 0.512104 0.536385
C153  C     C_R   0.700850 0.131149 0.512235 0.536889
C154  C     C_R   0.416835 0.000007 0.437558 0.024637
C155  C     C_R   0.303608 0.868255 0.471684 0.535179
C156  C     C_R   0.303618 0.131761 0.471645 0.531197
C157  C     C_R   0.700823 0.868852 0.512318 0.536964
C158  C     C_R   0.189897 0.785580 0.904380 -0.009624
C159  C     C_R   0.808629 0.212596 0.097129 -0.009797
C160  C     C_R   0.808840 0.787667 0.096730 -0.009593
C161  C     C_R   0.190037 0.214161 0.904263 -0.009233
C162  C     C_R   0.689942 0.284998 0.904092 -0.009429
C163  C     C_R   0.308663 0.712110 0.096906 -0.011800
C164  C     C_R   0.308828 0.287685 0.096738 -0.009389
Cu1   Cu    Cu3+1 0.209920 0.785290 0.495070 0.966305
Cu2   Cu    Cu3+1 0.504760 0.500000 0.075850 0.928837
Cu3   Cu    Cu3+1 0.995240 0.000000 0.924150 0.947934
Cu4   Cu    Cu3+1 0.004760 0.000000 0.075850 0.933203
Cu5   Cu    Cu3+1 0.790080 0.214710 0.504930 1.034006
Cu6   Cu    Cu3+1 0.790080 0.785290 0.504930 1.032305
Cu7   Cu    Cu3+1 0.209920 0.214710 0.495070 1.022967
Cu8   Cu    Cu3+1 0.709920 0.285290 0.495070 1.028812
Cu9   Cu    Cu3+1 0.290080 0.714710 0.504930 1.037510
Cu10  Cu    Cu3+1 0.290080 0.285290 0.504930 1.037160
Cu11  Cu    Cu3+1 0.709920 0.714710 0.495070 1.028248
Cu12  Cu    Cu3+1 0.495240 0.500000 0.924150 0.961623
H1    H     H_    0.268460 0.000026 0.475812 0.162286
H2    H     H_    0.911025 0.674185 0.394070 0.186547
H3    H     H_    0.910953 0.325253 0.395501 0.180287
H4    H     H_    0.143898 0.673894 0.420790 0.205454
H5    H     H_    0.214080 0.871635 0.011305 0.107085
H6    H     H_    0.849071 0.256923 0.924153 0.114773
H7    H     H_    0.784337 0.874032 0.990202 0.109122
H8    H     H_    0.214437 0.128044 0.010963 0.107350
H9    H     H_    0.649262 0.240420 0.077319 0.101411
H10   H     H_    0.284094 0.625668 0.990598 0.107313
H11   H     H_    0.284165 0.374095 0.990463 0.107318
H12   H     H_    0.725757 0.999996 0.536055 0.159679
H13   H     H_    0.714263 0.628104 0.011229 0.109133
H14   H     H_    0.233860 0.656642 0.909218 0.108482
H15   H     H_    0.699421 0.210524 0.159163 0.099339
H16   H     H_    0.764494 0.659054 0.092466 0.108897
H17   H     H_    0.233903 0.343113 0.909158 0.108511
H18   H     H_    0.798952 0.286778 0.842399 0.118771
H19   H     H_    0.264257 0.840680 0.092633 0.110470
H20   H     H_    0.264659 0.159012 0.092221 0.107925
H21   H     H_    0.734065 0.843068 0.908919 0.109659
H22   H     H_    0.129243 0.845393 0.013013 0.134342
H23   H     H_    0.768458 0.500038 0.476419 0.162746
H24   H     H_    0.868177 0.151029 0.989083 0.134342
H25   H     H_    0.869454 0.847439 0.988006 0.134141
H26   H     H_    0.129438 0.154273 0.012872 0.128087
H27   H     H_    0.630519 0.346772 0.012054 0.129172
H28   H     H_    0.369268 0.652337 0.988163 0.135386
H29   H     H_    0.369418 0.347491 0.988030 0.136158
H30   H     H_    0.629401 0.654324 0.012897 0.128345
H31   H     H_    0.116372 0.847837 0.768816 0.157338
H32   H     H_    0.884030 0.152914 0.230736 0.158502
H33   H     H_    0.883993 0.847064 0.230801 0.160551
H34   H     H_    0.225264 0.500109 0.536458 0.158577
H35   H     H_    0.116344 0.152258 0.768855 0.161865
H36   H     H_    0.616357 0.347921 0.768878 0.162861
H37   H     H_    0.384034 0.652982 0.230757 0.158800
H38   H     H_    0.383985 0.347074 0.230803 0.158705
H39   H     H_    0.616344 0.652254 0.768852 0.162897
H40   H     H_    0.245262 0.732958 0.783167 0.138797
H41   H     H_    0.754355 0.266755 0.217750 0.130715
H42   H     H_    0.753587 0.735055 0.217973 0.129309
H43   H     H_    0.245340 0.266846 0.783071 0.139510
H44   H     H_    0.744220 0.230799 0.783442 0.137237
H45   H     H_    0.643950 0.827336 0.419754 0.182779
H46   H     H_    0.253471 0.764813 0.218098 0.171752
H47   H     H_    0.253592 0.235037 0.217962 0.129110
H48   H     H_    0.745345 0.766827 0.783062 0.137506
H49   H     H_    0.581515 0.696784 0.368887 0.082833
H50   H     H_    0.502419 0.302374 0.355064 0.083783
H51   H     H_    0.501600 0.696991 0.358182 0.085370
H52   H     H_    0.582743 0.302301 0.364942 0.080596
H53   H     H_    0.080760 0.195729 0.370905 0.082900
H54   H     H_    0.006964 0.800229 0.342745 0.111247
H55   H     H_    0.000778 0.196033 0.360413 0.085742
H56   H     H_    0.411050 0.174380 0.394707 0.179453
H57   H     H_    0.066109 0.808997 0.419567 0.112266
H58   H     H_    0.411034 0.825552 0.395228 0.179380
H59   H     H_    0.644151 0.172618 0.419343 0.181782
H60   H     H_    0.144024 0.326680 0.419617 0.184019
O1    O     O_R   0.255040 0.869590 0.478480 -0.512243
O2    O     O_R   0.817950 0.203450 0.375560 -0.510214
O3    O     O_R   0.817950 0.796550 0.375560 -0.507183
O4    O     O_R   0.182050 0.203450 0.624440 -0.497249
O5    O     O_R   0.682050 0.296550 0.624440 -0.496817
O6    O     O_R   0.317950 0.703450 0.375560 -0.509350
O7    O     O_R   0.317950 0.296550 0.375560 -0.509502
O8    O     O_R   0.682050 0.703450 0.624440 -0.496133
O9    O     O_R   0.250530 0.763330 0.367210 -0.505770
O10   O     O_R   0.749470 0.236670 0.632790 -0.503401
O11   O     O_R   0.749470 0.763330 0.632790 -0.505274
O12   O     O_R   0.744960 0.130410 0.521520 -0.509925
O13   O     O_R   0.250530 0.236670 0.367210 -0.523114
O14   O     O_R   0.750530 0.263330 0.367210 -0.522610
O15   O     O_R   0.249470 0.736670 0.632790 -0.499018
O16   O     O_R   0.249470 0.263330 0.632790 -0.502628
O17   O     O_R   0.750530 0.736670 0.367210 -0.522864
O18   O     O_R   0.177260 0.690030 0.513710 -0.525678
O19   O     O_R   0.822740 0.309970 0.486290 -0.488375
O20   O     O_R   0.822740 0.690030 0.486290 -0.490140
O21   O     O_R   0.177260 0.309970 0.513710 -0.491466
O22   O     O_R   0.677260 0.190030 0.513710 -0.491131
O23   O     O_R   0.744960 0.869590 0.521520 -0.510543
O24   O     O_R   0.322740 0.809970 0.486290 -0.485090
O25   O     O_R   0.322740 0.190030 0.486290 -0.487120
O26   O     O_R   0.677260 0.809970 0.513710 -0.490760
O27   O     O_R   0.051640 0.926880 0.885090 -0.509962
O28   O     O_R   0.948360 0.073120 0.114910 -0.511299
O29   O     O_R   0.948360 0.926880 0.114910 -0.509717
O30   O     O_R   0.051640 0.073120 0.885090 -0.507649
O31   O     O_R   0.551640 0.426880 0.885090 -0.506276
O32   O     O_R   0.448360 0.573120 0.114910 -0.511436
O33   O     O_R   0.448360 0.426880 0.114910 -0.511735
O34   O     O_R   0.255040 0.130410 0.478480 -0.511380
O35   O     O_R   0.551640 0.573120 0.885090 -0.506365
O36   O     O_R   0.940620 0.926560 0.986760 -0.513596
O37   O     O_R   0.059380 0.073440 0.013240 -0.516962
O38   O     O_R   0.059380 0.926560 0.013240 -0.514969
O39   O     O_R   0.940620 0.073440 0.986760 -0.511969
O40   O     O_R   0.440620 0.426560 0.986760 -0.512179
O41   O     O_R   0.559380 0.573440 0.013240 -0.517040
O42   O     O_R   0.559380 0.426560 0.013240 -0.517038
O43   O     O_R   0.440620 0.573440 0.986760 -0.512187
O44   O     O_2   0.588365 0.720791 0.477880 -0.489681
O45   O     O_R   0.755040 0.369590 0.478480 -0.509897
O46   O     O_2   0.430946 0.280650 0.457217 -0.490957
O47   O     O_2   0.430129 0.719723 0.459773 -0.491297
O48   O     O_2   0.589053 0.279747 0.474813 -0.488759
O49   O     O_2   0.087916 0.220804 0.479315 -0.493168
O50   O     O_2   0.935025 0.781753 0.445527 -0.507528
O51   O     O_2   0.929487 0.219906 0.461725 -0.494192
O52   O     O_2   0.132645 0.762210 0.328285 -0.530612
O53   O     O_R   0.244960 0.630410 0.521520 -0.504911
O54   O     O_R   0.244960 0.369590 0.521520 -0.509818
O55   O     O_R   0.755040 0.630410 0.478480 -0.509878
O56   O     O_R   0.182050 0.796550 0.624440 -0.511103

loop_
_geom_bond_atom_site_label_1
_geom_bond_atom_site_label_2
_ccdc_geom_bond_type
C4    O36   A    
C15   C75   A    
C61   H1    S    
C72   H55   S    
C14   C33   A    
C79   C87   A    
C19   C46   A    
C16   C31   A    
C97   H9    S    
C124  C133  A    
C94   H20   S    
C50   C59   A    
C31   C42   A    
C92   H18   S    
C147  C164  A    
C35   H45   S    
Cu11  O26   S    
C121  O15   A    
C49   C78   A    
Cu1   O18   S    
C129  H38   S    
C66   O46   D    
C131  C140  A    
C134  C143  S    
C13   C51   A    
C44   C53   A    
C113  C122  A    
C99   C138  S    
C91   C100  A    
C117  C126  A    
C119  C128  A    
C124  H32   S    
C58   C64   A    
C102  H5    S    
C64   H34   S    
C109  C118  A    
C57   H58   S    
C112  C164  A    
C39   C154  A    
C143  O3    A    
C137  C146  A    
C127  C136  A    
C67   O47   D    
Cu12  O43   S    
C112  C120  A    
C80   C159  S    
C4    O29   A    
C110  O14   A    
C82   C91   A    
C34   C39   A    
C60   C151  S    
C14   C76   A    
C111  H28   S    
C28   C66   S    
C105  C158  A    
C109  H27   S    
C95   H21   S    
C65   H49   S    
C8    O40   A    
Cu9   O24   S    
C81   C90   A    
Cu5   O2    S    
C5    O37   A    
C35   C45   A    
C15   C30   A    
C62   H12   S    
C16   C25   A    
Cu1   O1    S    
C152  O54   A    
Cu7   O13   S    
C106  C115  A    
C52   C61   A    
C18   C38   A    
Cu3   O30   S    
C111  C163  A    
C1    O9    A    
Cu2   O42   S    
C84   C93   A    
C86   C95   A    
C2    C40   A    
C104  H7    S    
C5    C117  S    
C26   C69   S    
C53   C153  S    
C27   C29   A    
C48   C76   A    
C99   O13   A    
C76   H3    S    
C79   C158  S    
C90   H16   S    
C77   O5    A    
C112  H29   S    
C37   C40   A    
C126  H35   S    
C50   C74   A    
C38   C39   A    
C91   H17   S    
C43   C52   A    
C106  C159  A    
C153  O12   A    
C21   C73   S    
C111  C119  A    
C53   C62   A    
C6    C114  S    
C140  C158  A    
C20   C35   A    
C152  O21   A    
C141  C159  A    
C2    C44   A    
C22   C25   A    
C11   O32   A    
C30   C41   A    
Cu5   O10   S    
C43   C154  A    
Cu4   O38   S    
C81   C160  S    
C72   O51   D    
C22   C72   S    
C2    C45   A    
C24   C50   A    
Cu11  O8    S    
C139  C148  A    
C120  C129  A    
Cu3   O36   S    
C125  H33   S    
C150  O45   A    
C68   H59   S    
C67   H51   S    
C70   O49   D    
C65   O44   D    
C79   C102  A    
Cu3   O27   S    
C19   C28   A    
Cu4   O28   S    
C84   C163  S    
Cu1   O56   S    
C29   C65   S    
C114  C123  A    
Cu10  O7    S    
C83   C162  S    
C116  C125  A    
C87   H14   S    
Cu2   O33   S    
C118  C127  A    
Cu8   O45   S    
C56   C150  S    
C69   H52   S    
C1    C137  S    
C106  H24   S    
C85   C164  S    
C46   H56   S    
C108  C117  A    
C45   C54   A    
C110  O2    A    
C108  C161  A    
Cu11  O55   S    
C14   C22   A    
C132  O4    A    
C70   H53   S    
C54   C157  S    
C73   O52   D    
C150  O19   A    
C157  O23   A    
C145  H44   S    
C55   C61   A    
Cu5   O12   S    
C6    O38   A    
C107  C116  A    
C27   C67   S    
C1    O6    A    
C43   C57   A    
C127  H36   S    
C143  O17   A    
C71   O50   D    
Cu7   O34   S    
C51   C60   A    
Cu12  O35   S    
C151  O20   A    
C125  C134  A    
Cu6   O3    S    
C144  C161  A    
C34   C37   A    
C24   C42   A    
Cu5   O19   S    
Cu4   O29   S    
C13   C41   A    
C107  C160  A    
C59   C152  S    
Cu9   O15   S    
C52   C155  S    
C8    C120  S    
C78   H4    S    
C107  H25   S    
C109  C162  A    
C146  H46   S    
C69   O48   D    
C156  O34   A    
Cu7   O4    S    
C153  O22   A    
C77   O10   A    
C80   C89   A    
C141  H41   S    
Cu9   O6    S    
Cu6   O23   S    
C77   C136  S    
Cu2   O41   S    
C73   H57   S    
C157  O26   A    
C9    O35   A    
C5    O30   A    
C3    C86   S    
C9    O41   A    
C98   H13   S    
C130  C139  A    
C11   O43   A    
Cu6   Cu11  S    
Cu7   Cu10  S    
C103  H8    S    
C96   H10   S    
Cu7   O21   S    
C100  H11   S    
Cu3   Cu4   S    
C54   C62   A    
C23   C71   S    
C134  C142  A    
C18   C57   A    
C66   H50   S    
C9    C122  S    
C130  H39   S    
C92   C101  A    
C105  H22   S    
C94   C103  A    
C21   C23   A    
C16   C74   A    
Cu6   O11   S    
Cu8   O22   S    
C147  H47   S    
Cu9   O53   S    
C46   C47   A    
C17   C68   A    
C115  C124  A    
C123  C131  A    
C121  O56   A    
C26   C28   A    
C4    C116  S    
C93   C102  A    
C88   O8    A    
C47   C154  A    
C133  C141  A    
Cu6   O20   S    
C33   C41   A    
C36   C38   A    
Cu10  O25   S    
Cu10  O16   S    
Cu8   O14   S    
C151  O55   A    
C99   O7    A    
C86   C98   A    
C156  O25   A    
C20   C36   A    
C155  O1    A    
C83   C97   A    
C32   C42   A    
C25   C70   S    
C11   C119  S    
C83   C92   A    
C59   C64   A    
C60   C63   A    
C17   C26   A    
C51   C75   A    
C7    O39   A    
C145  C162  A    
Cu1   Cu9   S    
C84   C96   A    
C7    C115  S    
C75   H2    S    
C108  H26   S    
Cu12  O31   S    
C142  H42   S    
C129  C138  A    
C63   H23   S    
C12   C78   A    
C82   C103  A    
C31   C33   A    
C6    O27   A    
C136  C145  A    
C58   C149  S    
C128  H37   S    
C15   C23   A    
C3    C148  A    
C12   C32   A    
C93   H19   S    
C121  C131  S    
Cu12  O40   S    
Cu11  O17   S    
C20   C29   A    
C55   C156  S    
C149  O53   A    
C10   O31   A    
C105  C114  A    
C36   C40   A    
Cu1   O9    S    
C144  H43   S    
C3    C113  A    
Cu3   O39   S    
C149  O18   A    
C12   C21   A    
C49   C58   A    
C89   C97   A    
C128  C137  A    
C88   C139  S    
C8    O33   A    
C10   C118  S    
C85   C94   A    
C138  C147  A    
C87   C96   A    
C89   H15   S    
C56   C63   A    
C123  H31   S    
C7    O28   A    
C17   C37   A    
C10   O42   A    
Cu4   O37   S    
C135  C144  A    
Cu8   O5    S    
Cu5   Cu8   S    
C44   C68   A    
C74   H60   S    
C95   C104  A    
C132  O16   A    
C47   C55   A    
C24   C49   A    
C48   C56   A    
C18   C27   A    
C142  C160  A    
C19   C34   A    
C126  C135  A    
C13   C48   A    
C82   C161  S    
C146  C163  A    
Cu2   Cu12  S    
C80   C101  A    
C113  H30   S    
C148  H48   S    
C85   C100  A    
C88   O11   A    
C30   C32   A    
C155  O24   A    
C132  C135  S    
C71   H54   S    
C90   C98   A    
C140  H40   S    
Cu10  O54   S    
Cu2   O32   S    
C110  C133  S    
C122  C130  A    
C101  H6    S    
C81   C104  A    
