data_mof_unit_15171.cif
_audit_creation_date              2012-12-10T16:45:23-0500
_audit_creation_method            fapswitch 2.2
_symmetry_space_group_name_H-M    P1
_symmetry_Int_Tables_number       1
_space_group_crystal_system       triclinic
_cell_length_a                    7.447456
_cell_length_b                    8.694825
_cell_length_c                    15.775683
_cell_angle_alpha                 94.257365
_cell_angle_beta                  74.970651
_cell_angle_gamma                 103.162409
_cell_volume                      960.55516856

loop_
_atom_site_label
_atom_site_type_symbol
_atom_type_description
_atom_site_fract_x
_atom_site_fract_y
_atom_site_fract_z
_atom_type_partial_charge
C1    C     C_R   0.545060 0.800104 0.502599 0.884999
C2    C     C_R   0.454938 0.199896 0.497403 0.875973
C3    C     C_R   0.267141 0.411150 0.082759 0.402531
C4    C     C_R   0.728072 0.560184 0.916100 0.381351
C5    C     C_R   0.146010 0.353365 0.027435 -0.313518
C6    C     C_R   0.848292 0.623231 0.969937 -0.205702
C7    C     C_2   0.570386 0.968025 0.503852 -0.369437
C8    C     C_2   0.429609 0.031977 0.496157 -0.365679
C9    C     C_R   0.383739 0.486888 0.666220 0.790177
C10   C     C_R   0.616083 0.512158 0.333736 0.789935
C11   C     C_R   0.311964 0.461117 0.760877 -0.056613
C12   C     C_R   0.686505 0.532605 0.238600 -0.109719
C13   C     C_R   0.079087 0.327895 0.884661 -0.158314
C14   C     C_R   0.917840 0.657037 0.112000 -0.154892
C15   C     C_R   0.133996 0.364114 0.795782 -0.128955
C16   C     C_R   0.865035 0.626583 0.201536 -0.166741
C17   C     C_R   0.434602 0.518733 0.815112 -0.241296
C18   C     C_R   0.562295 0.470082 0.185672 -0.155150
C19   C     C_R   0.393558 0.465373 0.901455 0.073429
C20   C     C_R   0.601800 0.515301 0.097814 0.092017
C21   C     C_R   0.206969 0.379415 0.937813 0.105177
C22   C     C_R   0.788253 0.601657 0.060005 0.034042
C23   C     C_R   0.529544 0.500087 0.953300 -0.123336
C24   C     C_R   0.465329 0.473756 0.045857 -0.024433
Cu1   Cu    Cu3+1 0.322120 0.483240 0.490330 0.965580
Cu2   Cu    Cu3+1 0.677880 0.516760 0.509670 0.958175
H1    H     H_    0.998246 0.297969 0.055525 0.143100
H2    H     H_    0.995816 0.676687 0.939986 0.173658
H3    H     H_    0.438360 0.382230 0.214704 0.203240
H4    H     H_    0.561850 0.605942 0.788342 0.199833
H5    H     H_    0.937177 0.258856 0.911758 0.134562
H6    H     H_    0.059744 0.724592 0.083381 0.145720
H7    H     H_    0.706061 0.039383 0.511114 0.178976
H8    H     H_    0.293933 0.960621 0.488896 0.180624
N1    N     N_2   0.945180 0.542040 0.524240 -0.214641
N2    N     N_2   0.054820 0.457960 0.475760 -0.213736
O1    O     O_R   0.384450 0.714270 0.493720 -0.580044
O2    O     O_R   0.615550 0.285730 0.506280 -0.583634
O3    O     O_R   0.684880 0.742590 0.510050 -0.585062
O4    O     O_R   0.315120 0.257410 0.489950 -0.587698
O5    O     O_R   0.265540 0.477900 0.617090 -0.581550
O6    O     O_R   0.734460 0.522100 0.382910 -0.586105
O7    O     O_R   0.565970 0.506210 0.633420 -0.576943
O8    O     O_R   0.434030 0.493790 0.366580 -0.563496
H9    H     H_    0.963160 0.675984 0.241551 0.175748
H10   H     H_    0.038038 0.316472 0.754510 0.151332
O9    O     O_3   0.189293 0.417627 0.172201 -0.760977
H11   H     H_    0.052457 0.364666 0.186297 0.324898
O10   O     O_3   0.814706 0.547803 0.828244 -0.746487
H12   H     H_    0.752951 0.444421 0.806621 0.321136
H13   H     H_    0.003639 0.615168 0.569000 0.235724
H14   H     H_    0.996359 0.384827 0.431001 0.232219

loop_
_geom_bond_atom_site_label_1
_geom_bond_atom_site_label_2
_ccdc_geom_bond_type
C16   H9    S    
C19   C23   A    
C23   C24   A    
C17   C19   A    
C6    H2    S    
C10   O6    A    
C9    C11   S    
C2    O2    A    
C9    O5    A    
N1    N2    D    
N2    H14   S    
C10   O8    A    
C1    O1    A    
C4    O10   S    
C14   C22   A    
C13   C21   A    
C7    C8    D    
C18   H3    S    
C8    H8    S    
C17   H4    S    
C7    H7    S    
C3    C24   A    
C10   C12   S    
C1    C7    S    
Cu1   O8    S    
C3    O9    S    
C19   C21   A    
C20   C22   A    
Cu2   O7    S    
C18   C20   A    
C13   C15   A    
Cu1   O4    S    
N1    H13   S    
C14   C16   A    
Cu2   O3    S    
C9    O7    A    
C1    O3    A    
Cu1   N2    S    
Cu1   O5    S    
C6    C22   A    
O9    H11   S    
C2    O4    A    
Cu2   N1    S    
C5    C21   A    
Cu2   O6    S    
C4    C6    A    
O10   H12   S    
C12   C18   A    
C4    C23   A    
C20   C24   A    
Cu2   O2    S    
C2    C8    S    
C15   H10   S    
Cu1   O1    S    
Cu1   Cu2   S    
C5    H1    S    
C11   C15   A    
C13   H5    S    
C11   C17   A    
C12   C16   A    
C14   H6    S    
C3    C5    A    
