data_mof_unit_46873.cif
_audit_creation_date              2012-12-10T18:01:46-0500
_audit_creation_method            fapswitch 2.2
_symmetry_space_group_name_H-M    P1
_symmetry_Int_Tables_number       1
_space_group_crystal_system       triclinic
_cell_length_a                    10.822829
_cell_length_b                    9.490446
_cell_length_c                    19.446196
_cell_angle_alpha                 90.001154
_cell_angle_beta                  90.309808
_cell_angle_gamma                 90.000619
_cell_volume                      1997.35715125

loop_
_atom_site_label
_atom_site_type_symbol
_atom_type_description
_atom_site_fract_x
_atom_site_fract_y
_atom_site_fract_z
_atom_type_partial_charge
C1    C     C_R   0.261989 0.499995 0.499989 0.775020
C2    C     C_R   0.738011 0.499996 0.500010 0.775010
C3    C     C_R   0.496995 0.493816 0.930289 0.462674
C4    C     C_R   0.503198 0.493812 0.069712 0.462669
C5    C     C_R   0.500710 0.499776 0.367148 0.825492
C6    C     C_R   0.499295 0.499778 0.632852 0.825524
C7    C     C_R   0.063875 0.371887 0.500035 -0.191061
C8    C     C_R   0.936129 0.628065 0.499997 -0.189524
C9    C     C_R   0.936122 0.371887 0.499980 -0.191056
C10   C     C_R   0.063874 0.628065 0.499977 -0.189516
C11   C     C_R   0.871799 0.499981 0.499994 -0.011453
C12   C     C_R   0.128201 0.499980 0.500003 -0.011452
C13   C     C_R   0.399679 0.074411 0.476683 -0.029641
C14   C     C_R   0.600886 0.925698 0.522473 -0.028740
C15   C     C_R   0.600322 0.074415 0.523316 -0.029580
C16   C     C_R   0.399116 0.925694 0.477525 -0.028724
C17   C     C_R   0.498833 0.626015 0.252774 0.406203
C18   C     C_R   0.490527 0.368548 0.745759 0.401802
C19   C     C_R   0.501249 0.626018 0.747229 0.406204
C20   C     C_R   0.509517 0.368538 0.254239 0.401822
C21   C     C_R   0.504961 0.622612 0.181156 -0.245285
C22   C     C_R   0.494010 0.368301 0.817542 -0.239432
C23   C     C_R   0.495183 0.622615 0.818849 -0.245271
C24   C     C_R   0.506087 0.368293 0.182456 -0.239440
C25   C     C_R   0.505150 0.494669 0.145455 -0.077581
C26   C     C_R   0.495002 0.494675 0.854546 -0.077580
C27   C     C_R   0.502894 0.498291 0.290743 -0.259618
C28   C     C_R   0.497144 0.498296 0.709257 -0.259596
Cu1   Cu    Cu3+1 0.500000 0.640660 0.500000 0.959526
Cu2   Cu    Cu3+1 0.500000 0.359340 0.500000 0.945871
H1    H     H_    0.111949 0.271775 0.500097 0.138814
H2    H     H_    0.888067 0.728180 0.499995 0.140363
H3    H     H_    0.888046 0.271775 0.499935 0.138814
H4    H     H_    0.111938 0.728179 0.499962 0.140357
H5    H     H_    0.507598 0.721583 0.153506 0.172764
H6    H     H_    0.494714 0.268102 0.844190 0.171936
H7    H     H_    0.492577 0.721584 0.846503 0.172763
H8    H     H_    0.505380 0.268094 0.155805 0.171945
H9    H     H_    0.319568 0.129921 0.457325 0.123157
H10   H     H_    0.681950 0.870247 0.540544 0.102225
H11   H     H_    0.680433 0.129929 0.542674 0.123151
H12   H     H_    0.318054 0.870239 0.459451 0.102228
N1    N     N_R   0.500000 0.852070 0.500000 -0.143528
N2    N     N_R   0.500000 0.147930 0.500000 -0.161285
N3    N     N_R   0.501523 0.370675 0.034199 -0.245413
N4    N     N_R   0.498697 0.616758 0.965853 -0.246956
N5    N     N_R   0.498565 0.370676 0.965800 -0.245415
N6    N     N_R   0.501613 0.616757 0.034151 -0.246953
O1    O     O_R   0.319640 0.618740 0.500000 -0.598307
O2    O     O_R   0.680360 0.381260 0.500000 -0.603720
O3    O     O_R   0.680360 0.618740 0.500000 -0.598311
O4    O     O_R   0.319640 0.381260 0.500000 -0.603713
O5    O     O_R   0.499980 0.618820 0.400140 -0.543826
O6    O     O_R   0.500020 0.381180 0.599860 -0.549898
O7    O     O_R   0.500020 0.618820 0.599860 -0.543819
O8    O     O_R   0.499980 0.381180 0.400140 -0.549928
O9    O     O_3   0.498079 0.756178 0.284822 -0.597357
C29   C     C_3   0.374718 0.801910 0.294329 0.098638
H13   H     H_    0.374669 0.870430 0.340382 0.175734
H14   H     H_    0.309136 0.713897 0.305199 0.110598
C30   C     C_3   0.328955 0.889973 0.233159 -0.374076
H15   H     H_    0.399678 0.969884 0.219451 0.244193
H16   H     H_    0.312925 0.820604 0.188021 0.211081
C31   C     C_3   0.208201 0.965311 0.250022 -0.885366
H17   H     H_    0.135630 0.887599 0.263758 0.249300
H18   H     H_    0.176351 0.026213 0.204513 0.263405
H19   H     H_    0.222111 0.039504 0.293590 0.259059
O10   O     O_3   0.489194 0.239763 0.712261 -0.598316
C32   C     C_3   0.365967 0.201015 0.695874 0.110470
H20   H     H_    0.367904 0.145690 0.645514 0.184977
H21   H     H_    0.302307 0.292784 0.689172 0.111317
C33   C     C_3   0.314668 0.099432 0.749842 -0.373348
H22   H     H_    0.379451 0.009775 0.756811 0.255168
H23   H     H_    0.305112 0.154874 0.799805 0.211552
C34   C     C_3   0.188510 0.042151 0.728228 -0.889323
H24   H     H_    0.121476 0.129800 0.721617 0.251283
H25   H     H_    0.153423 0.969708 0.768479 0.263090
H26   H     H_    0.195986 0.982871 0.679168 0.257664
O11   O     O_3   0.501981 0.756174 0.715182 -0.597385
C35   C     C_3   0.625333 0.801922 0.705664 0.098474
H27   H     H_    0.625369 0.870355 0.659591 0.175800
H28   H     H_    0.690925 0.713919 0.694827 0.110638
C36   C     C_3   0.671088 0.890101 0.766797 -0.374250
H29   H     H_    0.600361 0.969992 0.780475 0.244286
H30   H     H_    0.687136 0.820822 0.811947 0.211163
C37   C     C_3   0.791814 0.965465 0.749917 -0.885599
H31   H     H_    0.864390 0.887775 0.736213 0.249374
H32   H     H_    0.823661 0.026459 0.795397 0.263424
H33   H     H_    0.777883 0.039561 0.706332 0.259115
O12   O     O_3   0.510789 0.239751 0.287733 -0.598339
C38   C     C_3   0.633989 0.200974 0.304157 0.110605
H34   H     H_    0.631969 0.145522 0.354483 0.184981
H35   H     H_    0.697623 0.292743 0.310951 0.111330
C39   C     C_3   0.685397 0.099529 0.250153 -0.373531
H36   H     H_    0.620636 0.009895 0.243085 0.255130
H37   H     H_    0.695061 0.155095 0.200235 0.211584
C40   C     C_3   0.811496 0.042192 0.271804 -0.889358
H38   H     H_    0.878482 0.129832 0.278584 0.251277
H39   H     H_    0.846724 0.969958 0.231494 0.263082
H40   H     H_    0.803887 0.982673 0.320787 0.257742

loop_
_geom_bond_atom_site_label_1
_geom_bond_atom_site_label_2
_ccdc_geom_bond_type
C32   C33   S    
C5    O8    A    
C6    O7    A    
C40   H38   S    
O9    C29   S    
Cu1   O1    S    
Cu2   O6    S    
C5    O5    A    
C15   N2    A    
C35   C36   S    
Cu1   O3    S    
C37   H32   S    
C18   O10   S    
C32   H21   S    
C23   C26   A    
C30   H16   S    
C21   C25   A    
C2    O2    A    
C5    C27   S    
C6    C28   S    
C20   C24   A    
O10   C32   S    
C1    O1    A    
C24   H8    S    
C29   C30   S    
Cu2   O2    S    
Cu1   N1    S    
C9    H3    S    
Cu2   N2    S    
C32   H20   S    
C1    C12   S    
C6    O6    A    
C33   C34   S    
C2    C11   S    
C34   H26   S    
C40   H39   S    
C4    C25   S    
C4    N3    A    
N3    N5    A    
C7    C12   A    
N4    N6    A    
C7    H1    S    
C17   C27   A    
C31   H19   S    
C18   C28   A    
C24   C25   A    
C15   H11   S    
C33   H23   S    
C38   H34   S    
C37   H31   S    
C35   H27   S    
Cu1   O7    S    
C39   C40   S    
C29   H13   S    
C23   H7    S    
C20   O12   S    
C17   C21   A    
C31   H18   S    
C30   C31   S    
C19   C23   A    
C34   H24   S    
Cu1   Cu2   S    
C38   H35   S    
C34   H25   S    
C36   H29   S    
C39   H36   S    
C10   H4    S    
C39   H37   S    
C19   C28   A    
C9    C11   A    
C16   N1    A    
C10   C12   A    
C35   H28   S    
C36   H30   S    
C16   H12   S    
C40   H40   S    
C4    N6    A    
C7    C9    A    
Cu2   O4    S    
C18   C22   A    
C3    C26   S    
C33   H22   S    
C37   H33   S    
Cu2   O8    S    
C21   H5    S    
C20   C27   A    
C22   H6    S    
C3    N4    A    
C31   H17   S    
C38   C39   S    
O12   C38   S    
C8    H2    S    
Cu1   O5    S    
C8    C11   A    
C3    N5    A    
C30   H15   S    
C1    O4    A    
C13   H9    S    
C2    O3    A    
C14   H10   S    
O11   C35   S    
C36   C37   S    
C8    C10   A    
C22   C26   A    
C13   C16   A    
C14   C15   A    
C29   H14   S    
C13   N2    A    
C19   O11   S    
C17   O9    S    
C14   N1    A    
