data_mof_unit_31767.cif
_audit_creation_date              2012-12-10T19:01:52-0500
_audit_creation_method            fapswitch 2.2
_symmetry_space_group_name_H-M    P1
_symmetry_Int_Tables_number       1
_space_group_crystal_system       triclinic
_cell_length_a                    11.704518
_cell_length_b                    10.811663
_cell_length_c                    9.555886
_cell_angle_alpha                 90.483243
_cell_angle_beta                  89.948952
_cell_angle_gamma                 90.257691
_cell_volume                      1209.19682071

loop_
_atom_site_label
_atom_site_type_symbol
_atom_type_description
_atom_site_fract_x
_atom_site_fract_y
_atom_site_fract_z
_atom_type_partial_charge
C1    C     C_R   0.495156 0.262736 0.499501 0.791697
C2    C     C_R   0.483327 0.129586 0.500287 -0.243238
C3    C     C_R   0.410420 0.063947 0.406828 -0.110466
C4    C     C_R   0.411561 0.932594 0.408459 0.358576
C5    C     C_R   0.485440 0.870726 0.501908 -0.201213
C6    C     C_R   0.542595 0.938624 0.604476 0.039879
C7    C     C_3   0.664690 0.933839 0.650331 -0.475646
C8    C     C_3   0.664846 0.074437 0.647668 -0.179812
C9    C     C_R   0.590465 0.548045 0.074175 0.254018
C10   C     C_R   0.416594 0.441101 0.073894 -0.025296
C11   C     C_R   0.416527 0.441199 0.925109 -0.049139
C12   C     C_R   0.284002 0.500048 0.500034 0.823512
C13   C     C_R   0.590758 0.547347 0.926844 0.258878
C14   C     C_3   0.636692 0.675955 0.920676 0.089427
C15   C     C_3   0.634172 0.678230 0.080960 -0.368344
C16   C     C_R   0.496998 0.737540 0.500364 0.856382
C17   C     C_R   0.715976 0.500432 0.499961 0.847262
C18   C     C_1   0.162324 0.500423 0.500067 -0.127021
C19   C     C_1   0.059857 0.500772 0.500013 0.054864
C20   C     C_1   0.940094 0.501031 0.499943 0.101896
C21   C     C_1   0.837638 0.500942 0.499912 -0.027102
C22   C     C_R   0.542693 0.065288 0.602136 0.065528
Cu1   Cu    Cu3+1 0.499990 0.499980 0.640670 1.001819
Cu2   Cu    Cu3+1 0.500010 0.500020 0.359330 0.999126
H1    H     H_    0.575040 0.741105 0.873264 0.135064
H2    H     H_    0.569404 0.743170 0.124087 0.156003
H3    H     H_    0.673383 0.898848 0.758277 0.237604
H4    H     H_    0.721021 0.888184 0.571640 0.195814
H5    H     H_    0.674089 0.117707 0.753163 0.197225
H6    H     H_    0.348040 0.395098 0.129070 0.155530
H7    H     H_    0.347888 0.395329 0.869226 0.161869
N1    N     N_R   0.500710 0.500930 0.147930 -0.204422
N2    N     N_R   0.500710 0.500890 0.852020 -0.222166
O1    O     O_R   0.500000 0.319640 0.618810 -0.566240
O2    O     O_R   0.500010 0.319680 0.381230 -0.594434
O3    O     O_R   0.337190 0.499990 0.618790 -0.581613
O4    O     O_R   0.337200 0.500030 0.381210 -0.565945
O5    O     O_R   0.499990 0.680320 0.618770 -0.575079
O6    O     O_R   0.500000 0.680360 0.381190 -0.561145
O7    O     O_R   0.662800 0.499970 0.618790 -0.531284
O8    O     O_R   0.662810 0.500010 0.381210 -0.567488
C23   C     C_2   0.333548 0.132938 0.311459 0.488291
H8    H     H_    0.300877 0.222747 0.342866 0.034404
O9    O     O_2   0.308403 0.092628 0.195798 -0.480622
C24   C     C_2   0.748750 0.691997 0.151838 0.551466
H9    H     H_    0.776838 0.783079 0.186034 0.052263
O10   O     O_2   0.811632 0.603431 0.168381 -0.498853
Cl1   Cl    Cl    0.316728 0.845601 0.301231 -0.530880
C25   C     C_2   0.743542 0.126868 0.538360 0.420173
H10   H     H_    0.738463 0.094735 0.430550 0.075690
O11   O     O_2   0.813762 0.205830 0.570435 -0.537804
Cl2   Cl    Cl    0.775536 0.677229 0.841032 -0.579006

loop_
_geom_bond_atom_site_label_1
_geom_bond_atom_site_label_2
_ccdc_geom_bond_type
C2    C22   A    
C8    C22   S    
Cu1   Cu2   S    
Cu2   N1    S    
C3    C23   S    
C13   N2    A    
C6    C7    S    
C12   O3    A    
Cu1   O5    S    
C23   H8    S    
C10   H6    S    
C19   C20   S    
Cu1   O1    S    
C15   H2    S    
C6    C22   A    
C2    C3    A    
C9    C15   S    
C11   H7    S    
C7    C8    S    
C13   C14   S    
Cu2   O8    S    
C23   O9    D    
C8    H5    S    
C1    O1    A    
Cu2   O4    S    
C24   O10   D    
C14   H1    S    
C5    C6    A    
C17   O8    A    
Cu2   O2    S    
C10   C11   A    
C15   C24   S    
C16   O6    A    
C3    C4    A    
Cu1   O3    S    
C10   N1    A    
C11   N2    A    
Cu2   O6    S    
C7    H3    S    
C20   C21   T    
C1    O2    A    
C1    C2    S    
C4    Cl1   S    
C12   C18   S    
C12   O4    A    
C25   H10   S    
C9    C13   A    
C14   C15   S    
C18   C19   T    
C5    C16   S    
C9    N1    A    
C25   O11   D    
C24   H9    S    
C8    C25   S    
C14   Cl2   S    
C7    H4    S    
Cu1   O7    S    
C16   O5    A    
C4    C5    A    
Cu1   N2    S    
C17   O7    A    
C17   C21   S    
