data_mof_unit_9041.cif
_audit_creation_date              2012-10-26T20:21:44-0400
_audit_creation_method            fapswitch 2.2
_symmetry_space_group_name_H-M    P1
_symmetry_Int_Tables_number       1
_space_group_crystal_system       triclinic
_cell_length_a                    16.148599
_cell_length_b                    14.555157
_cell_length_c                    9.620781
_cell_angle_alpha                 89.999907
_cell_angle_beta                  89.999987
_cell_angle_gamma                 89.999926
_cell_volume                      2261.32025856

loop_
_atom_site_label
_atom_site_type_symbol
_atom_type_description
_atom_site_fract_x
_atom_site_fract_y
_atom_site_fract_z
_atom_type_partial_charge
C1    C     C_R   0.124429 0.388045 0.500000 0.540035
C2    C     C_R   0.999999 0.581561 0.925645 0.120548
C3    C     C_R   0.999999 0.581561 0.074355 0.120547
C4    C     C_R   0.000000 0.418438 0.925645 0.120547
C5    C     C_R   0.500001 0.918439 0.074355 0.120548
C6    C     C_R   0.499999 0.081561 0.925645 0.120548
C7    C     C_R   0.499999 0.081561 0.074355 0.120547
C8    C     C_R   0.500000 0.918439 0.925645 0.120547
C9    C     C_R   0.770730 0.292254 0.373299 -0.007217
C10   C     C_R   0.229270 0.707746 0.626701 -0.007217
C11   C     C_R   0.229269 0.707747 0.373299 -0.007217
C12   C     C_R   0.875571 0.611955 0.500000 0.540035
C13   C     C_R   0.770730 0.292253 0.626701 -0.007217
C14   C     C_R   0.229270 0.292254 0.626701 -0.007215
C15   C     C_R   0.770730 0.707746 0.373299 -0.007215
C16   C     C_R   0.770730 0.707746 0.626701 -0.007216
C17   C     C_R   0.229270 0.292254 0.373299 -0.007215
C18   C     C_R   0.270730 0.792254 0.373299 -0.007217
C19   C     C_R   0.729270 0.207746 0.626701 -0.007217
C20   C     C_R   0.729269 0.207747 0.373299 -0.007217
C21   C     C_R   0.270730 0.792253 0.626701 -0.007217
C22   C     C_R   0.729270 0.792254 0.626701 -0.007215
C23   C     C_R   0.875571 0.388045 0.500000 0.540036
C24   C     C_R   0.270730 0.207746 0.373299 -0.007215
C25   C     C_R   0.270730 0.207746 0.626701 -0.007216
C26   C     C_R   0.729270 0.792254 0.373299 -0.007215
C27   C     C_R   0.198554 0.672132 0.500000 0.005888
C28   C     C_R   0.801446 0.327867 0.500000 0.005889
C29   C     C_R   0.801445 0.672132 0.500000 0.005888
C30   C     C_R   0.198555 0.327868 0.500000 0.005888
C31   C     C_R   0.698554 0.172132 0.500000 0.005888
C32   C     C_R   0.301446 0.827867 0.500000 0.005889
C33   C     C_R   0.301445 0.172132 0.500000 0.005888
C34   C     C_R   0.124429 0.611955 0.500000 0.540035
C35   C     C_R   0.698555 0.827868 0.500000 0.005888
C36   C     C_3   0.000001 0.325432 0.146787 -0.334857
C37   C     C_3   0.999999 0.674568 0.853213 -0.334857
C38   C     C_3   0.999998 0.674567 0.146787 -0.334857
C39   C     C_3   0.000002 0.325432 0.853213 -0.334857
C40   C     C_3   0.500001 0.825432 0.146787 -0.334857
C41   C     C_3   0.499999 0.174568 0.853213 -0.334857
C42   C     C_3   0.499998 0.174567 0.146787 -0.334857
C43   C     C_3   0.500002 0.825432 0.853213 -0.334857
C44   C     C_3   0.770591 0.347987 0.240309 -0.377131
C45   C     C_R   0.624429 0.888045 0.500000 0.540035
C46   C     C_3   0.229409 0.652012 0.759691 -0.377131
C47   C     C_3   0.229408 0.652014 0.240308 -0.377131
C48   C     C_3   0.770592 0.347986 0.759692 -0.377131
C49   C     C_3   0.229410 0.347986 0.759692 -0.377132
C50   C     C_3   0.770590 0.652014 0.240308 -0.377132
C51   C     C_3   0.770590 0.652013 0.759692 -0.377131
C52   C     C_3   0.229410 0.347987 0.240308 -0.377131
C53   C     C_3   0.270591 0.847987 0.240309 -0.377131
C54   C     C_3   0.729409 0.152012 0.759691 -0.377131
C55   C     C_3   0.729408 0.152014 0.240308 -0.377131
C56   C     C_R   0.375570 0.111955 0.500000 0.540035
C57   C     C_3   0.270592 0.847986 0.759692 -0.377131
C58   C     C_3   0.729410 0.847986 0.759692 -0.377132
C59   C     C_3   0.270590 0.152014 0.240308 -0.377132
C60   C     C_3   0.270590 0.152013 0.759692 -0.377131
C61   C     C_3   0.729410 0.847987 0.240308 -0.377131
C62   C     C_R   0.375571 0.888045 0.500000 0.540036
C63   C     C_R   0.624429 0.111955 0.500000 0.540035
C64   C     C_R   0.000000 0.418438 0.074355 0.120548
Cu1   Cu    Cu3+1 0.000000 0.500000 0.640660 0.879021
Cu2   Cu    Cu3+1 0.000000 0.500000 0.359340 0.879021
Cu3   Cu    Cu3+1 0.500000 1.000000 0.640660 0.879021
Cu4   Cu    Cu3+1 0.500000 0.000000 0.359340 0.879021
H1    H     H_    0.000000 0.325648 0.259393 0.213169
H2    H     H_    0.000000 0.325648 0.740607 0.213169
H3    H     H_    0.055121 0.285210 0.883623 0.078668
H4    H     H_    0.944884 0.285207 0.883626 0.078662
H5    H     H_    0.500000 0.825648 0.259393 0.213169
H6    H     H_    0.444883 0.785208 0.116376 0.078663
H7    H     H_    0.555120 0.785209 0.116377 0.078667
H8    H     H_    0.500000 0.174352 0.740607 0.213169
H9    H     H_    0.444880 0.214791 0.883623 0.078667
H10   H     H_    0.555117 0.214792 0.883624 0.078663
H11   H     H_    0.500000 0.174352 0.259392 0.213169
H12   H     H_    0.944883 0.285208 0.116376 0.078663
H13   H     H_    0.555116 0.214793 0.116374 0.078662
H14   H     H_    0.444878 0.214790 0.116377 0.078668
H15   H     H_    0.500000 0.825648 0.740607 0.213169
H16   H     H_    0.555122 0.785210 0.883623 0.078668
H17   H     H_    0.444884 0.785207 0.883626 0.078662
H18   H     H_    0.783121 0.421548 0.259091 0.149166
H19   H     H_    0.815247 0.320004 0.164505 0.131106
H20   H     H_    0.707977 0.345825 0.192606 0.108520
H21   H     H_    0.216878 0.578452 0.740909 0.149166
H22   H     H_    0.292023 0.654175 0.807394 0.108520
H23   H     H_    0.055120 0.285209 0.116377 0.078667
H24   H     H_    0.184753 0.679996 0.835495 0.131106
H25   H     H_    0.216878 0.578453 0.259089 0.149166
H26   H     H_    0.184751 0.679998 0.164505 0.131106
H27   H     H_    0.292022 0.654177 0.192604 0.108519
H28   H     H_    0.783122 0.421547 0.740911 0.149166
H29   H     H_    0.707978 0.345823 0.807396 0.108520
H30   H     H_    0.815249 0.320002 0.835495 0.131106
H31   H     H_    0.216872 0.421546 0.740914 0.149173
H32   H     H_    0.184760 0.319997 0.835502 0.131100
H33   H     H_    0.292027 0.345830 0.807386 0.108519
H34   H     H_    1.000000 0.674352 0.740607 0.213169
H35   H     H_    0.783128 0.578453 0.259086 0.149173
H36   H     H_    0.707973 0.654170 0.192614 0.108519
H37   H     H_    0.815240 0.680003 0.164498 0.131100
H38   H     H_    0.783127 0.578452 0.740912 0.149172
H39   H     H_    0.815241 0.680001 0.835501 0.131102
H40   H     H_    0.707973 0.654170 0.807387 0.108519
H41   H     H_    0.216873 0.421548 0.259087 0.149172
H42   H     H_    0.292027 0.345829 0.192613 0.108519
H43   H     H_    0.184759 0.319999 0.164499 0.131102
H44   H     H_    0.283122 0.921548 0.259091 0.149166
H45   H     H_    0.944880 0.714791 0.883623 0.078667
H46   H     H_    0.315247 0.820004 0.164505 0.131106
H47   H     H_    0.207977 0.845825 0.192606 0.108520
H48   H     H_    0.716878 0.078452 0.740909 0.149166
H49   H     H_    0.792023 0.154175 0.807394 0.108520
H50   H     H_    0.684752 0.179996 0.835495 0.131106
H51   H     H_    0.716878 0.078453 0.259089 0.149166
H52   H     H_    0.684751 0.179998 0.164505 0.131106
H53   H     H_    0.792022 0.154177 0.192604 0.108519
H54   H     H_    0.283122 0.921547 0.740911 0.149166
H55   H     H_    0.207978 0.845823 0.807396 0.108520
H56   H     H_    0.055117 0.714792 0.883624 0.078663
H57   H     H_    0.315248 0.820002 0.835495 0.131106
H58   H     H_    0.716872 0.921546 0.740914 0.149173
H59   H     H_    0.684760 0.819997 0.835502 0.131100
H60   H     H_    0.792027 0.845830 0.807386 0.108519
H61   H     H_    0.283128 0.078453 0.259086 0.149173
H62   H     H_    0.207973 0.154170 0.192614 0.108519
H63   H     H_    0.315240 0.180003 0.164498 0.131100
H64   H     H_    0.283127 0.078452 0.740912 0.149172
H65   H     H_    0.315241 0.180001 0.835501 0.131102
H66   H     H_    0.207973 0.154170 0.807387 0.108519
H67   H     H_    1.000000 0.674352 0.259392 0.213169
H68   H     H_    0.716873 0.921548 0.259087 0.149172
H69   H     H_    0.792027 0.845829 0.192613 0.108519
H70   H     H_    0.684759 0.819999 0.164499 0.131102
H71   H     H_    0.055116 0.714793 0.116374 0.078662
H72   H     H_    0.944878 0.714790 0.116377 0.078668
N1    N     N_R   0.000000 0.500000 0.852070 -0.230123
N2    N     N_R   0.000000 0.500000 0.147930 -0.230123
N3    N     N_R   0.500000 1.000000 0.852070 -0.230123
N4    N     N_R   0.500000 1.000000 0.147930 -0.230123
O1    O     O_R   0.090170 0.409820 0.618740 -0.517725
O2    O     O_R   0.409830 0.090180 0.381260 -0.517725
O3    O     O_R   0.409830 0.090180 0.618740 -0.517725
O4    O     O_R   0.590170 0.909820 0.381260 -0.517725
O5    O     O_R   0.409830 0.909820 0.381260 -0.517725
O6    O     O_R   0.590170 0.090180 0.618740 -0.517725
O7    O     O_R   0.590170 0.090180 0.381260 -0.517725
O8    O     O_R   0.409830 0.909820 0.618740 -0.517725
O9    O     O_R   0.909830 0.590180 0.381260 -0.517725
O10   O     O_R   0.909830 0.590180 0.618740 -0.517725
O11   O     O_R   0.090170 0.409820 0.381260 -0.517725
O12   O     O_R   0.909830 0.409820 0.381260 -0.517725
O13   O     O_R   0.090170 0.590180 0.618740 -0.517725
O14   O     O_R   0.090170 0.590180 0.381260 -0.517725
O15   O     O_R   0.909830 0.409820 0.618740 -0.517725
O16   O     O_R   0.590170 0.909820 0.618740 -0.517725

loop_
_geom_bond_atom_site_label_1
_geom_bond_atom_site_label_2
_ccdc_geom_bond_type
C10   C27   A    
Cu2   O12   S    
C55   H53   S    
C59   H62   S    
C50   H36   S    
C43   H16   S    
C62   O5    A    
C12   C29   S    
C45   O4    A    
C43   H15   S    
C1    O1    A    
C42   H14   S    
C8    C43   S    
C12   O9    A    
Cu1   O15   S    
C19   C31   A    
C60   H64   S    
C11   C18   A    
C46   H21   S    
C55   H51   S    
C36   H1    S    
C58   H60   S    
C22   C35   A    
C45   O16   A    
C59   H63   S    
C62   O8    A    
C26   C61   S    
C24   C59   S    
C57   H57   S    
C37   H34   S    
C44   H18   S    
C61   H70   S    
C7    C42   S    
C14   C49   S    
C37   H45   S    
C40   H5    S    
C15   C50   S    
C1    O11   A    
Cu4   O5    S    
C18   C53   S    
C57   H54   S    
C11   C47   S    
C39   H2    S    
C3    C38   S    
C51   H40   S    
C6    C41   S    
C54   H48   S    
C10   C46   S    
C50   H37   S    
C50   H35   S    
C39   H4    S    
C16   C51   S    
C13   C28   A    
Cu3   O16   S    
C25   C60   S    
C11   C27   A    
C44   H19   S    
Cu4   O4    S    
C33   C56   S    
Cu3   N3    S    
C42   H11   S    
C10   C21   A    
C39   H3    S    
C23   O12   A    
Cu3   O6    S    
C17   C30   A    
C3    N2    A    
C14   C30   A    
C20   C55   S    
C42   H13   S    
C17   C52   S    
C7    N4    A    
C61   H68   S    
C15   C29   A    
C55   H52   S    
C27   C34   S    
C21   C32   A    
C17   C24   A    
C13   C19   A    
Cu3   Cu4   S    
C43   H17   S    
C31   C63   S    
Cu1   O13   S    
C36   H12   S    
C49   H31   S    
C15   C26   A    
C52   H43   S    
C16   C29   A    
C23   C28   S    
C23   O15   A    
C38   H72   S    
C63   O6    A    
C21   C57   S    
Cu1   O10   S    
C48   H29   S    
C41   H10   S    
C57   H55   S    
C37   H56   S    
Cu1   N1    S    
C9    C20   A    
C4    C39   S    
C52   H42   S    
C38   H71   S    
C47   H25   S    
C38   H67   S    
C63   O7    A    
Cu2   N2    S    
C34   O14   A    
C36   H23   S    
C58   H58   S    
C54   H50   S    
Cu3   O3    S    
C54   H49   S    
C5    C8    A    
C18   C32   A    
Cu1   O1    S    
C35   C45   S    
C60   H66   S    
Cu2   O14   S    
Cu4   O2    S    
C53   H46   S    
C19   C54   S    
C59   H61   S    
C9    C44   S    
C16   C22   A    
C48   H28   S    
Cu3   O8    S    
C12   O10   A    
C5    N4    A    
C22   C58   S    
C13   C48   S    
C6    C7    A    
C46   H22   S    
C53   H44   S    
Cu2   O9    S    
C48   H30   S    
C4    C64   A    
C24   C33   A    
C40   H7    S    
C56   O3    A    
C2    C3    A    
C32   C62   S    
C4    N1    A    
Cu4   O7    S    
C44   H20   S    
C49   H32   S    
C41   H9    S    
C2    C37   S    
C61   H69   S    
Cu2   O11   S    
C64   N2    A    
C52   H41   S    
C51   H38   S    
C1    C30   S    
C47   H26   S    
C40   H6    S    
Cu4   N4    S    
C8    N3    A    
C14   C25   A    
C56   O2    A    
C34   O13   A    
C26   C35   A    
C58   H59   S    
C46   H24   S    
C9    C28   A    
C51   H39   S    
Cu1   Cu2   S    
C5    C40   S    
C2    N1    A    
C47   H27   S    
C6    N3    A    
C36   C64   S    
C60   H65   S    
C53   H47   S    
C49   H33   S    
C25   C33   A    
C41   H8    S    
C20   C31   A    
