data_mof_unit_58391.cif
_audit_creation_date              2012-12-11T19:47:12-0500
_audit_creation_method            fapswitch 2.2
_symmetry_space_group_name_H-M    P1
_symmetry_Int_Tables_number       1
_space_group_crystal_system       triclinic
_cell_length_a                    8.229001
_cell_length_b                    15.128317
_cell_length_c                    18.740855
_cell_angle_alpha                 101.429945
_cell_angle_beta                  90.843836
_cell_angle_gamma                 99.241618
_cell_volume                      2254.4990122

loop_
_atom_site_label
_atom_site_type_symbol
_atom_type_description
_atom_site_fract_x
_atom_site_fract_y
_atom_site_fract_z
_atom_type_partial_charge
Ba1   Ba    Ba6+2 0.853520 0.540910 0.466490 1.711362
Ba2   Ba    Ba6+2 0.336320 0.459170 0.533520 1.721289
C1    C     C_3   0.605564 0.844229 0.268890 -0.332539
C2    C     C_R   0.899877 0.402879 0.093593 -0.057870
C3    C     C_R   0.761996 0.414688 0.949693 -0.065212
C4    C     C_3   0.145025 0.722084 0.271100 0.349624
C5    C     C_R   0.926001 0.453132 0.974704 0.035924
C6    C     C_R   0.703299 0.415966 0.879730 -0.095350
C7    C     C_R   0.805545 0.454661 0.830758 -0.063335
C8    C     C_R   0.967381 0.498037 0.855130 0.013462
C9    C     C_R   0.026852 0.498244 0.927447 0.034085
C10   C     C_R   0.751880 0.450596 0.757923 0.033971
C11   C     C_R   0.861600 0.486067 0.709627 -0.239573
C12   C     C_3   0.643651 0.774062 0.311790 0.371075
C13   C     C_R   0.019214 0.533706 0.733220 0.011365
C14   C     C_R   0.070412 0.541514 0.807412 -0.015922
C15   C     C_R   0.152100 0.496949 0.070105 0.039897
C16   C     C_3   0.149786 0.750682 0.197737 -0.290466
C17   C     C_R   0.215278 0.500332 0.142833 -0.024004
C18   C     C_R   0.111527 0.459755 0.192113 -0.029505
C19   C     C_R   0.959193 0.406910 0.164284 0.019723
C20   C     C_R   0.221426 0.592756 0.835837 -0.009725
C21   C     C_R   0.278016 0.595213 0.906159 -0.080802
C22   C     C_R   0.187612 0.543498 0.951767 0.022532
C23   C     C_3   0.458839 0.320607 0.313343 0.284800
C24   C     C_R   0.252053 0.538564 0.021416 -0.005587
C25   C     C_R   0.418346 0.569500 0.041556 -0.091585
C26   C     C_R   0.382332 0.541969 0.165120 -0.058969
C27   C     C_R   0.484889 0.571937 0.110478 0.149853
C28   C     C_3   0.328985 0.756022 0.680461 0.309367
C29   C     C_R   0.435049 0.549445 0.239592 -0.000643
C30   C     C_R   0.323071 0.517636 0.288880 -0.310402
C31   C     C_R   0.163916 0.470902 0.266843 0.062457
C32   C     C_R   0.857870 0.173190 0.555801 0.041464
C33   C     C_R   0.790444 0.078328 0.549388 -0.021124
C34   C     C_3   0.440923 0.298435 0.230294 -0.313760
C35   C     C_R   0.648538 0.888267 0.528050 -0.022950
C36   C     C_R   0.792120 0.924482 0.571033 -0.018225
C37   C     C_R   0.864828 0.015632 0.581582 0.115448
C38   C     C_R   0.581613 0.793893 0.517334 0.023162
C39   C     C_R   0.431270 0.761343 0.477784 -0.243751
C40   C     C_3   0.412947 0.798906 0.756123 -0.326927
C41   C     C_R   0.621759 0.193895 0.480927 0.009336
C42   C     C_R   0.555383 0.100704 0.473746 0.016578
C43   C     C_R   0.638214 0.042778 0.507169 0.014949
C44   C     C_R   0.407426 0.063690 0.432878 -0.005922
C45   C     C_3   0.994946 0.256841 0.730752 0.283745
C46   C     C_R   0.337515 0.972796 0.425710 -0.093877
C47   C     C_R   0.415362 0.913498 0.457138 -0.046680
C48   C     C_R   0.568151 0.948032 0.496974 0.039108
C49   C     C_R   0.344300 0.820537 0.449875 0.002701
C50   C     C_R   0.770159 0.228579 0.522317 -0.247212
C51   C     C_3   0.953249 0.227405 0.330680 0.256255
C52   C     C_3   0.070003 0.154707 0.323271 -0.298352
C53   C     C_3   0.811134 0.727760 0.697338 0.309323
C54   C     C_3   0.920341 0.817334 0.734985 -0.304879
C55   C     C_2   0.788382 0.180517 0.294152 0.895281
C56   C     C_3   0.052786 0.278145 0.811110 -0.154885
C57   C     C_2   0.106353 0.113789 0.245028 0.927836
C58   C     C_2   0.011770 0.079560 0.363727 0.782806
C59   C     C_2   0.738261 0.677150 0.753887 0.732425
C60   C     C_2   0.109957 0.197819 0.833371 0.949136
C61   C     C_2   0.307427 0.830297 0.640447 0.780044
C62   C     C_3   0.543686 0.225270 0.686903 0.426883
C63   C     C_3   0.544157 0.139253 0.717307 -0.268586
C64   C     C_R   0.990261 0.451104 0.045968 0.042320
H1    H     H_    0.727512 0.808816 0.359488 0.059719
H2    H     H_    0.012979 0.805525 0.774142 0.135267
H3    H     H_    0.843978 0.865199 0.765262 0.131711
H4    H     H_    0.526585 0.744118 0.332729 -0.092103
H5    H     H_    0.548272 0.897606 0.304223 0.081428
H6    H     H_    0.340391 0.336506 0.335253 0.019959
H7    H     H_    0.555374 0.382078 0.329657 0.062577
H8    H     H_    0.381241 0.226521 0.210149 0.181326
H9    H     H_    0.364804 0.343552 0.210601 0.044459
H10   H     H_    0.563489 0.309583 0.206669 0.138258
H11   H     H_    0.519740 0.809823 0.221834 0.111541
H12   H     H_    0.454924 0.746923 0.782034 0.112478
H13   H     H_    0.239518 0.814634 0.201028 0.126619
H14   H     H_    0.951021 0.318115 0.718638 -0.044287
H15   H     H_    0.892691 0.197735 0.720956 0.021517
H16   H     H_    0.153830 0.338209 0.821256 0.088579
H17   H     H_    0.949043 0.295899 0.845096 -0.007162
H18   H     H_    0.672319 0.251755 0.675567 -0.217351
H19   H     H_    0.468467 0.207259 0.634925 0.082328
H20   H     H_    0.593311 0.087019 0.677135 0.093785
H21   H     H_    0.417275 0.110828 0.729419 0.191104
H22   H     H_    0.056409 0.657404 0.266397 0.098713
H23   H     H_    0.524443 0.849720 0.752658 0.142991
H24   H     H_    0.622414 0.155569 0.768506 0.125082
H25   H     H_    0.820547 0.480809 0.653631 0.071285
H26   H     H_    0.576662 0.385159 0.864562 0.122106
H27   H     H_    0.881317 0.367770 0.196591 0.133267
H28   H     H_    0.299151 0.631321 0.803998 0.099697
H29   H     H_    0.364205 0.524239 0.345058 0.064695
H30   H     H_    0.674019 0.384130 0.983456 0.091843
H31   H     H_    0.781461 0.360750 0.077837 0.076602
H32   H     H_    0.393107 0.640206 0.923558 0.076932
H33   H     H_    0.269847 0.710474 0.285357 -0.093455
H34   H     H_    0.326544 0.833830 0.792148 0.111970
H35   H     H_    0.503028 0.588554 0.001830 0.107802
H36   H     H_    0.851350 0.881615 0.598208 0.124260
H37   H     H_    0.222998 0.949600 0.393899 0.124081
H38   H     H_    0.342967 0.104447 0.405434 0.076753
H39   H     H_    0.376980 0.690146 0.472242 0.069886
H40   H     H_    0.821235 0.299953 0.526248 0.054057
H41   H     H_    0.186105 0.696062 0.155285 0.078017
H42   H     H_    0.026803 0.763986 0.182238 0.189770
H43   H     H_    0.401523 0.710673 0.646571 0.040754
H44   H     H_    0.591978 0.080424 0.290085 0.325423
H45   H     H_    0.939068 0.257524 0.388943 -0.061357
H46   H     H_    0.276546 0.045025 0.276970 0.258762
H47   H     H_    0.918828 0.947295 0.360120 0.322626
H48   H     H_    0.739069 0.660115 0.858064 0.314872
H49   H     H_    0.050481 0.068126 0.847688 0.327366
H50   H     H_    0.171933 0.871057 0.567933 0.328120
H51   H     H_    0.189696 0.190568 0.348635 0.054186
H52   H     H_    0.881607 0.682477 0.661389 0.034946
H53   H     H_    0.720063 0.876780 0.247601 0.197483
H54   H     H_    0.986816 0.850563 0.694209 0.152317
I1    I     I_    0.743734 0.618995 0.109523 -0.487396
I2    I     I_    0.081377 0.034294 0.650208 -0.448840
O1    O     O_2   0.871960 0.437280 0.322960 -0.483136
O2    O     O_2   0.206996 0.187887 0.552952 -0.416303
O3    O     O_3   0.126147 0.235576 0.687440 -0.550289
O4    O     O_3   0.121410 0.444460 0.412450 -0.490390
O5    O     O_3   0.580430 0.613240 0.540320 -0.472987
O6    O     O_2   0.337390 0.273050 0.457610 -0.458155
O7    O     O_3   0.501110 0.245224 0.338644 -0.635081
O8    O     O_2   0.409737 0.454751 0.754671 -0.447161
O9    O     O_3   0.474674 0.288843 0.737402 -0.569769
O10   O     O_3   0.661450 0.607570 0.372550 -0.484169
O11   O     O_2   0.775085 0.540791 0.248080 -0.466276
O12   O     O_3   0.681376 0.750262 0.659147 -0.679314
O13   O     O_3   0.022680 0.293860 0.292202 -0.647548
O14   O     O_3   0.722657 0.709767 0.266559 -0.549332
O15   O     O_2   0.852310 0.726980 0.542430 -0.433488
O16   O     O_3   0.084010 0.657370 0.410280 -0.470999
O17   O     O_2   0.001196 0.819638 0.455351 -0.471912
O18   O     O_2   0.740750 0.200210 0.238125 -0.561493
O19   O     O_R   0.695097 0.110091 0.321555 -0.792138
O20   O     O_2   0.036519 0.132089 0.193219 -0.517182
O21   O     O_R   0.222776 0.055315 0.231071 -0.699639
O22   O     O_2   0.020266 0.096366 0.430056 -0.611038
O23   O     O_3   0.093779 0.791447 0.322698 -0.588357
O24   O     O_R   0.951579 0.990669 0.325997 -0.734616
O25   O     O_2   0.622159 0.615214 0.735931 -0.605912
O26   O     O_R   0.800309 0.700170 0.826331 -0.773589
O27   O     O_2   0.253764 0.203145 0.853578 -0.588737
O28   O     O_R   0.997567 0.117621 0.831828 -0.743920
O29   O     O_2   0.405334 0.902114 0.650495 -0.639719
O30   O     O_R   0.174382 0.816047 0.590570 -0.734613
O31   O     O_2   0.317750 0.562750 0.677090 -0.430189
O32   O     O_3   0.068300 0.555620 0.587560 -0.475224
O33   O     O_3   0.528270 0.392500 0.627460 -0.466742
O34   O     O_3   0.172024 0.709123 0.689093 -0.677820
O35   O     O_3   0.609290 0.386840 0.459690 -0.484768
O36   O     O_3   0.105700 0.342700 0.589730 -0.469127
P1    P     P_3+3 0.039430 0.410940 0.333230 0.985008
P2    P     P_3+3 0.676770 0.715000 0.563590 0.995844
P3    P     P_3+3 0.131967 0.773485 0.410364 0.991453
P4    P     P_3+3 0.150290 0.589140 0.666780 0.994403
P5    P     P_3+3 0.069051 0.229549 0.596009 1.057446
P6    P     P_3+3 0.646024 0.599571 0.279531 0.998399
P7    P     P_3+3 0.520908 0.271770 0.434004 0.943737
P8    P     P_3+3 0.540774 0.398467 0.720927 1.046506

loop_
_geom_bond_atom_site_label_1
_geom_bond_atom_site_label_2
_ccdc_geom_bond_type
C56   C60   S    
O12   P2    S    
C53   C54   S    
Ba2   O33   S    
C2    C19   A    
C60   O27   D    
C25   C27   A    
C12   H4    S    
C13   P4    S    
C33   C37   A    
C17   C18   A    
C51   O13   S    
Ba1   O10   S    
C23   O7    S    
Ba2   P4    S    
O10   P6    S    
C63   H20   S    
C52   C58   S    
O4    P1    S    
C5    C9    A    
C15   C64   A    
C37   I2    S    
C12   O14   S    
C15   C24   A    
H46   O21   S    
C26   C27   A    
C59   O26   S    
C22   C24   A    
C32   C33   A    
C35   C38   A    
C56   H16   S    
C10   P8    S    
C36   C37   A    
C41   C50   A    
O33   P8    S    
C13   C14   A    
C9    C22   A    
C4    H22   S    
H49   O28   S    
Ba1   Ba2   S    
C47   C48   A    
C16   H41   S    
C62   H18   S    
C34   H10   S    
O9    P8    S    
C6    C7    A    
C47   C49   A    
C27   I1    S    
C12   H1    S    
C45   O3    S    
C6    H26   S    
C7    C8    A    
Ba2   O36   S    
O2    P5    D    
Ba2   O5    S    
C51   H45   S    
C28   O34   S    
O34   P4    S    
Ba2   O32   S    
C28   C61   S    
C11   H25   S    
C20   H28   S    
O3    P5    S    
C58   O24   S    
C45   H14   S    
C57   O21   S    
C42   C44   A    
C63   H21   S    
C52   C57   S    
C41   P7    S    
C63   H24   S    
C4    C16   S    
C44   C46   A    
C39   H39   S    
O13   P1    S    
C28   H43   S    
O17   P3    D    
Ba1   O4    S    
C57   O20   D    
C32   P5    S    
O35   P7    S    
C3    C5    A    
C4    O23   S    
C51   C55   S    
C16   H13   S    
C54   H2    S    
C46   H37   S    
C44   H38   S    
C25   H35   S    
C55   O18   D    
H47   O24   S    
H44   O19   S    
C1    H5    S    
C41   C42   A    
Ba1   O1    S    
C35   C36   A    
C34   H9    S    
C40   H34   S    
O23   P3    S    
O8    P8    D    
C29   C30   A    
C62   O9    S    
Ba1   P1    S    
C21   C22   A    
C30   H29   S    
C24   C25   A    
C23   H6    S    
C10   C11   A    
C17   C26   A    
C61   O29   D    
C1    C12   S    
C34   H8    S    
O36   P5    S    
C18   C31   A    
Ba2   O4    S    
C46   C47   A    
C40   H12   S    
Ba2   O31   S    
C11   C13   A    
O6    P7    D    
C19   H27   S    
C1    H11   S    
O11   P6    D    
O32   P4    S    
C62   H19   S    
H50   O30   S    
C3    H30   S    
Ba1   O15   S    
C42   C43   A    
O14   P6    S    
C29   P6    S    
C38   C39   A    
C14   C20   A    
C60   O28   S    
O15   P2    D    
C38   P2    S    
C26   C29   A    
Ba1   O5    S    
C3    C6    A    
C1    H53   S    
C51   C52   S    
C54   H54   S    
O7    P7    S    
C53   O12   S    
C32   C50   A    
C55   O19   S    
O31   P4    D    
C40   H23   S    
C4    H33   S    
Ba1   O35   S    
C59   O25   D    
H48   O26   S    
C36   H36   S    
C8    C14   A    
C56   H17   S    
C30   C31   A    
C5    C64   A    
C2    C64   A    
C35   C48   A    
Ba1   P2    S    
O1    P1    D    
C43   C48   A    
Ba2   O35   S    
C53   C59   S    
C62   C63   S    
C15   C17   A    
C49   P3    S    
O16   P3    S    
C23   H7    S    
C45   H15   S    
Ba1   O32   S    
C7    C10   A    
C16   H42   S    
C61   O30   S    
C8    C9    A    
C23   C34   S    
C50   H40   S    
C21   H32   S    
C18   C19   A    
C54   H3    S    
C52   H51   S    
C20   C21   A    
C28   C40   S    
C2    H31   S    
O5    P2    S    
C39   C49   A    
C58   O22   D    
Ba1   O16   S    
C31   P1    S    
Ba2   O6    S    
C45   C56   S    
C53   H52   S    
C33   C43   A    
