data_mof_unit_39748.cif
_audit_creation_date              2012-12-11T14:17:44-0500
_audit_creation_method            fapswitch 2.2
_symmetry_space_group_name_H-M    P1
_symmetry_Int_Tables_number       1
_space_group_crystal_system       triclinic
_cell_length_a                    11.186406
_cell_length_b                    11.141843
_cell_length_c                    18.8947
_cell_angle_alpha                 89.948747
_cell_angle_beta                  90.334053
_cell_angle_gamma                 120.366022
_cell_volume                      2031.87033202

loop_
_atom_site_label
_atom_site_type_symbol
_atom_type_description
_atom_site_fract_x
_atom_site_fract_y
_atom_site_fract_z
_atom_type_partial_charge
C1    C     C_R   0.521966 0.451947 0.144756 0.657397
C2    C     C_R   0.547632 0.069485 0.145215 0.661760
C3    C     C_R   0.928661 0.477659 0.145811 0.651531
C4    C     C_R   0.463463 0.519712 0.850941 0.691616
C5    C     C_R   0.066719 0.544270 0.854142 0.637280
C6    C     C_R   0.479463 0.938634 0.852458 0.611073
C7    C     C_R   0.420658 0.953976 0.451672 -0.009630
C8    C     C_R   0.062959 0.461222 0.451386 -0.026369
C9    C     C_R   0.541534 0.582016 0.452699 -0.027907
C10   C     C_R   0.083222 0.458990 0.524429 -0.063029
C11   C     C_R   0.390868 0.926061 0.523824 -0.068745
C12   C     C_R   0.542184 0.612038 0.524815 -0.056538
C13   C     C_R   0.738092 0.160214 0.606027 0.386685
C14   C     C_R   0.845322 0.573248 0.596190 0.373940
C15   C     C_R   0.423233 0.262791 0.606185 0.385211
C16   C     C_R   0.905075 0.685780 0.460872 0.368584
C17   C     C_R   0.800004 0.127961 0.467962 0.353637
C18   C     C_R   0.332646 0.198656 0.467162 0.349771
C19   C     C_R   0.862229 0.166543 0.592054 0.384077
C20   C     C_R   0.834624 0.688669 0.581373 0.387445
C21   C     C_R   0.306508 0.136500 0.590966 0.386162
C22   C     C_R   0.864351 0.745048 0.513748 0.439671
C23   C     C_R   0.891046 0.145646 0.523255 0.426170
C24   C     C_R   0.258648 0.106777 0.521671 0.434778
C25   C     C_R   0.540817 0.423288 0.361796 0.501972
C26   C     C_R   0.576777 0.116284 0.361614 0.502316
C27   C     C_R   0.924160 0.478499 0.356778 0.520698
C28   C     C_R   0.458343 0.520797 0.646571 0.614814
C29   C     C_R   0.065455 0.542571 0.645370 0.613914
C30   C     C_R   0.479152 0.936836 0.646345 0.613484
C31   C     C_R   0.494845 0.004880 0.922226 0.013586
C32   C     C_R   0.012490 0.503772 0.926713 -0.010586
C33   C     C_R   0.519315 0.508232 0.920880 0.070912
C34   C     C_R   0.966835 0.491114 0.072532 0.004482
C35   C     C_R   0.523459 0.030447 0.070076 0.014132
C36   C     C_R   0.508671 0.476427 0.069156 0.014203
C37   C     C_R   0.376873 0.969961 0.965441 -0.159989
C38   C     C_R   0.055013 0.429595 0.972156 -0.082171
C39   C     C_R   0.596087 0.627429 0.965800 -0.140445
C40   C     C_R   0.036353 0.426291 0.045877 -0.109628
C41   C     C_R   0.389577 0.963510 0.039933 -0.143310
C42   C     C_R   0.574758 0.611629 0.040210 -0.124626
C43   C     C_R   0.640101 0.093839 0.025171 0.367870
C44   C     C_R   0.906363 0.545216 0.025993 0.371536
C45   C     C_R   0.461925 0.361104 0.023214 0.372266
C46   C     C_R   0.929723 0.552067 0.954047 0.392992
C47   C     C_R   0.625931 0.076246 0.952599 0.403266
C48   C     C_R   0.466929 0.377222 0.950201 0.462712
C49   C     C_R   0.248741 0.947675 0.938191 0.464501
C50   C     C_R   0.140173 0.382031 0.948534 0.376621
C51   C     C_R   0.698991 0.759859 0.940381 0.445534
C52   C     C_R   0.088760 0.357197 0.089127 0.413478
C53   C     C_R   0.268547 0.901455 0.081905 0.382741
C54   C     C_R   0.630306 0.731565 0.083709 0.376271
C55   C     C_R   0.133882 0.899332 0.981823 0.472826
C56   C     C_R   0.141168 0.273661 0.984553 0.486798
C57   C     C_R   0.763142 0.874074 0.985978 0.472620
C58   C     C_R   0.124433 0.267210 0.057288 0.491013
C59   C     C_R   0.142747 0.874014 0.053024 0.429706
C60   C     C_R   0.728137 0.860121 0.057023 0.430856
C61   C     C_R   0.496092 0.999637 0.575969 0.015873
C62   C     C_R   0.009325 0.496150 0.573402 0.015565
C63   C     C_R   0.505877 0.505090 0.576595 0.038705
C64   C     C_R   0.976623 0.509050 0.428348 0.028307
C65   C     C_R   0.553520 0.058864 0.432852 0.030774
C66   C     C_R   0.509833 0.447697 0.433372 0.020118
C67   C     C_R   0.630810 0.097824 0.555179 -0.136353
C68   C     C_R   0.916321 0.534773 0.548358 -0.145915
C69   C     C_R   0.469031 0.370260 0.555565 -0.135253
C70   C     C_R   0.925379 0.571582 0.476887 -0.162010
C71   C     C_R   0.664338 0.104122 0.483173 -0.159476
C72   C     C_R   0.443242 0.336406 0.483290 -0.165156
Cr1   Cr    Cr6+3 0.768550 0.541320 0.250660 1.229037
Cr2   Cr    Cr6+3 0.458680 0.227230 0.250660 1.239655
Cr3   Cr    Cr6+3 0.772770 0.231450 0.250660 1.240319
Cr4   Cr    Cr6+3 0.541320 0.768550 0.749340 1.257598
Cr5   Cr    Cr6+3 0.227230 0.458680 0.749340 1.256655
Cr6   Cr    Cr6+3 0.231450 0.772770 0.749340 1.268124
O1    O     O_R   0.910960 0.572410 0.171010 -0.395283
O2    O     O_R   0.427590 0.338550 0.171010 -0.404040
O3    O     O_R   0.661450 0.089040 0.171010 -0.390053
O4    O     O_R   0.572410 0.910960 0.828990 -0.415830
O5    O     O_R   0.338550 0.427590 0.828990 -0.359221
O6    O     O_R   0.089040 0.661450 0.828990 -0.413343
O7    O     O_R   0.639750 0.528530 0.175600 -0.416634
O8    O     O_R   0.471470 0.111220 0.175600 -0.418412
O9    O     O_R   0.888780 0.360250 0.175600 -0.415771
O10   O     O_R   0.528530 0.639750 0.824400 -0.458341
O11   O     O_R   0.111220 0.471470 0.824400 -0.438453
O12   O     O_R   0.360250 0.888780 0.824400 -0.446918
O13   O     O_R   0.909330 0.572400 0.331540 -0.436920
O14   O     O_R   0.427600 0.336930 0.331540 -0.414647
O15   O     O_R   0.663070 0.090670 0.331540 -0.415884
O16   O     O_R   0.572400 0.909330 0.668460 -0.483993
O17   O     O_R   0.336930 0.427600 0.668460 -0.494537
O18   O     O_R   0.090670 0.663070 0.668460 -0.469980
O19   O     O_R   0.638240 0.528520 0.324410 -0.497590
O20   O     O_R   0.471480 0.109720 0.324410 -0.479239
O21   O     O_R   0.890280 0.361760 0.324410 -0.485962
O22   O     O_R   0.528520 0.638240 0.675590 -0.468614
O23   O     O_R   0.109720 0.471480 0.675590 -0.479286
O24   O     O_R   0.361760 0.890280 0.675590 -0.465965
O25   O     O_3   0.666667 0.333333 0.250630 -0.411449
O26   O     O_3   0.333333 0.666667 0.749370 -0.391977
F1    F     F_    0.769646 0.175418 0.051367 -0.574805
F2    F     F_    0.821200 0.589266 0.050080 -0.582130
F3    F     F_    0.411011 0.231051 0.049105 -0.587950
F4    F     F_    0.871922 0.606690 0.910979 -0.493111
F5    F     F_    0.740811 0.131718 0.911480 -0.508407
F6    F     F_    0.419687 0.264470 0.907378 -0.487576
F7    F     F_    0.237735 0.992515 0.872965 -0.423297
F8    F     F_    0.265024 0.491495 0.934011 -0.731322
F9    F     F_    0.755302 0.776040 0.875155 -0.434756
F10   F     F_    0.111650 0.379062 0.159806 -0.568037
F11   F     F_    0.270669 0.866486 0.150579 -0.566901
F12   F     F_    0.591255 0.725670 0.152140 -0.569782
F13   F     F_    0.013402 0.878776 0.954411 -0.429842
F14   F     F_    0.175355 0.188434 0.950954 -0.459218
F15   F     F_    0.864113 0.998584 0.961432 -0.440914
F16   F     F_    0.150427 0.181273 0.096879 -0.472512
F17   F     F_    0.031221 0.831422 0.095428 -0.473187
F18   F     F_    0.796356 0.969733 0.101589 -0.468352
C73   C     C_3   0.319346 0.858233 0.395057 -0.292874
H1    H     H_    0.278116 0.747661 0.409252 0.097993
H2    H     H_    0.232994 0.879240 0.388407 0.265268
H3    H     H_    0.368541 0.866782 0.343144 0.180524
C74   C     C_3   0.147325 0.431845 0.398049 -0.298461
H4    H     H_    0.259329 0.500734 0.408731 0.106441
H5    H     H_    0.119655 0.321273 0.401005 0.263444
H6    H     H_    0.135370 0.455510 0.342453 0.180092
C75   C     C_3   0.550534 0.684750 0.396392 -0.303591
H7    H     H_    0.484164 0.728230 0.410626 0.103826
H8    H     H_    0.659455 0.769956 0.390019 0.245970
H9    H     H_    0.507069 0.635717 0.344402 0.183965
C76   C     C_3   0.193349 0.430878 0.549322 -0.307599
H10   H     H_    0.239863 0.396704 0.508877 0.147194
H11   H     H_    0.275379 0.529177 0.571754 0.088024
H12   H     H_    0.150961 0.345394 0.587740 0.261758
C77   C     C_3   0.250466 0.810453 0.544739 -0.316996
H13   H     H_    0.175209 0.768117 0.501346 0.162034
H14   H     H_    0.263277 0.726775 0.567156 0.082303
H15   H     H_    0.202031 0.847120 0.582813 0.254840
C78   C     C_3   0.569643 0.754373 0.545514 -0.307465
H16   H     H_    0.472594 0.742227 0.565971 0.083915
H17   H     H_    0.653016 0.802694 0.585046 0.261177
H18   H     H_    0.606869 0.832227 0.502910 0.156799
F19   F     F_    0.713474 0.187180 0.672859 -0.485395
F20   F     F_    0.810619 0.516295 0.661882 -0.487086
F21   F     F_    0.473668 0.288254 0.673539 -0.482207
F22   F     F_    0.954734 0.763560 0.401506 -0.505861
F23   F     F_    0.840149 0.108757 0.403747 -0.520096
F24   F     F_    0.275153 0.155155 0.402410 -0.517435
F25   F     F_    0.949046 0.182541 0.646249 -0.519861
F26   F     F_    0.809511 0.753344 0.634972 -0.519442
F27   F     F_    0.235349 0.047577 0.644209 -0.509370
F28   F     F_    0.859601 0.861649 0.499616 -0.499513
F29   F     F_    0.008131 0.142705 0.509428 -0.509377
F30   F     F_    0.139985 0.987486 0.506372 -0.500995

loop_
_geom_bond_atom_site_label_1
_geom_bond_atom_site_label_2
_ccdc_geom_bond_type
C2    C35   S    
C59   F17   S    
C78   H18   S    
C39   C51   A    
Cr4   O26   S    
C6    O4    A    
C55   C59   A    
C76   H12   S    
C5    O6    A    
Cr5   O23   S    
C75   H9    S    
C3    O1    A    
C53   C59   A    
C73   H1    S    
Cr2   O20   S    
C22   F28   S    
Cr6   O12   S    
Cr1   O19   S    
C27   O21   A    
C33   C39   A    
C20   F26   S    
C28   O17   A    
C34   C40   A    
Cr5   O26   S    
C55   F13   S    
C77   H15   S    
C24   F30   S    
C73   H2    S    
Cr6   O24   S    
Cr5   O5    S    
C78   H16   S    
C14   F20   S    
C78   H17   S    
C43   F1    S    
Cr2   O14   S    
C11   C77   S    
C9    C66   A    
Cr4   O16   S    
C4    C33   S    
C36   C42   A    
C66   C72   A    
C63   C69   A    
Cr6   O18   S    
C18   C72   A    
C54   F12   S    
C27   O13   A    
C51   C57   A    
C32   C38   A    
C35   C43   A    
Cr4   O10   S    
C57   F15   S    
C5    C32   S    
C68   C70   A    
C28   O22   A    
C26   O15   A    
C6    C31   S    
C31   C47   A    
C10   C62   A    
Cr3   O25   S    
C17   F23   S    
C56   F14   S    
C26   O20   A    
C18   F24   S    
C58   F16   S    
C44   C46   A    
C39   C42   A    
C9    C75   S    
C1    O7    A    
C15   C69   A    
C13   C19   A    
Cr6   O26   S    
C14   C20   A    
C76   H10   S    
C16   C70   A    
C10   C76   S    
Cr1   O13   S    
Cr4   O4    S    
C12   C63   A    
C19   C23   A    
Cr3   O3    S    
C73   H3    S    
C54   C60   A    
C3    C34   S    
C75   H8    S    
C65   C71   A    
C3    O9    A    
Cr5   O17   S    
C50   C56   A    
C31   C37   A    
C46   F4    S    
C69   C72   A    
C7    C11   A    
C74   H5    S    
C7    C65   A    
C37   C49   A    
C61   C67   A    
C8    C74   S    
C15   C21   A    
Cr5   O11   S    
C30   O24   A    
Cr3   O21   S    
C21   F27   S    
C29   O23   A    
C36   C45   A    
C17   C23   A    
Cr2   O8    S    
C60   F18   S    
C52   F10   S    
C41   C53   A    
C52   C58   A    
C8    C64   A    
C38   C50   A    
Cr3   O9    S    
C20   C22   A    
C17   C71   A    
C64   C70   A    
C47   F5    S    
C19   F25   S    
C18   C24   A    
C21   C24   A    
C13   F19   S    
C75   H7    S    
C15   F21   S    
Cr3   O15   S    
C13   C67   A    
C45   C48   A    
C25   O19   A    
C76   H11   S    
C34   C44   A    
C29   C62   S    
C25   O14   A    
C16   C22   A    
C26   C65   S    
C32   C46   A    
C51   F9    S    
C25   C66   S    
C7    C73   S    
C11   C61   A    
C49   C55   A    
C29   O18   A    
C53   F11   S    
C77   H13   S    
C4    O10   A    
C44   F2    S    
Cr4   O22   S    
Cr1   O1    S    
C12   C78   S    
C49   F7    S    
C50   F8    S    
C57   C60   A    
C74   H6    S    
Cr1   O7    S    
C30   O16   A    
C40   C52   A    
C42   C54   A    
C38   C40   A    
C77   H14   S    
C4    O5    A    
C23   F29   S    
C56   C58   A    
C2    O8    A    
C67   C71   A    
C62   C68   A    
C37   C41   A    
C35   C41   A    
C9    C12   A    
C27   C64   S    
C45   F3    S    
C28   C63   S    
Cr6   O6    S    
Cr1   O25   S    
C6    O12   A    
C8    C10   A    
C30   C61   S    
C33   C48   A    
C14   C68   A    
C1    O2    A    
C2    O3    A    
Cr2   O2    S    
C48   F6    S    
C16   F22   S    
C43   C47   A    
C5    O11   A    
C74   H4    S    
C1    C36   S    
Cr2   O25   S    
