data_mof_unit_62830.cif
_audit_creation_date              2012-10-26T18:25:10-0400
_audit_creation_method            fapswitch 2.2
_symmetry_space_group_name_H-M    P1
_symmetry_Int_Tables_number       1
_space_group_crystal_system       triclinic
_cell_length_a                    21.734802
_cell_length_b                    21.728615
_cell_length_c                    21.188439
_cell_angle_alpha                 120.575692
_cell_angle_beta                  120.477579
_cell_angle_gamma                 90.419797
_cell_volume                      6933.94240299

loop_
_atom_site_label
_atom_site_type_symbol
_atom_type_description
_atom_site_fract_x
_atom_site_fract_y
_atom_site_fract_z
_atom_type_partial_charge
C1    C     C_R   0.084599 0.584609 0.669246 0.567824
C2    C     C_R   0.502172 0.705067 0.816175 -0.104073
C3    C     C_R   0.529309 0.756703 0.807391 -0.092934
C4    C     C_R   0.118022 0.499727 0.499012 0.595671
C5    C     C_R   0.487627 0.746464 0.724232 -0.081401
C6    C     C_R   0.418678 0.684705 0.649871 -0.047467
C7    C     C_R   0.391067 0.632547 0.658112 0.094621
C8    C     C_1   0.136102 0.635832 0.771761 0.017343
C9    C     C_1   0.178811 0.678300 0.856706 0.028143
C10   C     C_1   0.229325 0.728681 0.957476 0.066032
C11   C     C_1   0.271748 0.771151 0.042438 0.045796
C12   C     C_R   0.971029 0.257610 0.176729 -0.066796
C13   C     C_1   0.322004 0.821544 0.143217 -0.011391
C14   C     C_1   0.364361 0.864048 0.228187 -0.021695
C15   C     C_R   0.960327 0.438126 0.696618 -0.142520
C16   C     C_R   0.915295 0.415383 0.330742 0.531130
C17   C     C_R   0.897247 0.435450 0.625888 -0.081678
C18   C     C_R   0.882075 0.502547 0.641665 -0.011249
C19   C     C_R   0.929508 0.571883 0.729261 -0.068027
C20   C     C_R   0.992085 0.574243 0.800182 0.248290
C21   C     C_R   0.007746 0.507424 0.783661 -0.066939
C22   C     C_R   0.750645 0.502279 0.566818 -0.146409
C23   C     C_R   0.243661 0.446381 0.423965 -0.157327
C24   C     C_R   0.686844 0.503071 0.500147 0.003795
C25   C     C_R   0.687645 0.504216 0.434582 -0.030094
C26   C     C_R   0.752228 0.502257 0.435735 -0.143903
C27   C     C_R   0.815372 0.499947 0.501372 0.011100
C28   C     C_R   0.881839 0.500277 0.501068 0.543153
C29   C     C_R   0.814984 0.500150 0.567742 -0.036873
C30   C     C_R   0.584387 0.454433 0.273935 -0.090329
C31   C     C_R   0.523603 0.461056 0.210968 -0.096407
C32   C     C_R   0.502356 0.524934 0.241172 -0.089199
C33   C     C_R   0.542028 0.582472 0.334402 -0.100709
C34   C     C_R   0.313531 0.505905 0.501201 -0.047322
C35   C     C_R   0.602630 0.575958 0.397596 -0.056742
C36   C     C_R   0.623921 0.511582 0.367727 0.047604
C37   C     C_1   0.863679 0.364195 0.228206 -0.017746
C38   C     C_1   0.821040 0.321789 0.143240 -0.030316
C39   C     C_1   0.770723 0.271421 0.042464 0.000123
C40   C     C_R   0.009359 0.258278 0.253804 0.260718
C41   C     C_1   0.728320 0.228964 0.957497 0.003641
C42   C     C_1   0.678016 0.178616 0.856728 -0.031473
C43   C     C_1   0.635644 0.136076 0.771772 -0.015293
C44   C     C_R   0.497773 0.619901 0.499864 0.549524
C45   C     C_R   0.319036 0.565692 0.578197 -0.022728
C46   C     C_R   0.380067 0.503099 0.500298 0.556919
C47   C     C_R   0.501309 0.380165 0.499993 0.565135
C48   C     C_R   0.620002 0.501554 0.499938 0.559678
C49   C     C_R   0.501186 0.119816 0.501964 0.536865
C50   C     C_R   0.415463 0.915360 0.330748 0.532769
C51   C     C_R   0.500412 0.881909 0.501245 0.569123
C52   C     C_R   0.077269 0.318986 0.334468 -0.036921
C53   C     C_R   0.584539 0.084650 0.669242 0.554029
C54   C     C_R   0.267085 0.499417 0.233542 0.261826
C55   C     C_R   0.335453 0.561165 0.291707 -0.031513
C56   C     C_R   0.254102 0.562708 0.577200 0.197969
C57   C     C_R   0.354684 0.625761 0.374638 -0.002631
C58   C     C_R   0.303649 0.629184 0.397207 -0.111861
C59   C     C_R   0.235421 0.567373 0.339069 -0.152036
C60   C     C_R   0.217289 0.502403 0.257499 -0.064674
C61   C     C_R   0.431239 0.754577 0.441898 -0.139144
C62   C     C_R   0.500443 0.815929 0.502662 0.034544
C63   C     C_R   0.568257 0.813180 0.563293 0.010383
C64   C     C_R   0.106495 0.379805 0.338641 -0.017505
C65   C     C_R   0.565729 0.748294 0.561374 -0.141624
C66   C     C_R   0.496956 0.686336 0.499413 -0.011301
C67   C     C_R   0.184945 0.501054 0.500019 0.022951
C68   C     C_R   0.428941 0.689052 0.438814 -0.039173
C69   C     C_R   0.697990 0.874170 0.616470 -0.092684
C70   C     C_R   0.768190 0.934735 0.680312 0.255950
C71   C     C_R   0.782892 0.999250 0.759942 -0.100294
C72   C     C_R   0.727588 0.003246 0.775923 -0.115379
C73   C     C_R   0.656951 0.943131 0.712080 0.250055
C74   C     C_R   0.641809 0.878137 0.631537 0.009178
C75   C     C_R   0.522186 0.254432 0.271583 -0.093265
C76   C     C_R   0.067698 0.378830 0.261112 -0.111405
C77   C     C_R   0.496952 0.243555 0.315416 -0.059124
C78   C     C_R   0.179319 0.443085 0.422778 -0.074504
C79   C     C_R   0.550013 0.265093 0.403909 0.031127
C80   C     C_R   0.628480 0.296432 0.447454 -0.098390
C81   C     C_R   0.653486 0.306546 0.403051 -0.105019
C82   C     C_R   0.600388 0.286054 0.315454 -0.089129
C83   C     C_R   0.524355 0.194899 0.455486 -0.140526
C84   C     C_R   0.503388 0.188267 0.505012 0.003719
C85   C     C_R   0.483818 0.246316 0.555022 -0.025125
C86   C     C_R   0.483121 0.308580 0.551543 -0.145478
C87   C     C_R   0.502071 0.313825 0.500183 0.007210
C88   C     C_R   0.000161 0.317867 0.180448 -0.151468
C89   C     C_R   0.433352 0.643028 0.741781 -0.036380
C90   C     C_R   0.523669 0.257366 0.452439 -0.035720
C91   C     C_R   0.397244 0.248397 0.600467 -0.086074
C92   C     C_R   0.382153 0.248948 0.657493 -0.106134
C93   C     C_R   0.437126 0.247463 0.729378 -0.094673
C94   C     C_R   0.507362 0.245612 0.744505 -0.095219
C95   C     C_R   0.522636 0.244844 0.687506 -0.065176
C96   C     C_R   0.467413 0.245729 0.614646 0.048744
Cl1   Cl    Cl    0.050039 0.660688 0.910045 -0.596976
Cl2   Cl    Cl    0.972404 0.182957 0.249263 -0.571919
Cl3   Cl    Cl    0.244380 0.417919 0.131229 -0.598612
Cl4   Cl    Cl    0.837876 0.929599 0.660632 -0.559912
Cl5   Cl    Cl    0.589360 0.950001 0.735611 -0.608248
Cl6   Cl    Cl    0.258969 0.636745 0.672408 -0.598384
Cu1   Cu    Cu3+1 0.000010 0.438210 0.500020 0.998429
Cu2   Cu    Cu3+1 0.999990 0.561790 0.499980 1.030545
Cu3   Cu    Cu3+1 0.457530 0.457560 0.415050 1.001937
Cu4   Cu    Cu3+1 0.542470 0.542480 0.584950 0.955417
Cu5   Cu    Cu3+1 0.561810 1.000000 0.500000 0.985966
Cu6   Cu    Cu3+1 0.438190 1.000000 0.500000 1.013762
H1    H     H_    0.918558 0.210688 0.114133 0.151786
H2    H     H_    0.492904 0.416614 0.138731 0.122938
H3    H     H_    0.455251 0.529917 0.192343 0.128154
H4    H     H_    0.525763 0.632072 0.357682 0.108090
H5    H     H_    0.632888 0.620925 0.469684 0.099331
H6    H     H_    0.164532 0.454597 0.212874 0.139107
H7    H     H_    0.374193 0.558302 0.273332 0.132928
H8    H     H_    0.316925 0.679428 0.459895 0.127139
H9    H     H_    0.107373 0.318651 0.393539 0.151931
H10   H     H_    0.379180 0.757281 0.395753 0.134032
H11   H     H_    0.617717 0.745887 0.608034 0.133354
H12   H     H_    0.582712 0.804522 0.864943 0.136981
H13   H     H_    0.686979 0.824207 0.554979 0.142816
H14   H     H_    0.837258 0.046149 0.809684 0.158500
H15   H     H_    0.739856 0.053071 0.838253 0.153017
H16   H     H_    0.619858 0.294676 0.281614 0.112656
H17   H     H_    0.481127 0.238555 0.203734 0.119059
H18   H     H_    0.436239 0.219469 0.281122 0.124094
H19   H     H_    0.089791 0.425223 0.263275 0.117560
H20   H     H_    0.670065 0.313615 0.515887 0.113033
H21   H     H_    0.713978 0.330827 0.436787 0.115443
H22   H     H_    0.540399 0.150878 0.418188 0.139449
H23   H     H_    0.508835 0.786193 0.717267 0.158932
H24   H     H_    0.468375 0.353661 0.589705 0.121582
H25   H     H_    0.354179 0.249590 0.545007 0.116589
H26   H     H_    0.327870 0.250637 0.646030 0.124231
H27   H     H_    0.425402 0.248009 0.773542 0.122386
H28   H     H_    0.550029 0.244988 0.800575 0.116885
H29   H     H_    0.577484 0.243900 0.700306 0.095381
H30   H     H_    0.970288 0.317384 0.120841 0.130964
H31   H     H_    0.239336 0.401212 0.364607 0.158738
H32   H     H_    0.413224 0.602946 0.749059 0.130789
H33   H     H_    0.534630 0.712945 0.880537 0.120486
H34   H     H_    0.387223 0.676953 0.585712 0.095770
H35   H     H_    0.917580 0.623755 0.742334 0.153911
H36   H     H_    0.749849 0.502019 0.617470 0.137295
H37   H     H_    0.196706 0.569745 0.357353 0.126622
H38   H     H_    0.056214 0.509029 0.838276 0.154560
H39   H     H_    0.972207 0.386383 0.684086 0.128268
H40   H     H_    0.860453 0.381334 0.558945 0.124355
H41   H     H_    0.753770 0.503521 0.386011 0.126454
H42   H     H_    0.600084 0.404503 0.249743 0.100579
O1    O     O_R   0.061970 0.509790 0.623960 -0.493695
O2    O     O_R   0.447790 0.090160 0.499970 -0.493966
O3    O     O_R   0.490230 0.938030 0.376060 -0.492045
O4    O     O_R   0.061960 0.614160 0.623930 -0.462111
O5    O     O_R   0.385840 0.938030 0.376050 -0.486819
O6    O     O_R   0.552210 0.909840 0.500030 -0.505943
O7    O     O_R   0.447820 0.909840 0.500030 -0.484593
O8    O     O_R   0.614160 0.061970 0.623950 -0.491686
O9    O     O_R   0.509770 0.061970 0.623940 -0.471833
O10   O     O_R   0.090190 0.447820 0.500020 -0.509852
O11   O     O_R   0.090170 0.552190 0.499990 -0.466515
O12   O     O_R   0.535870 0.626050 0.571740 -0.511209
O13   O     O_R   0.938040 0.385840 0.376070 -0.474288
O14   O     O_R   0.938030 0.490210 0.376040 -0.502742
O15   O     O_R   0.909830 0.447810 0.500010 -0.511015
O16   O     O_R   0.909810 0.552180 0.499980 -0.503605
O17   O     O_R   0.464140 0.554340 0.428270 -0.501871
O18   O     O_R   0.373960 0.464160 0.428260 -0.500704
O19   O     O_R   0.445680 0.535880 0.571730 -0.507911
O20   O     O_R   0.464130 0.373990 0.428260 -0.502717
O21   O     O_R   0.535860 0.445700 0.571730 -0.510213
O22   O     O_R   0.554320 0.464170 0.428270 -0.490809
O23   O     O_R   0.626040 0.535880 0.571740 -0.513497
O24   O     O_R   0.552180 0.090160 0.499970 -0.512642

loop_
_geom_bond_atom_site_label_1
_geom_bond_atom_site_label_2
_ccdc_geom_bond_type
C66   C68   A    
C63   C65   A    
C93   C94   A    
C32   H3    S    
C27   C29   A    
C1    C8    S    
Cu4   O21   S    
C71   H14   S    
C60   H6    S    
C35   C36   A    
Cu5   O8    S    
C81   C82   A    
C39   C41   T    
Cu6   O9    S    
C54   C60   A    
C85   C86   A    
C16   O14   A    
C51   C62   S    
C26   C27   A    
C62   C63   A    
C46   O18   A    
C83   C84   A    
C7    C45   S    
C49   C84   S    
C23   H31   S    
C22   C29   A    
C69   C70   A    
C31   H2    S    
C40   Cl2   S    
C30   C31   A    
C15   H39   S    
C85   C96   S    
Cu1   O10   S    
C30   H42   S    
C50   O3    A    
C7    C89   A    
C18   C19   A    
C41   C42   S    
C5    H23   S    
C49   O24   A    
C79   C90   S    
C91   C96   A    
Cu6   O2    S    
C44   C66   S    
C43   C53   S    
C20   Cl1   S    
C95   C96   A    
C45   C56   A    
C8    C9    T    
C94   H28   S    
Cu5   Cu6   S    
C35   H5    S    
C70   C71   A    
C34   C46   S    
C6    H34   S    
C9    C10   S    
C76   C88   A    
Cu5   O6    S    
Cu1   O1    S    
C16   C37   S    
C52   H9    S    
C23   C34   A    
C73   Cl5   S    
C59   C60   A    
C48   O22   A    
C13   C14   T    
C58   H8    S    
C94   C95   A    
C67   C78   A    
C44   O12   A    
C14   C50   S    
C82   H16   S    
C12   H1    S    
C70   Cl4   S    
C77   C79   A    
C16   O13   A    
C65   H11   S    
C38   C39   S    
C51   O6    A    
C53   O9    A    
C95   H29   S    
Cu3   O20   S    
C12   C88   A    
C24   C48   S    
C17   H40   S    
C84   C85   A    
C83   H22   S    
C52   C64   A    
C91   C92   A    
C33   H4    S    
C86   C87   A    
C72   C73   A    
Cu6   O7    S    
C80   H20   S    
C3    C5    A    
C25   C26   A    
C40   C52   A    
C51   O7    A    
Cu3   O17   S    
C75   H17   S    
C44   O17   A    
C47   C87   S    
C12   C40   A    
C2    C89   A    
C37   C38   T    
C81   H21   S    
C31   C32   A    
C91   H25   S    
C69   H13   S    
C50   O5    A    
C89   H32   S    
C17   C18   A    
C64   C76   A    
C69   C74   A    
C18   C29   S    
C24   C25   A    
C75   C77   A    
C88   H30   S    
Cu5   O3    S    
C34   C45   A    
C28   O15   A    
C59   H37   S    
C63   C74   S    
Cu1   O15   S    
C55   C57   A    
C72   H15   S    
Cu4   O19   S    
C22   C24   A    
C54   Cl3   S    
C87   C90   A    
C42   C43   T    
C57   C68   S    
C73   C74   A    
Cu2   O11   S    
C47   O20   A    
C48   O23   A    
C3    H12   S    
C15   C17   A    
C83   C90   A    
C54   C55   A    
C19   H35   S    
C49   O2    A    
C61   H10   S    
C64   C78   S    
C26   H41   S    
C92   H26   S    
C80   C81   A    
C93   H27   S    
Cu2   O14   S    
C4    C67   S    
C47   O21   A    
C1    O4    A    
C46   O19   A    
C75   C82   A    
C6    C7    A    
Cu5   O24   S    
C28   O16   A    
C56   C67   A    
Cu3   Cu4   S    
Cu1   O13   S    
Cu3   O18   S    
C30   C36   A    
C21   H38   S    
C19   C20   A    
C2    C3    A    
C58   C59   A    
C56   Cl6   S    
C71   C72   A    
C32   C33   A    
C4    O10   A    
C11   C13   S    
C61   C68   A    
C86   H24   S    
C57   C58   A    
C5    C6    A    
Cu6   O5    S    
C55   H7    S    
C2    H33   S    
C92   C93   A    
C33   C35   A    
Cu4   O23   S    
C1    O1    A    
Cu4   O12   S    
C23   C78   A    
C53   O8    A    
C61   C62   A    
C10   C11   T    
C25   C36   S    
Cu2   O16   S    
C79   C80   A    
C15   C21   A    
C20   C21   A    
C65   C66   A    
Cu3   O22   S    
C22   H36   S    
Cu1   Cu2   S    
C76   H19   S    
C4    O11   A    
Cu2   O4    S    
C77   H18   S    
C27   C28   S    
