data_mof_unit_55797.cif
_audit_creation_date              2012-10-26T20:21:33-0400
_audit_creation_method            fapswitch 2.2
_symmetry_space_group_name_H-M    P1
_symmetry_Int_Tables_number       1
_space_group_crystal_system       triclinic
_cell_length_a                    10.997702
_cell_length_b                    9.496521
_cell_length_c                    11.710962
_cell_angle_alpha                 90.008088
_cell_angle_beta                  90.309003
_cell_angle_gamma                 90.488744
_cell_volume                      1223.02948745

loop_
_atom_site_label
_atom_site_type_symbol
_atom_type_description
_atom_site_fract_x
_atom_site_fract_y
_atom_site_fract_z
_atom_type_partial_charge
C1    C     C_R   0.261065 0.500976 0.498604 0.536274
C2    C     C_R   0.935656 0.644039 0.517679 -0.014969
C3    C     C_R   0.935492 0.389170 0.548933 -0.012192
C4    C     C_R   0.064526 0.641845 0.510682 -0.015382
C5    C     C_R   0.870777 0.512983 0.527139 -0.009911
C6    C     C_R   0.125625 0.507806 0.503332 -0.007977
C7    C     C_R   0.452223 0.073977 0.410126 -0.010715
C8    C     C_R   0.547891 0.926071 0.589978 -0.013200
C9    C     C_R   0.548204 0.074937 0.589832 -0.010983
C10   C     C_R   0.451867 0.925153 0.410232 -0.012747
C11   C     C_3   0.101150 0.239170 0.467413 -0.238257
C12   C     C_R   0.737420 0.502689 0.510159 0.538591
C13   C     C_3   0.123942 0.243043 0.337979 -0.285367
C14   C     C_3   0.140494 0.095405 0.289101 -0.469440
C15   C     C_3   0.870571 0.787324 0.513795 -0.216690
C16   C     C_3   0.847255 0.829651 0.388363 -0.281137
C17   C     C_3   0.797337 0.977966 0.376267 -0.445354
C18   C     C_3   0.882108 0.274274 0.625858 -0.243987
C19   C     C_3   0.961202 0.251925 0.732747 -0.310154
C20   C     C_3   0.918106 0.123791 0.800538 -0.464059
C21   C     C_3   0.133404 0.783948 0.517222 -0.215273
C22   C     C_3   0.173141 0.812258 0.641641 -0.274804
C23   C     C_R   0.499907 0.499988 0.283852 0.549866
C24   C     C_3   0.219143 0.962048 0.658672 -0.453695
C25   C     C_R   0.499972 0.500008 0.716150 0.542028
C26   C     C_1   0.499841 0.499961 0.162253 -0.039170
C27   C     C_1   0.499939 0.500009 0.837739 -0.040185
C28   C     C_1   0.499839 0.499957 0.059845 -0.054611
C29   C     C_1   0.499889 0.499982 0.940143 -0.055017
C30   C     C_R   0.055780 0.381167 0.510300 -0.014819
Cu1   Cu    Cu3+1 0.500000 0.640660 0.500000 0.901418
Cu2   Cu    Cu3+1 0.500000 0.359340 0.500000 0.912278
H1    H     H_    0.413952 0.129547 0.338103 0.121071
H2    H     H_    0.182203 0.203486 0.514655 0.171010
H3    H     H_    0.033851 0.154820 0.483064 0.128648
H4    H     H_    0.714823 0.990421 0.428164 0.182387
H5    H     H_    0.866012 0.056654 0.403483 0.140138
H6    H     H_    0.773798 0.998424 0.285499 0.142290
H7    H     H_    0.933214 0.823599 0.339289 0.140662
H8    H     H_    0.782110 0.754851 0.347769 0.196463
H9    H     H_    0.788555 0.792181 0.567257 0.163980
H10   H     H_    0.919486 0.871125 0.561150 0.106838
H11   H     H_    0.822294 0.137427 0.827702 0.148636
H12   H     H_    0.587303 0.870750 0.661628 0.109056
H13   H     H_    0.924933 0.026943 0.747822 0.141894
H14   H     H_    0.976004 0.111171 0.877763 0.146119
H15   H     H_    0.057861 0.237539 0.709740 0.164774
H16   H     H_    0.956273 0.346914 0.788019 0.160365
H17   H     H_    0.791743 0.304220 0.659090 0.163929
H18   H     H_    0.868235 0.174548 0.578467 0.135948
H19   H     H_    0.288918 0.989204 0.594446 0.176333
H20   H     H_    0.141746 0.034636 0.650462 0.134143
H21   H     H_    0.259074 0.973843 0.745454 0.143246
H22   H     H_    0.094458 0.795336 0.699477 0.144294
H23   H     H_    0.588061 0.131093 0.661273 0.110998
H24   H     H_    0.245255 0.738263 0.668627 0.199852
H25   H     H_    0.206871 0.795348 0.454105 0.163189
H26   H     H_    0.082307 0.874432 0.484161 0.116822
H27   H     H_    0.412438 0.869053 0.338571 0.110878
H28   H     H_    0.208031 0.035759 0.339805 0.133691
H29   H     H_    0.052845 0.036936 0.289900 0.148592
H30   H     H_    0.172251 0.102842 0.199457 0.140113
H31   H     H_    0.045401 0.292569 0.293799 0.159662
H32   H     H_    0.206347 0.306922 0.319007 0.178207
N1    N     N_R   0.500000 0.852070 0.500000 -0.224490
N2    N     N_R   0.500000 0.147930 0.500000 -0.226847
O1    O     O_R   0.319640 0.618740 0.499990 -0.512893
O2    O     O_R   0.680360 0.381260 0.500010 -0.500740
O3    O     O_R   0.680360 0.618740 0.500010 -0.512406
O4    O     O_R   0.319640 0.381260 0.499990 -0.506206
O5    O     O_R   0.500010 0.618790 0.337200 -0.501256
O6    O     O_R   0.499990 0.381210 0.662800 -0.504215
O7    O     O_R   0.499990 0.618790 0.662800 -0.507229
O8    O     O_R   0.500010 0.381210 0.337200 -0.498308

loop_
_geom_bond_atom_site_label_1
_geom_bond_atom_site_label_2
_ccdc_geom_bond_type
C24   H20   S    
C7    C10   A    
C2    C4    A    
C12   O3    A    
C21   H25   S    
C9    H23   S    
C17   H4    S    
C9    N2    A    
C25   C27   S    
C7    H1    S    
C19   C20   S    
C26   C28   T    
C1    O4    A    
C13   H31   S    
Cu1   O3    S    
Cu2   O2    S    
C3    C5    A    
C24   H19   S    
Cu1   O5    S    
C10   H27   S    
C18   H17   S    
C8    N1    A    
C22   H22   S    
C25   O6    A    
C17   H5    S    
C13   C14   S    
C11   C30   S    
C7    N2    A    
Cu1   O1    S    
C2    C15   S    
C12   O2    A    
C15   H9    S    
C13   H32   S    
C16   H8    S    
C3    C30   A    
C11   H3    S    
C28   C29   S    
C6    C30   A    
C4    C21   S    
C18   C19   S    
C25   O7    A    
C17   H6    S    
Cu2   O8    S    
Cu1   Cu2   S    
C22   C24   S    
Cu1   O7    S    
C11   C13   S    
C27   C29   T    
C5    C12   S    
C16   H7    S    
C15   C16   S    
C2    C5    A    
C22   H24   S    
C23   O5    A    
C21   H26   S    
C20   H11   S    
C14   H28   S    
C18   H18   S    
C3    C18   S    
Cu2   N2    S    
C4    C6    A    
C19   H15   S    
C1    C6    S    
C23   C26   S    
Cu1   N1    S    
C19   H16   S    
C16   C17   S    
Cu2   O4    S    
C14   H29   S    
C23   O8    A    
C1    O1    A    
C24   H21   S    
C21   C22   S    
C20   H13   S    
C11   H2    S    
C20   H14   S    
C8    H12   S    
C15   H10   S    
C10   N1    A    
C8    C9    A    
Cu2   O6    S    
C14   H30   S    
