data_mof_unit_67737.cif
_audit_creation_date              2012-12-10T19:48:35-0500
_audit_creation_method            fapswitch 2.2
_symmetry_space_group_name_H-M    P1
_symmetry_Int_Tables_number       1
_space_group_crystal_system       triclinic
_cell_length_a                    10.888763
_cell_length_b                    10.592489
_cell_length_c                    9.399565
_cell_angle_alpha                 90.834336
_cell_angle_beta                  90.290079
_cell_angle_gamma                 90.160542
_cell_volume                      1084.00406967

loop_
_atom_site_label
_atom_site_type_symbol
_atom_type_description
_atom_site_fract_x
_atom_site_fract_y
_atom_site_fract_z
_atom_type_partial_charge
C1    C     C_R   0.500466 0.259576 0.499611 0.872306
C2    C     C_R   0.499306 0.740412 0.500480 0.871042
C3    C     C_R   0.871572 0.506617 0.502867 -0.085761
C4    C     C_R   0.128498 0.492833 0.496821 -0.085962
C5    C     C_R   0.941527 0.559904 0.616209 0.026218
C6    C     C_R   0.058593 0.439495 0.383359 0.020215
C7    C     C_3   0.603928 0.039609 0.444386 0.384150
C8    C     C_3   0.395541 0.960298 0.556434 0.417052
C9    C     C_3   0.509241 0.956705 0.364963 -0.192735
C10   C     C_3   0.490229 0.043292 0.635718 -0.179204
C11   C     C_3   0.498937 0.876984 0.500164 -0.191217
C12   C     C_3   0.500537 0.122986 0.500419 -0.179816
C13   C     C_3   0.595324 0.958253 0.578159 -0.219877
C14   C     C_3   0.404043 0.041675 0.422589 -0.215760
C15   C     C_3   0.465735 0.608383 0.051823 -0.007352
C16   C     C_3   0.534242 0.391662 0.948156 -0.025375
C17   C     C_3   0.391599 0.523528 0.949112 -0.004134
C18   C     C_3   0.608398 0.476484 0.050870 -0.015757
C19   C     C_3   0.574121 0.584969 0.950985 -0.033267
C20   C     C_3   0.425873 0.415049 0.049000 -0.045766
C21   C     C_R   0.262414 0.494525 0.498854 0.822929
C22   C     C_R   0.737619 0.505212 0.501077 0.819782
C23   C     C_R   0.128346 0.375614 0.998270 -0.255578
C24   C     C_R   0.872103 0.623680 0.001150 -0.275766
C25   C     C_R   0.111619 0.440574 0.127056 -0.144037
C26   C     C_R   0.888534 0.558731 0.872347 -0.147044
C27   C     C_R   0.110229 0.375311 0.255805 0.057214
C28   C     C_R   0.889986 0.624078 0.743653 0.052772
C29   C     C_R   0.130340 0.243911 0.253933 -0.194127
C30   C     C_R   0.870215 0.755515 0.745478 -0.220795
C31   C     C_R   0.151303 0.179264 0.124069 0.426952
C32   C     C_R   0.849732 0.820121 0.875410 0.493545
C33   C     C_R   0.148705 0.245861 0.996693 -0.161613
C34   C     C_R   0.852239 0.753489 0.002744 -0.129488
C35   C     C_R   0.931190 0.448144 0.388166 -0.142185
C36   C     C_R   0.068872 0.551322 0.611423 -0.139527
Cu1   Cu    Cu3+1 0.500030 0.499990 0.643150 0.984030
Cu2   Cu    Cu3+1 0.499970 0.500010 0.356850 0.981748
H1    H     H_    0.163659 0.197537 0.896078 0.205449
H2    H     H_    0.837609 0.801867 0.103326 0.187634
H3    H     H_    0.302226 0.549197 0.901003 0.145561
H4    H     H_    0.697759 0.450760 0.098966 0.143685
H5    H     H_    0.436416 0.699689 0.099966 0.175351
H6    H     H_    0.563257 0.300549 0.899602 0.130404
H7    H     H_    0.631722 0.659036 0.902777 0.147522
H8    H     H_    0.368403 0.340890 0.097221 0.137203
H9    H     H_    0.125940 0.425817 0.899037 0.158772
H10   H     H_    0.874419 0.573457 0.100371 0.159555
H11   H     H_    0.095224 0.541284 0.126192 0.178537
H12   H     H_    0.904732 0.457980 0.873147 0.177136
H13   H     H_    0.125515 0.192153 0.352172 0.158256
H14   H     H_    0.874848 0.807303 0.647151 0.183640
H15   H     H_    0.877788 0.405915 0.301945 0.187682
H16   H     H_    0.122228 0.593641 0.697632 0.188328
H17   H     H_    0.519999 0.918555 0.255159 0.212856
H18   H     H_    0.479490 0.081469 0.745495 0.181311
H19   H     H_    0.673300 0.917225 0.636864 0.206110
H20   H     H_    0.326050 0.082642 0.363872 0.193549
N1    N     N_3   0.500090 0.499970 0.858290 -0.174385
N2    N     N_3   0.499910 0.500030 0.141710 -0.177941
O1    O     O_R   0.500060 0.316850 0.620870 -0.595323
O2    O     O_R   0.499940 0.683150 0.379130 -0.594836
O3    O     O_R   0.500000 0.316860 0.379090 -0.559987
O4    O     O_R   0.500000 0.683140 0.620910 -0.555286
O5    O     O_R   0.319670 0.500010 0.620890 -0.592378
O6    O     O_R   0.680330 0.499990 0.379110 -0.594383
O7    O     O_R   0.319620 0.500010 0.379110 -0.571282
O8    O     O_R   0.680380 0.499990 0.620890 -0.572581
S1    S     S_3+6 0.181686 0.015657 0.117461 0.043313
O9    O     O_2   0.139044 0.953888 0.251421 -0.219032
O10   O     O_2   0.118085 0.954700 0.991958 -0.175979
O11   O     O_3   0.333559 0.993906 0.098783 -0.557420
H21   H     H_    0.354764 0.035355 0.008310 0.349050
S2    S     S_3+6 0.819220 0.983487 0.882207 0.026906
O12   O     O_2   0.884103 0.043441 0.007477 -0.196960
O13   O     O_2   0.860032 0.045770 0.747752 -0.238666
O14   O     O_3   0.667353 0.002926 0.903783 -0.584638
H22   H     H_    0.657525 0.092555 0.932699 0.373680
S3    S     S_3+6 0.744631 0.095465 0.371562 0.049947
O15   O     O_2   0.718881 0.161891 0.234515 -0.273597
O16   O     O_2   0.803435 0.186262 0.475665 -0.258020
O17   O     O_3   0.840912 0.974213 0.341219 -0.440970
H23   H     H_    0.788549 0.897617 0.339909 0.303679
S4    S     S_3+6 0.255858 0.903796 0.630870 0.038860
O18   O     O_2   0.191472 0.818478 0.525273 -0.269047
O19   O     O_2   0.284106 0.831151 0.763115 -0.248423
O20   O     O_3   0.164478 0.026288 0.672614 -0.482117
H24   H     H_    0.147160 0.067693 0.580922 0.351466

loop_
_geom_bond_atom_site_label_1
_geom_bond_atom_site_label_2
_ccdc_geom_bond_type
O20   H24   S    
C4    C36   A    
C35   H15   S    
C15   N2    S    
S4    O20   S    
C5    C36   A    
O14   H22   S    
C15   C19   S    
C33   H1    S    
S2    O13   D    
C34   H2    S    
C24   C26   A    
C18   H4    S    
C32   S2    S    
C13   H19   S    
Cu1   O8    S    
C17   C20   S    
C6    C35   A    
C15   C17   S    
C18   C19   S    
S1    O10   D    
C22   O6    A    
Cu2   O6    S    
C23   C33   A    
S2    O14   S    
Cu1   O5    S    
C31   C33   A    
C9    H17   S    
C20   N2    S    
C10   H18   S    
C16   H6    S    
C21   O7    A    
C1    C12   S    
C2    C11   S    
C1    O3    A    
C2    O4    A    
C25   H11   S    
C7    C12   S    
C14   H20   S    
C23   H9    S    
S2    O12   D    
C24   H10   S    
S4    O18   D    
C4    C6    A    
S3    O16   D    
C19   N1    S    
C24   C34   A    
C16   N1    S    
C32   C34   A    
S1    O11   S    
C9    C14   S    
Cu1   Cu2   S    
C5    C28   S    
C31   S1    S    
C6    C27   S    
C3    C35   A    
C16   C20   S    
C16   C18   S    
C9    C11   S    
C22   O8    A    
Cu1   N1    S    
C10   C12   S    
C17   N1    S    
Cu2   N2    S    
C18   N2    S    
C12   C14   S    
Cu1   O4    S    
C7    S3    S    
Cu2   O3    S    
C29   H13   S    
C7    C9    S    
C30   H14   S    
C8    C14   S    
C21   O5    A    
C8    S4    S    
S4    O19   D    
O11   H21   S    
C3    C5    A    
C10   C13   S    
C1    O1    A    
S3    O17   S    
Cu1   O1    S    
C19   H7    S    
C25   C27   A    
C26   C28   A    
C26   H12   S    
C15   H5    S    
C29   C31   A    
C30   C32   A    
C4    C21   S    
C11   C13   S    
C27   C29   A    
C8    C11   S    
C28   C30   A    
C23   C25   A    
S1    O9    D    
C17   H3    S    
C36   H16   S    
S3    O15   D    
C7    C13   S    
Cu2   O7    S    
C8    C10   S    
O17   H23   S    
C3    C22   S    
C20   H8    S    
C2    O2    A    
Cu2   O2    S    
