data_mof_unit_8991.cif
_audit_creation_date              2012-12-10T16:53:33-0500
_audit_creation_method            fapswitch 2.2
_symmetry_space_group_name_H-M    P1
_symmetry_Int_Tables_number       1
_space_group_crystal_system       triclinic
_cell_length_a                    7.855455
_cell_length_b                    8.564652
_cell_length_c                    13.645417
_cell_angle_alpha                 92.994067
_cell_angle_beta                  78.094518
_cell_angle_gamma                 93.651872
_cell_volume                      895.762549415

loop_
_atom_site_label
_atom_site_type_symbol
_atom_type_description
_atom_site_fract_x
_atom_site_fract_y
_atom_site_fract_z
_atom_type_partial_charge
C1    C     C_R   0.545876 0.794483 0.497602 0.965360
C2    C     C_1   0.566683 0.486795 0.120539 0.057400
C3    C     C_2   0.569988 0.958029 0.496200 -0.356623
C4    C     C_2   0.430012 0.041970 0.503800 -0.356623
C5    C     C_2   0.254879 0.546024 0.050598 0.978766
C6    C     C_2   0.745121 0.453969 0.949402 0.978766
C7    C     C_1   0.039994 0.343997 0.409709 0.417583
C8    C     C_1   0.960006 0.656003 0.590291 0.417585
C9    C     C_R   0.454124 0.205517 0.502398 0.965360
C10   C     C_R   0.469860 0.503743 0.686891 0.892960
C11   C     C_R   0.530140 0.496257 0.313109 0.892960
C12   C     C_1   0.552233 0.490940 0.208771 -0.080341
C13   C     C_1   0.447767 0.509058 0.791229 -0.080338
C14   C     C_2   0.573027 0.484786 0.016143 -0.128880
C15   C     C_2   0.426973 0.515208 0.983856 -0.128880
C16   C     C_1   0.433317 0.513201 0.879461 0.057402
H1    H     H_    0.702302 0.008797 0.488923 0.183395
H2    H     H_    0.297697 0.991203 0.511077 0.183395
H3    H     H_    0.087429 0.514116 0.182679 0.350609
H4    H     H_    0.912570 0.485869 0.817319 0.350608
N1    N     N_2   0.954190 0.457600 0.473930 -0.160092
N2    N     N_2   0.045810 0.542400 0.526070 -0.160092
N3    N     N_1   0.109966 0.248612 0.355683 -0.210219
N4    N     N_1   0.890033 0.751387 0.644317 -0.210221
O1    O     O_R   0.388300 0.738660 0.506400 -0.623051
O2    O     O_R   0.208177 0.485594 0.146298 -0.795331
O3    O     O_2   0.849113 0.378667 0.980226 -0.591464
O4    O     O_R   0.791821 0.514390 0.853699 -0.795334
O5    O     O_R   0.611700 0.261340 0.493600 -0.623051
O6    O     O_R   0.679920 0.711490 0.489690 -0.632364
O7    O     O_R   0.320080 0.288510 0.510310 -0.632364
O8    O     O_R   0.333200 0.515510 0.649910 -0.625172
O9    O     O_R   0.666800 0.484490 0.350090 -0.625171
O10   O     O_R   0.624820 0.488340 0.633200 -0.605622
O11   O     O_R   0.375180 0.511660 0.366800 -0.605624
O12   O     O_2   0.150890 0.621332 0.019777 -0.591463
Zn1   Zn    Zn3+2 0.305280 0.518140 0.511160 0.963084
Zn2   Zn    Zn3+2 0.694720 0.481860 0.488840 0.963085

loop_
_geom_bond_atom_site_label_1
_geom_bond_atom_site_label_2
_ccdc_geom_bond_type
O5    Zn2   S    
C8    N2    S    
C11   C12   S    
C5    O2    S    
C6    C14   S    
C6    O3    D    
C9    O5    A    
C2    C12   T    
C11   O11   A    
C4    H2    S    
C10   O10   A    
O10   Zn2   S    
N1    N2    D    
C1    O1    A    
C7    N3    T    
C1    O6    A    
C8    N4    T    
C3    H1    S    
O7    Zn1   S    
C2    C14   S    
C5    C15   S    
C9    O7    A    
C3    C4    D    
C5    O12   D    
C10   O8    A    
C11   O9    A    
O6    Zn2   S    
C13   C16   T    
C7    N1    S    
H3    O2    S    
C14   C15   D    
O9    Zn2   S    
H4    O4    S    
O11   Zn1   S    
C4    C9    S    
O8    Zn1   S    
N2    Zn1   S    
C6    O4    S    
N1    Zn2   S    
C15   C16   S    
O1    Zn1   S    
C1    C3    S    
C10   C13   S    
