data_mof_unit_24393.cif
_audit_creation_date              2012-12-10T17:09:26-0500
_audit_creation_method            fapswitch 2.2
_symmetry_space_group_name_H-M    P1
_symmetry_Int_Tables_number       1
_space_group_crystal_system       triclinic
_cell_length_a                    10.492083
_cell_length_b                    10.710353
_cell_length_c                    10.032297
_cell_angle_alpha                 89.255928
_cell_angle_beta                  90.442204
_cell_angle_gamma                 90.400437
_cell_volume                      1127.21307717

loop_
_atom_site_label
_atom_site_type_symbol
_atom_type_description
_atom_site_fract_x
_atom_site_fract_y
_atom_site_fract_z
_atom_type_partial_charge
C1    C     C_R   0.494442 0.262692 0.500713 0.957287
C2    C     C_2   0.570378 0.574967 0.074541 -0.118190
C3    C     C_R   0.257407 0.498349 0.499401 0.856574
C4    C     C_R   0.496572 0.737379 0.498679 0.916061
C5    C     C_R   0.742510 0.500078 0.500567 0.870702
C6    C     C_3   0.042378 0.402553 0.578347 -0.212813
C7    C     C_3   0.956503 0.388632 0.454059 0.039195
C8    C     C_3   0.877465 0.498065 0.501425 -0.002073
C9    C     C_3   0.961179 0.513062 0.625967 -0.151230
C10   C     C_3   0.044106 0.606638 0.546054 -0.175510
C11   C     C_R   0.899102 0.269288 0.401702 0.088970
C12   C     C_3   0.958137 0.591468 0.421621 -0.213566
C13   C     C_R   0.907192 0.157277 0.475743 -0.159823
C14   C     C_R   0.849123 0.048332 0.428484 -0.134038
C15   C     C_R   0.782702 0.050327 0.307246 -0.108055
C16   C     C_R   0.774510 0.161205 0.232829 -0.137299
C17   C     C_R   0.832747 0.270226 0.279535 -0.113502
C18   C     C_R   0.376613 0.877556 0.276072 0.179268
C19   C     C_R   0.262412 0.810429 0.294603 -0.096646
C20   C     C_R   0.201353 0.754517 0.186044 -0.129796
C21   C     C_R   0.253549 0.765334 0.058624 -0.116355
C22   C     C_R   0.366495 0.832855 0.039281 -0.130596
C23   C     C_3   0.039175 0.481058 0.373246 -0.193180
C24   C     C_R   0.427807 0.889130 0.147441 -0.179304
C25   C     C_3   0.122424 0.496506 0.498183 0.034272
C26   C     C_2   0.443430 0.935225 0.391369 0.021284
C27   C     C_2   0.494737 0.869943 0.494291 -0.398824
C28   C     C_2   0.458943 0.069587 0.389420 -0.190972
C29   C     C_2   0.470764 0.132009 0.503068 -0.352852
C30   C     C_2   0.575307 0.570181 0.924637 -0.146141
H1    H     H_    0.457061 0.088407 0.600197 0.146887
H2    H     H_    0.075021 0.467266 0.270674 0.139713
H3    H     H_    0.545646 0.914009 0.575720 0.143124
H4    H     H_    0.461279 0.117265 0.293126 0.171612
H5    H     H_    0.956855 0.154014 0.570577 0.119577
H6    H     H_    0.855064 0.962443 0.486202 0.121562
H7    H     H_    0.737258 0.966080 0.271244 0.121646
H8    H     H_    0.722641 0.162787 0.139152 0.119503
H9    H     H_    0.825366 0.355538 0.220945 0.136290
H10   H     H_    0.221335 0.801040 0.392945 0.098450
H11   H     H_    0.113600 0.702770 0.200522 0.122063
H12   H     H_    0.644324 0.630072 0.874806 0.153373
H13   H     H_    0.206412 0.721524 0.974853 0.122281
H14   H     H_    0.406913 0.841024 0.940568 0.134506
H15   H     H_    0.515976 0.940128 0.131326 0.108831
H16   H     H_    0.431402 0.449438 0.897975 0.160276
H17   H     H_    0.630099 0.643782 0.123653 0.152601
H18   H     H_    0.449447 0.432067 0.102714 0.156572
H19   H     H_    0.083314 0.327353 0.642309 0.127177
H20   H     H_    0.925404 0.526465 0.728628 0.140635
H21   H     H_    0.084782 0.695610 0.583535 0.121749
H22   H     H_    0.919052 0.668472 0.358783 0.130627
N1    N     N_2   0.501360 0.501330 0.852150 -0.191645
N2    N     N_2   0.501400 0.501360 0.147810 -0.188617
O1    O     O_R   0.499980 0.319060 0.613040 -0.622344
O2    O     O_R   0.500020 0.319100 0.386900 -0.614387
O3    O     O_R   0.313930 0.499950 0.613050 -0.623498
O4    O     O_R   0.313970 0.499990 0.386910 -0.619636
O5    O     O_R   0.499980 0.680900 0.613100 -0.617889
O6    O     O_R   0.500020 0.680940 0.386960 -0.594669
O7    O     O_R   0.686030 0.500010 0.613090 -0.620547
O8    O     O_R   0.686070 0.500050 0.386950 -0.625568
Zn1   Zn    Zn3+2 0.499970 0.499970 0.650990 0.927540
Zn2   Zn    Zn3+2 0.500030 0.500030 0.349010 0.939359

loop_
_geom_bond_atom_site_label_1
_geom_bond_atom_site_label_2
_ccdc_geom_bond_type
C5    O8    A    
C5    C8    S    
H18   N2    S    
O2    Zn2   S    
O3    Zn1   S    
C6    C7    S    
C2    H17   S    
N1    Zn1   S    
C9    C10   S    
O5    Zn1   S    
C19   C20   A    
C18   C26   S    
C2    C30   S    
C8    C12   S    
C23   H2    S    
C4    O6    A    
C6    C9    S    
C1    C29   S    
C20   H11   S    
C1    O1    A    
C22   H14   S    
C28   H4    S    
C7    C8    S    
C29   H1    S    
C21   H13   S    
C13   C14   A    
C27   H3    S    
C7    C11   S    
C11   C13   A    
C12   C23   S    
C26   C27   D    
C16   C17   A    
C10   C12   S    
C18   C24   A    
C24   H15   S    
C3    O3    A    
H16   N1    S    
O1    Zn1   S    
C28   C29   D    
C12   H22   S    
C1    O2    A    
N2    Zn2   S    
C13   H5    S    
C22   C24   A    
C23   C25   S    
C6    H19   S    
O4    Zn2   S    
C30   N1    D    
C7    C23   S    
C6    C25   S    
C19   H10   S    
C10   H21   S    
C5    O7    A    
C15   C16   A    
C4    O5    A    
C3    O4    A    
C3    C25   S    
C4    C27   S    
C20   C21   A    
C10   C25   S    
C18   C19   A    
C2    N2    D    
O7    Zn1   S    
C17   H9    S    
C14   C15   A    
C30   H12   S    
C14   H6    S    
O8    Zn2   S    
C21   C22   A    
C26   C28   S    
C15   H7    S    
C9    H20   S    
C16   H8    S    
C8    C9    S    
O6    Zn2   S    
C11   C17   A    
