data_mof_unit_13950.cif
_audit_creation_date              2012-12-10T17:03:00-0500
_audit_creation_method            fapswitch 2.2
_symmetry_space_group_name_H-M    P1
_symmetry_Int_Tables_number       1
_space_group_crystal_system       triclinic
_cell_length_a                    9.834471
_cell_length_b                    11.044464
_cell_length_c                    13.413829
_cell_angle_alpha                 94.225741
_cell_angle_beta                  81.795878
_cell_angle_gamma                 111.689988
_cell_volume                      1339.60307999

loop_
_atom_site_label
_atom_site_type_symbol
_atom_type_description
_atom_site_fract_x
_atom_site_fract_y
_atom_site_fract_z
_atom_type_partial_charge
C1    C     C_R   0.557387 0.746184 0.507588 0.781124
C2    C     C_R   0.426675 0.444571 0.968136 0.058915
C3    C     C_R   0.462300 0.428132 0.863282 0.078448
C4    C     C_R   0.538000 0.468720 0.032183 0.045121
C5    C     C_R   0.681769 0.474754 0.990528 0.129670
C6    C     C_R   0.708020 0.440948 0.887819 -0.077936
C7    C     C_R   0.590677 0.399532 0.829126 -0.106825
C8    C     C_R   0.511436 0.490340 0.136395 -0.220549
C9    C     C_R   0.761322 0.520244 0.158126 -0.222584
C10   C     C_R   0.367945 0.441238 0.796563 -0.084537
C11   C     C_2   0.592165 0.887201 0.513330 -0.164671
C12   C     C_R   0.419999 0.474844 0.689393 0.841546
C13   C     C_2   0.491887 0.932962 0.489582 -0.158499
C14   C     C_2   0.411209 0.114818 0.486483 -0.318320
C15   C     C_2   0.521461 0.071522 0.482807 -0.080350
C16   C     C_2   0.921815 0.489209 0.491925 -0.078554
C17   C     C_2   0.076892 0.508532 0.509667 -0.054640
C18   C     C_R   0.443600 0.254436 0.491004 0.894478
C19   C     C_R   0.577384 0.511898 0.309303 0.789146
C20   C     C_R   0.792735 0.504417 0.054622 -0.137627
C21   C     C_R   0.619460 0.510209 0.199742 -0.051451
C22   C     C_R   0.224604 0.431831 0.834917 -0.142418
C23   C     C_R   0.179583 0.422773 0.937710 -0.109173
C24   C     C_R   0.280193 0.434496 0.004187 -0.173306
Cu1   Cu    Cu3+1 0.362000 0.479240 0.482530 0.956972
Cu2   Cu    Cu3+1 0.638000 0.520760 0.517470 0.953649
H1    H     H_    0.847125 0.537093 0.205669 0.154117
H2    H     H_    0.384858 0.865995 0.471666 0.163726
H3    H     H_    0.297368 0.047720 0.489768 0.148537
H4    H     H_    0.106207 0.385643 0.399637 0.190422
H5    H     H_    0.895215 0.617034 0.598564 0.213329
H6    H     H_    0.903288 0.510558 0.026447 0.164731
H7    H     H_    0.405980 0.490403 0.170819 0.152124
H8    H     H_    0.147784 0.432936 0.785179 0.183672
H9    H     H_    0.238098 0.432556 0.082872 0.121720
H10   H     H_    0.067534 0.411820 0.966476 0.140374
H11   H     H_    0.634743 0.139754 0.475533 0.199125
N1    N     N_2   0.845330 0.551960 0.543750 -0.295728
N2    N     N_2   0.154690 0.448120 0.456210 -0.286276
O1    O     O_R   0.426290 0.668220 0.490680 -0.571614
O2    O     O_R   0.659360 0.703290 0.520190 -0.581175
O3    O     O_R   0.326580 0.473880 0.629020 -0.575227
O4    O     O_R   0.559660 0.508940 0.658530 -0.575680
O5    O     O_R   0.340640 0.296710 0.479810 -0.573823
O6    O     O_R   0.573710 0.331780 0.509320 -0.576338
O7    O     O_R   0.440340 0.491060 0.341470 -0.583312
O8    O     O_R   0.673420 0.526120 0.370980 -0.583955
C25   C     C_2   0.736358 0.972048 0.546824 0.361104
H12   H     H_    0.830545 0.941714 0.531304 0.086785
O9    O     O_2   0.749479 0.071912 0.596685 -0.545136
H13   H     H_    0.125454 0.575733 0.569258 0.174928
H14   H     H_    0.872234 0.420213 0.433580 0.157216
C26   C     C_2   0.856152 0.447191 0.841038 0.262872
H15   H     H_    0.871921 0.361735 0.804274 0.072461
O10   O     O_2   0.960957 0.550276 0.840526 -0.548324
C27   C     C_2   0.592990 0.308694 0.741615 0.442371
H16   H     H_    0.695804 0.312762 0.697452 0.097704
O11   O     O_2   0.478467 0.225288 0.719708 -0.538363

loop_
_geom_bond_atom_site_label_1
_geom_bond_atom_site_label_2
_ccdc_geom_bond_type
Cu1   O3    S    
Cu2   O4    S    
C2    C4    A    
C23   C24   A    
C13   H2    S    
C6    C7    A    
C18   O5    A    
C14   C18   S    
C9    C20   A    
C1    C11   S    
H5    N1    S    
C4    C8    A    
C17   H13   S    
C25   O9    D    
C2    C3    A    
C19   O7    A    
C3    C10   A    
C15   H11   S    
C26   H15   S    
C10   C22   A    
C11   C13   D    
C9    C21   A    
C11   C25   S    
C16   C17   S    
C10   C12   S    
Cu2   O8    S    
C7    C27   S    
Cu1   O5    S    
C1    O2    A    
C25   H12   S    
C19   C21   S    
C27   O11   D    
H4    N2    S    
C8    C21   A    
C12   O4    A    
C3    C7    A    
C8    H7    S    
C13   C15   S    
Cu1   O1    S    
C2    C24   A    
C5    C6    A    
C22   H8    S    
C19   O8    A    
C24   H9    S    
C6    C26   S    
C18   O6    A    
C27   H16   S    
C9    H1    S    
C23   H10   S    
C20   H6    S    
C5    C20   A    
C17   N2    D    
C14   C15   D    
Cu2   N1    S    
C12   O3    A    
C14   H3    S    
C1    O1    A    
Cu1   Cu2   S    
C22   C23   A    
C26   O10   D    
Cu1   O7    S    
Cu1   N2    S    
C16   H14   S    
Cu2   O2    S    
C16   N1    D    
C4    C5    A    
Cu2   O6    S    
