data_mof_unit_16690.cif
_audit_creation_date              2012-12-10T17:24:52-0500
_audit_creation_method            fapswitch 2.2
_symmetry_space_group_name_H-M    P1
_symmetry_Int_Tables_number       1
_space_group_crystal_system       triclinic
_cell_length_a                    19.183263
_cell_length_b                    18.236215
_cell_length_c                    19.237165
_cell_angle_alpha                 109.31551
_cell_angle_beta                  111.722912
_cell_angle_gamma                 109.142458
_cell_volume                      5062.01437263

loop_
_atom_site_label
_atom_site_type_symbol
_atom_type_description
_atom_site_fract_x
_atom_site_fract_y
_atom_site_fract_z
_atom_type_partial_charge
C1    C     C_R   0.613424 0.623132 0.496499 0.851124
C2    C     C_R   0.679918 0.774067 0.505316 -0.005004
C3    C     C_1   0.295911 0.379075 0.170368 0.262832
C4    C     C_1   0.037638 0.268816 0.577475 0.166017
C5    C     C_1   0.549427 0.756084 0.521122 0.244637
C6    C     C_2   0.540756 0.888640 0.474412 0.379979
C7    C     C_R   0.815366 0.816290 0.504912 -0.174228
C8    C     C_R   0.378860 0.499318 0.379064 0.850549
C9    C     C_R   0.822460 0.745206 0.516691 0.007104
C10   C     C_R   0.762364 0.695559 0.531600 0.078694
C11   C     C_R   0.684990 0.698809 0.510459 -0.177505
C12   C     C_R   0.888007 0.722691 0.517516 0.003100
C13   C     C_R   0.905793 0.671174 0.555642 0.005954
C14   C     C_R   0.852333 0.633801 0.582146 -0.256620
C15   C     C_R   0.780135 0.642713 0.567411 -0.123812
C16   C     C_3   0.180665 0.414184 0.195793 -0.189471
C17   C     C_R   0.772424 0.664910 0.772588 -0.154304
C18   C     C_R   0.839015 0.745121 0.850926 -0.143780
C19   C     C_R   0.893459 0.742375 0.920132 -0.133689
C20   C     C_R   0.379572 0.378030 0.497941 0.844214
C21   C     C_R   0.884299 0.659825 0.909395 -0.155088
C22   C     C_R   0.818734 0.577030 0.828709 0.072898
C23   C     C_R   0.757923 0.579174 0.762168 0.085384
C24   C     C_R   0.814219 0.493374 0.812699 -0.189573
C25   C     C_R   0.747053 0.410139 0.732165 0.028403
C26   C     C_R   0.679143 0.411476 0.670788 -0.031463
C27   C     C_3   0.220132 0.471209 0.295220 -0.134345
C28   C     C_R   0.685628 0.496342 0.686521 -0.209166
C29   C     C_R   0.744214 0.324888 0.707488 -0.031536
C30   C     C_R   0.691092 0.255408 0.620185 -0.216113
C31   C     C_R   0.620994 0.254951 0.563718 -0.128917
C32   C     C_R   0.620633 0.499415 0.620772 0.819430
C33   C     C_R   0.607502 0.326565 0.594105 0.014735
C34   C     C_R   0.405098 0.391421 0.660633 -0.148780
C35   C     C_R   0.410633 0.407274 0.738917 -0.137516
C36   C     C_R   0.339379 0.353678 0.737963 -0.135969
C37   C     C_R   0.264177 0.281368 0.658945 -0.122368
C38   C     C_3   0.311741 0.498282 0.311134 -0.045429
C39   C     C_R   0.258973 0.260714 0.578457 0.087823
C40   C     C_R   0.327445 0.320287 0.578678 0.080090
C41   C     C_R   0.186922 0.182599 0.498108 -0.183854
C42   C     C_R   0.179644 0.165736 0.417845 0.070583
C43   C     C_R   0.240647 0.232977 0.416812 0.049263
C44   C     C_3   0.322402 0.583025 0.305610 -0.184508
C45   C     C_R   0.315739 0.308357 0.497455 -0.161784
C46   C     C_R   0.112014 0.083681 0.338201 -0.139263
C47   C     C_R   0.099700 0.073045 0.258747 -0.240837
C48   C     C_R   0.153698 0.143813 0.256250 0.057626
C49   C     C_R   0.611114 0.793931 0.499380 -0.049436
C50   C     C_R   0.223814 0.223413 0.334975 -0.122110
C51   C     C_R   0.007006 0.621976 0.124650 0.854908
C52   C     C_R   0.124471 0.499697 0.124165 0.848142
C53   C     C_R   0.003752 0.377831 0.886076 0.857634
C54   C     C_R   0.882530 0.495222 0.879163 0.838483
C55   C     C_R   0.998933 0.878127 0.379950 0.848003
C56   C     C_3   0.229592 0.555957 0.288581 -0.129244
C57   C     C_R   0.880164 0.877689 0.498599 0.847903
C58   C     C_R   0.999999 0.121504 0.619349 0.856754
C59   C     C_R   0.119886 0.118076 0.498566 0.868674
C60   C     C_R   0.613179 0.869222 0.491315 0.031275
C61   C     C_R   0.165844 0.763302 0.289232 -0.180882
C62   C     C_R   0.243964 0.837926 0.363969 -0.159689
C63   C     C_R   0.243386 0.910639 0.417576 0.049951
C64   C     C_R   0.163820 0.905582 0.399446 -0.182634
C65   C     C_R   0.082941 0.827006 0.327123 0.066841
C66   C     C_R   0.085227 0.759854 0.267427 0.076621
C67   C     C_R   0.000207 0.814618 0.311686 -0.175310
C68   C     C_3   0.191449 0.499116 0.190478 -0.050312
C69   C     C_R   0.921258 0.747173 0.227680 0.014348
C70   C     C_R   0.929010 0.693284 0.162663 0.065960
C71   C     C_R   0.689062 0.933549 0.506847 -0.250426
C72   C     C_R   0.007492 0.692849 0.186307 -0.171784
C73   C     C_R   0.834887 0.731207 0.203613 -0.006875
C74   C     C_R   0.767523 0.684654 0.114413 -0.005659
C75   C     C_R   0.780581 0.639732 0.050869 -0.250882
C76   C     C_R   0.857836 0.639533 0.074773 -0.139598
C77   C     C_R   0.938385 0.363951 0.720938 -0.130162
C78   C     C_R   0.924643 0.372193 0.648641 -0.157906
C79   C     C_R   0.950880 0.332361 0.596614 -0.172633
C80   C     C_3   0.282746 0.525750 0.206966 -0.038054
C81   C     C_R   0.985176 0.278738 0.613027 0.043202
C82   C     C_R   0.758114 0.919795 0.520481 -0.130331
C83   C     C_R   0.984451 0.256074 0.677345 0.020678
C84   C     C_R   0.971070 0.308374 0.737637 0.060200
C85   C     C_R   0.995959 0.184842 0.685002 -0.221727
C86   C     C_R   0.997693 0.170612 0.754003 0.081137
C87   C     C_R   0.005713 0.237666 0.824047 0.074423
C88   C     C_R   0.993205 0.306509 0.815028 -0.180767
C89   C     C_R   0.991437 0.091321 0.755359 -0.143090
C90   C     C_R   0.004991 0.085367 0.829176 -0.135406
C91   C     C_R   0.023839 0.157201 0.902565 -0.123652
C92   C     C_3   0.273033 0.441944 0.213142 -0.028771
C93   C     C_R   0.750878 0.836282 0.509307 0.082715
C94   C     C_R   0.023672 0.232645 0.900243 -0.154834
C95   C     C_2   0.925741 0.735299 0.465126 0.461665
C96   C     C_2   0.977963 0.652309 0.567611 0.400725
C97   C     C_1   0.767814 0.291328 0.765139 0.200025
C98   C     C_2   0.515796 0.304414 0.557247 0.497756
C99   C     C_2   0.136291 0.133230 0.170871 0.371341
C100  C     C_1   0.317370 0.555724 0.158683 0.202394
C101  C     C_1   0.324578 0.990919 0.491229 0.191788
C102  C     C_1   0.806311 0.738923 0.263868 0.351619
C103  C     C_2   0.680893 0.677718 0.084346 0.389562
H1    H     H_    0.210044 0.602733 0.317797 0.148473
H2    H     H_    0.381714 0.651464 0.351039 0.197037
H3    H     H_    0.692967 0.193369 0.599776 0.146178
H4    H     H_    0.462929 0.436002 0.666363 0.150545
H5    H     H_    0.469959 0.462419 0.800453 0.136428
H6    H     H_    0.342556 0.367608 0.798648 0.146899
H7    H     H_    0.210300 0.243137 0.662357 0.155008
H8    H     H_    0.067901 0.026705 0.336090 0.153601
H9    H     H_    0.046531 0.009952 0.198908 0.133850
H10   H     H_    0.263524 0.277644 0.330939 0.180735
H11   H     H_    0.729217 0.601124 0.982290 0.143650
H12   H     H_    0.695729 0.996069 0.509772 0.137611
H13   H     H_    0.169875 0.709697 0.248196 0.153320
H14   H     H_    0.305054 0.840103 0.378261 0.185490
H15   H     H_    0.166736 0.964980 0.440839 0.158350
H16   H     H_    0.861768 0.598500 0.022800 0.146686
H17   H     H_    0.036203 0.153433 0.960589 0.152622
H18   H     H_    0.922666 0.401052 0.763343 0.134869
H19   H     H_    0.899250 0.414617 0.636526 0.148119
H20   H     H_    0.949105 0.347784 0.546370 0.147149
H21   H     H_    0.974242 0.032249 0.699401 0.158675
H22   H     H_    0.001368 0.024999 0.829537 0.141166
H23   H     H_    0.817343 0.976371 0.539538 0.161284
H24   H     H_    0.036501 0.285867 0.958160 0.139789
H25   H     H_    0.121759 0.345240 0.149469 0.160843
H26   H     H_    0.196180 0.448893 0.333183 0.147079
H27   H     H_    0.864394 0.594196 0.611452 0.140944
H28   H     H_    0.992871 0.787932 0.496837 0.137472
H29   H     H_    0.979290 0.601121 0.584155 0.065140
H30   H     H_    0.500914 0.349152 0.593479 -0.001542
H31   H     H_    0.082140 0.070507 0.110917 0.053105
H32   H     H_    0.627185 0.628719 0.017056 0.060749
H33   H     H_    0.553549 0.955936 0.487747 0.066272
H34   H     H_    0.739445 0.609576 0.586779 0.142508
H35   H     H_    0.570838 0.192814 0.501693 0.182295
H36   H     H_    0.734243 0.672121 0.720540 0.156099
H37   H     H_    0.848104 0.809546 0.857947 0.137165
H38   H     H_    0.944411 0.804563 0.981738 0.135677
H39   H     H_    0.930015 0.662914 0.965420 0.152685
N1    N     N_1   0.781563 0.259668 0.808055 -0.158423
N2    N     N_1   0.344632 0.579311 0.120627 -0.172445
N3    N     N_1   0.389783 0.055492 0.550324 -0.175435
N4    N     N_1   0.778998 0.741405 0.308436 -0.139573
N5    N     N_1   0.313927 0.329587 0.136604 -0.155577
N6    N     N_1   0.080773 0.264971 0.549201 -0.203357
N7    N     N_1   0.500371 0.730911 0.540906 -0.134685
O1    O     O_R   0.592010 0.539900 0.448660 -0.597764
O2    O     O_R   0.948620 0.908400 0.356980 -0.632109
O3    O     O_R   0.960510 0.908410 0.552140 -0.663363
O4    O     O_R   0.591210 0.643320 0.551330 -0.635511
O5    O     O_R   0.856270 0.908390 0.447890 -0.596617
O6    O     O_R   0.051380 0.091620 0.643040 -0.621419
O7    O     O_R   0.947140 0.091600 0.538800 -0.620377
O8    O     O_R   0.143730 0.091640 0.552130 -0.632709
O9    O     O_R   0.039490 0.091610 0.447890 -0.603313
O10   O     O_R   0.408080 0.448290 0.356360 -0.620585
O11   O     O_R   0.407280 0.551710 0.459030 -0.607332
O12   O     O_R   0.054870 0.643310 0.094700 -0.631786
O13   O     O_R   0.408790 0.356680 0.448670 -0.591705
O14   O     O_R   0.407990 0.460100 0.551340 -0.626265
O15   O     O_R   0.592720 0.448290 0.540970 -0.614221
O16   O     O_R   0.591920 0.551710 0.643640 -0.632666
O17   O     O_R   0.951440 0.539900 0.094740 -0.601850
O18   O     O_2   0.884336 0.681060 0.386998 -0.585886
O19   O     O_2   0.037770 0.694636 0.562005 -0.575238
O20   O     O_2   0.456055 0.234717 0.488243 -0.568118
O21   O     O_2   0.181761 0.194151 0.166231 -0.585160
O22   O     O_2   0.669015 0.728040 0.132776 -0.555547
O23   O     O_R   0.044440 0.448270 0.096110 -0.625079
O24   O     O_2   0.465971 0.829926 0.442701 -0.603884
O25   O     O_R   0.147870 0.551680 0.096080 -0.618655
O26   O     O_R   0.952810 0.356650 0.912880 -0.619287
O27   O     O_R   0.056240 0.460060 0.912840 -0.608343
O28   O     O_R   0.859800 0.448280 0.911500 -0.615367
O29   O     O_R   0.963240 0.551690 0.911470 -0.625310
O30   O     O_R   0.052860 0.908430 0.461230 -0.629915
Zn1   Zn    Zn3+2 0.500540 0.430950 0.431450 1.026762
Zn2   Zn    Zn3+2 0.499460 0.569050 0.568550 0.971658
Zn3   Zn    Zn3+2 0.934770 0.430930 0.003810 0.986305
Zn4   Zn    Zn3+2 0.072900 0.569020 0.003770 0.978915
Zn5   Zn    Zn3+2 0.069600 0.000030 0.569620 0.959211
Zn6   Zn    Zn3+2 0.930400 0.000000 0.430410 0.999927

loop_
_geom_bond_atom_site_label_1
_geom_bond_atom_site_label_2
_ccdc_geom_bond_type
C68   C80   S    
O27   Zn4   S    
C103  O22   D    
C87   C88   A    
C87   C94   A    
C3    N5    T    
O14   Zn2   S    
C59   O8    A    
C41   C42   A    
C35   C36   A    
C1    C11   S    
O10   Zn1   S    
C63   C101  S    
C52   O23   A    
C64   H15   S    
C39   C41   A    
C99   O21   D    
C77   C78   A    
C98   H30   S    
C101  N3    T    
C29   C30   A    
C49   C60   A    
C83   C84   A    
C34   C40   A    
C34   H4    S    
C36   C37   A    
C19   C21   A    
C21   H39   S    
C18   C19   A    
C10   C15   A    
C85   C86   A    
C30   C31   A    
C59   O9    A    
C27   C38   S    
C24   C54   S    
C47   H9    S    
C4    N6    T    
C57   O3    A    
C38   C92   S    
C5    N7    T    
C7    C9    A    
C34   C35   A    
C73   C74   A    
C103  H32   S    
C82   H23   S    
C62   H14   S    
C6    H33   S    
C35   H5    S    
C98   O20   D    
C61   C66   A    
C66   C72   A    
C4    C81   S    
C33   C98   S    
C65   C67   A    
O17   Zn3   S    
C96   O19   D    
C12   C95   S    
C69   C73   A    
C16   C68   S    
O8    Zn5   S    
O3    Zn5   S    
C9    C10   A    
O15   Zn1   S    
O13   Zn1   S    
C20   C45   S    
C52   C68   S    
C96   H29   S    
C71   C82   A    
O9    Zn6   S    
C16   C27   S    
C48   C50   A    
C19   H38   S    
C82   C93   A    
C13   C14   A    
C80   C100  S    
C95   H28   S    
C5    C49   S    
C61   C62   A    
C8    C38   S    
C91   H17   S    
C2    C11   A    
C81   C83   A    
C25   C29   A    
C40   C45   A    
C7    C93   A    
O5    Zn6   S    
C76   H16   S    
C74   C75   A    
C13   C96   S    
C6    C60   S    
C44   C80   S    
C24   C25   A    
C56   H1    S    
C100  N2    T    
C39   C40   A    
C79   C81   A    
C86   C87   A    
C77   C84   A    
C25   C26   A    
O7    Zn6   S    
C20   O14   A    
C79   H20   S    
C54   O29   A    
C99   H31   S    
C3    C92   S    
C67   C69   A    
C80   C92   S    
O29   Zn4   S    
C18   H37   S    
C75   C76   A    
C38   C44   S    
C62   C63   A    
C2    C49   A    
O12   Zn4   S    
C89   H21   S    
C43   C45   A    
C44   C56   S    
C26   C33   A    
C46   H8    S    
C47   C48   A    
C14   C15   A    
C28   C32   S    
C20   O13   A    
C61   H13   S    
C31   C33   A    
C17   C18   A    
C71   H12   S    
C1    O1    A    
C17   H36   S    
C75   H11   S    
C17   C23   A    
C23   C28   A    
C27   C56   S    
C31   H35   S    
C1    O4    A    
C16   H25   S    
C41   C59   S    
C37   H7    S    
C58   O7    A    
O26   Zn3   S    
C73   C102  S    
C83   C85   A    
O4    Zn2   S    
C16   C92   S    
C10   C11   A    
C42   C46   A    
C27   H26   S    
C22   C24   A    
C51   C72   S    
C8    O11   A    
C58   C85   S    
C52   O25   A    
O11   Zn2   S    
C32   O16   A    
C53   O26   A    
C44   H2    S    
O1    Zn1   S    
O30   Zn5   S    
C14   H27   S    
C55   O2    A    
O2    Zn6   S    
C48   C99   S    
C46   C47   A    
O6    Zn5   S    
C55   O30   A    
C2    C93   A    
C84   C88   A    
C86   C89   A    
C95   O18   D    
O25   Zn4   S    
C55   C67   S    
C43   C50   A    
C97   N1    T    
C6    O24   D    
C57   O5    A    
C26   C28   A    
C60   C71   A    
C54   O28   A    
C29   C97   S    
C50   H10   S    
O16   Zn2   S    
C64   C65   A    
C37   C39   A    
C56   C68   S    
C102  N4    T    
C91   C94   A    
C70   C76   A    
C78   C79   A    
C90   C91   A    
C32   O15   A    
C90   H22   S    
C51   O12   A    
C53   C88   S    
C94   H24   S    
C69   C70   A    
C78   H19   S    
C9    C12   A    
C77   H18   S    
C58   O6    A    
C63   C64   A    
O23   Zn3   S    
C12   C13   A    
C65   C66   A    
C42   C43   A    
C36   H6    S    
C22   C23   A    
C51   O17   A    
C70   C72   A    
C89   C90   A    
C21   C22   A    
C8    O10   A    
C7    C57   S    
C30   H3    S    
O28   Zn3   S    
C53   O27   A    
C74   C103  S    
C15   H34   S    
