data_mof_unit_43374.cif
_audit_creation_date              2012-12-10T21:13:54-0500
_audit_creation_method            fapswitch 2.2
_symmetry_space_group_name_H-M    P1
_symmetry_Int_Tables_number       1
_space_group_crystal_system       triclinic
_cell_length_a                    15.460268
_cell_length_b                    16.78651
_cell_length_c                    17.489794
_cell_angle_alpha                 89.888321
_cell_angle_beta                  90.438479
_cell_angle_gamma                 66.635673
_cell_volume                      4166.64500014

loop_
_atom_site_label
_atom_site_type_symbol
_atom_type_description
_atom_site_fract_x
_atom_site_fract_y
_atom_site_fract_z
_atom_type_partial_charge
C1    C     C_R   0.501749 0.499108 0.647200 0.968605
C2    C     C_R   0.501488 0.499341 0.353060 0.994734
C3    C     C_R   0.107406 0.400070 0.515777 -0.133105
C4    C     C_R   0.891823 0.601872 0.491236 -0.118226
C5    C     C_R   0.069884 0.337680 0.521641 -0.131820
C6    C     C_R   0.929081 0.664402 0.484684 -0.126568
C7    C     C_R   0.512483 0.431924 0.147448 -0.248934
C8    C     C_R   0.507294 0.553843 0.855768 -0.224314
C9    C     C_R   0.534177 0.426512 0.225106 0.463337
C10   C     C_R   0.529074 0.547834 0.778422 0.386204
C11   C     C_R   0.492631 0.501837 0.270249 -0.222468
C12   C     C_R   0.493326 0.500187 0.730353 -0.280005
C13   C     C_R   0.433740 0.580807 0.236321 -0.332515
C14   C     C_R   0.443509 0.454128 0.762206 -0.188737
C15   C     C_R   0.413309 0.585846 0.158475 0.428046
C16   C     C_R   0.423360 0.459257 0.839779 0.466573
C17   C     C_R   0.452797 0.510412 0.114587 -0.086017
C18   C     C_R   0.454553 0.510737 0.885954 -0.109031
C19   C     C_1   0.443083 0.513125 0.034092 0.150426
C20   C     C_1   0.443595 0.513038 0.966178 0.156167
C21   C     C_R   0.550489 0.148695 0.556584 0.385660
C22   C     C_R   0.441381 0.853849 0.447604 0.379493
C23   C     C_R   0.676788 0.445909 0.496955 0.990455
C24   C     C_R   0.323127 0.554218 0.502979 0.936720
C25   C     C_R   0.546512 0.235018 0.556951 0.574649
C26   C     C_R   0.444516 0.767401 0.447922 0.545570
C27   C     C_R   0.455163 0.268228 0.442948 -0.015024
C28   C     C_R   0.556445 0.728149 0.549238 0.026288
C29   C     C_R   0.455946 0.183993 0.441118 -0.309616
C30   C     C_R   0.556289 0.812044 0.550277 -0.316955
C31   C     C_R   0.503459 0.123032 0.498174 -0.049921
C32   C     C_R   0.498516 0.876209 0.499551 -0.044418
C33   C     C_1   0.501591 0.035909 0.497991 0.059390
C34   C     C_1   0.500899 0.963148 0.498808 0.066556
C35   C     C_R   0.779431 0.410912 0.492156 -0.205453
C36   C     C_R   0.220359 0.589751 0.508349 -0.221352
C37   C     C_R   0.933277 0.299507 0.523838 0.564118
C38   C     C_R   0.065992 0.702119 0.479338 0.560227
C39   C     C_R   0.834809 0.327831 0.519715 -0.376314
C40   C     C_R   0.164673 0.673293 0.481933 -0.362537
C41   C     C_R   0.822624 0.464717 0.465443 0.354390
C42   C     C_R   0.177105 0.536878 0.536657 0.348965
C43   C     C_R   0.914993 0.447405 0.490617 -0.099166
C44   C     C_R   0.084385 0.554430 0.513109 -0.089006
C45   C     C_R   0.972993 0.361089 0.512819 0.008665
C46   C     C_R   0.026185 0.640767 0.491372 0.004544
C47   C     C_R   0.951022 0.512895 0.495466 0.121643
C48   C     C_R   0.048298 0.488953 0.509577 0.135746
H1    H     H_    0.117308 0.270892 0.532165 0.192977
H2    H     H_    0.881394 0.731364 0.475404 0.194303
H3    H     H_    0.417816 0.314396 0.398670 0.184864
H4    H     H_    0.604037 0.678823 0.586574 0.243289
H5    H     H_    0.418868 0.166809 0.395508 0.200917
H6    H     H_    0.602457 0.826260 0.589839 0.203173
H7    H     H_    0.197599 0.715655 0.463821 0.171888
H8    H     H_    0.801811 0.285505 0.538158 0.166938
H9    H     H_    0.183093 0.377886 0.517362 0.187655
H10   H     H_    0.816275 0.623986 0.492312 0.204753
H11   H     H_    0.543773 0.375021 0.111770 0.217749
H12   H     H_    0.533525 0.590705 0.893378 0.220934
H13   H     H_    0.401820 0.638134 0.271059 0.233614
H14   H     H_    0.418512 0.415301 0.726102 0.271615
N1    N     N_R   0.499980 0.292780 0.499970 -0.147071
N2    N     N_R   0.500020 0.707220 0.500030 -0.151499
O1    O     O_R   0.500000 0.433430 0.610870 -0.557702
O2    O     O_R   0.500000 0.566570 0.389130 -0.555919
O3    O     O_R   0.500010 0.566520 0.610900 -0.565968
O4    O     O_R   0.499990 0.433480 0.389100 -0.596321
O5    O     O_R   0.632240 0.395450 0.499980 -0.620882
O6    O     O_R   0.367760 0.604550 0.500020 -0.614898
O7    O     O_R   0.632250 0.528530 0.500000 -0.558216
O8    O     O_R   0.367750 0.471470 0.500000 -0.590650
Zn1   Zn    Zn3+2 0.500000 0.411140 0.499980 1.043652
Zn2   Zn    Zn3+2 0.500000 0.588860 0.500020 1.062974
O9    O     O_3   0.592704 0.093847 0.617547 -0.561406
C49   C     C_3   0.679033 0.028631 0.594012 -0.282497
H15   H     H_    0.718546 0.052820 0.553458 0.119944
H16   H     H_    0.667688 0.973114 0.568455 0.179171
H17   H     H_    0.724571 0.003558 0.645270 0.206659
O10   O     O_3   0.391148 0.911832 0.390887 -0.568072
C50   C     C_3   0.310142 0.977220 0.422558 -0.297876
H18   H     H_    0.326370 0.032061 0.443588 0.184860
H19   H     H_    0.277783 0.953111 0.469151 0.125888
H20   H     H_    0.256183 0.003333 0.376672 0.203313
O11   O     O_3   0.581936 0.264374 0.618520 -0.557999
C51   C     C_3   0.681245 0.225491 0.619580 -0.215349
H21   H     H_    0.712948 0.205187 0.562081 0.087359
H22   H     H_    0.705914 0.169175 0.659308 0.207286
H23   H     H_    0.707638 0.273279 0.642586 0.175828
O12   O     O_3   0.403007 0.738475 0.389808 -0.575129
C52   C     C_3   0.304961 0.787005 0.385445 -0.218491
H24   H     H_    0.288418 0.841040 0.343850 0.238157
H25   H     H_    0.272670 0.811279 0.442000 0.098461
H26   H     H_    0.271926 0.744403 0.362012 0.160358
S1    S     S_3+6 0.221502 0.479221 0.623745 0.035160
O13   O     O_2   0.300885 0.393295 0.608535 -0.303328
O14   O     O_2   0.257235 0.532996 0.673142 -0.301964
O15   O     O_3   0.135372 0.462699 0.670608 -0.518552
H27   H     H_    0.165012 0.433587 0.719023 0.413815
S2    S     S_3+6 0.774822 0.529901 0.382033 0.046215
O16   O     O_2   0.851487 0.543660 0.338791 -0.257249
O17   O     O_2   0.731060 0.483999 0.330927 -0.246936
O18   O     O_3   0.691336 0.626940 0.405504 -0.578632
H28   H     H_    0.659745 0.652615 0.356602 0.398415
O19   O     O_3   0.989847 0.216559 0.549365 -0.602636
C53   C     C_3   0.975423 0.153635 0.503569 -0.301935
H29   H     H_    0.973502 0.168957 0.441355 0.172843
H30   H     H_    0.910255 0.145528 0.520504 0.158468
H31   H     H_    0.035306 0.090333 0.513161 0.189139
O20   O     O_3   0.008982 0.785292 0.454566 -0.601219
C54   C     C_3   0.025996 0.847972 0.498777 -0.294881
H32   H     H_    0.090013 0.856180 0.478849 0.156260
H33   H     H_    0.031521 0.832375 0.561071 0.172316
H34   H     H_    0.965656 0.911316 0.490851 0.189968
S3    S     S_3+6 0.614688 0.325229 0.261570 0.062839
O21   O     O_2   0.559874 0.275033 0.290565 -0.315442
O22   O     O_2   0.678937 0.274308 0.199044 -0.247225
O23   O     O_3   0.680488 0.339085 0.333168 -0.520924
H35   H     H_    0.712279 0.280969 0.356943 0.372041
S4    S     S_3+6 0.604740 0.596984 0.746842 0.044518
O24   O     O_2   0.544929 0.687609 0.720637 -0.266210
O25   O     O_2   0.666978 0.601901 0.811557 -0.244867
O26   O     O_3   0.673225 0.540893 0.674779 -0.574213
H36   H     H_    0.706255 0.481141 0.694971 0.340982
S5    S     S_3+6 0.339535 0.686570 0.117272 0.081538
O27   O     O_2   0.396802 0.716144 0.064006 -0.214515
O28   O     O_2   0.261667 0.675852 0.072229 -0.255662
O29   O     O_3   0.292695 0.762408 0.184851 -0.506631
H37   H     H_    0.244644 0.746468 0.210143 0.347461
S6    S     S_3+6 0.359395 0.401311 0.877471 0.072860
O30   O     O_2   0.418371 0.338652 0.937466 -0.272889
O31   O     O_2   0.270734 0.464357 0.913410 -0.244261
O32   O     O_3   0.331392 0.346220 0.808074 -0.519485
H38   H     H_    0.292215 0.319625 0.833455 0.396508

loop_
_geom_bond_atom_site_label_1
_geom_bond_atom_site_label_2
_ccdc_geom_bond_type
C38   C40   A    
C27   C29   A    
C28   H4    S    
C23   O5    A    
S6    O31   D    
S1    O13   D    
C49   H17   S    
O29   H37   S    
C50   H18   S    
S1    O15   S    
C24   O6    A    
O26   H36   S    
O11   C51   S    
C21   C31   A    
C24   C36   S    
C22   C32   A    
C49   H16   S    
C2    O4    A    
C51   H22   S    
C53   H29   S    
S3    O21   D    
O2    Zn2   S    
C3    C48   A    
O1    Zn1   S    
C15   C17   A    
C25   N1    A    
C26   N2    A    
O20   C54   S    
C1    O3    A    
O23   H35   S    
C36   C42   A    
C47   C48   A    
S4    O25   D    
C7    C17   A    
O6    Zn2   S    
S5    O29   S    
C1    O1    A    
C31   C33   S    
O5    Zn1   S    
C38   O20   S    
C16   S6    S    
S4    O26   S    
C40   H7    S    
C41   C43   A    
C5    H1    S    
C1    C12   S    
C42   C44   A    
C2    C11   S    
C7    H11   S    
C50   H19   S    
C44   C46   A    
C42   S1    S    
C9    S3    S    
C23   O7    A    
C36   C40   A    
C49   H15   S    
C4    C6    A    
C52   H24   S    
C51   H21   S    
O8    Zn1   S    
N1    Zn1   S    
S3    O22   D    
O4    Zn1   S    
C5    C45   A    
S2    O18   S    
C8    C18   A    
C29   H5    S    
C32   C34   S    
C35   C39   A    
O9    C49   S    
C37   O19   S    
C52   H25   S    
C30   H6    S    
C39   H8    S    
C29   C31   A    
S3    O23   S    
C25   O11   S    
C33   C34   T    
C41   S2    S    
C54   H33   S    
O3    Zn2   S    
C6    H2    S    
C43   C45   A    
C10   C12   A    
C3    H9    S    
C16   C18   A    
C12   C14   A    
C23   C35   S    
C9    C11   A    
C22   C26   A    
O32   H38   S    
C14   C16   A    
S6    O32   S    
C37   C45   A    
C28   N2    A    
C50   H20   S    
S4    O24   D    
C24   O8    A    
S2    O17   D    
C7    C9    A    
C21   C25   A    
C6    C46   A    
C54   H32   S    
O10   C50   S    
C3    C5    A    
C51   H23   S    
O7    Zn2   S    
S1    O14   D    
C2    O2    A    
C26   O12   S    
O19   C53   S    
C21   O9    S    
C19   C20   T    
C13   C15   A    
S6    O30   D    
C22   O10   S    
C37   C39   A    
C8    H12   S    
C52   H26   S    
C30   C32   A    
C27   H3    S    
C11   C13   A    
O12   C52   S    
S5    O27   D    
C53   H30   S    
C28   C30   A    
S2    O16   D    
C17   C19   S    
C54   H34   S    
C18   C20   S    
C35   C41   A    
C38   C46   A    
C10   S4    S    
C13   H13   S    
C8    C10   A    
O15   H27   S    
C15   S5    S    
C4    H10   S    
O18   H28   S    
S5    O28   D    
N2    Zn2   S    
C27   N1    A    
C43   C47   A    
C4    C47   A    
C44   C48   A    
C53   H31   S    
C14   H14   S    
