data_mof_unit_13953.cif
_audit_creation_date              2012-12-10T18:56:31-0500
_audit_creation_method            fapswitch 2.2
_symmetry_space_group_name_H-M    P1
_symmetry_Int_Tables_number       1
_space_group_crystal_system       triclinic
_cell_length_a                    10.802886
_cell_length_b                    9.80694
_cell_length_c                    19.274638
_cell_angle_alpha                 90.108152
_cell_angle_beta                  89.94125
_cell_angle_gamma                 90.110768
_cell_volume                      2042.00936554

loop_
_atom_site_label
_atom_site_type_symbol
_atom_type_description
_atom_site_fract_x
_atom_site_fract_y
_atom_site_fract_z
_atom_type_partial_charge
C1    C     C_R   0.873882 0.500516 0.501028 -0.418479
C2    C     C_R   0.740675 0.500185 0.500318 1.014738
C3    C     C_R   0.498948 0.499833 0.365675 0.946849
C4    C     C_R   0.499054 0.500133 0.634309 0.953548
C5    C     C_R   0.062743 0.381466 0.480955 0.309299
C6    C     C_R   0.940359 0.625743 0.503157 0.297179
C7    C     C_R   0.939484 0.375149 0.499480 0.301279
C8    C     C_R   0.063865 0.618365 0.521184 0.302839
C9    C     C_R   0.453204 0.383415 0.744287 -0.212524
C10   C     C_R   0.455269 0.617021 0.255564 -0.241451
C11   C     C_R   0.516651 0.379328 0.253950 -0.263221
C12   C     C_R   0.128074 0.499865 0.500687 -0.417751
C13   C     C_R   0.520860 0.619316 0.746141 -0.263619
C14   C     C_R   0.443475 0.382925 0.816115 0.408111
C15   C     C_R   0.444638 0.617114 0.183774 0.362261
C16   C     C_R   0.508129 0.376442 0.182100 0.364999
C17   C     C_R   0.512727 0.621968 0.818019 0.375087
C18   C     C_R   0.474351 0.502736 0.853255 -0.199738
C19   C     C_R   0.472518 0.496354 0.146786 -0.179610
C20   C     C_R   0.520599 0.072187 0.559859 0.009493
C21   C     C_R   0.478740 0.927796 0.440206 -0.019165
C22   C     C_R   0.479076 0.071694 0.440166 0.032770
C23   C     C_R   0.359687 0.502228 0.963973 -0.022532
C24   C     C_R   0.520819 0.928301 0.559841 0.035129
C25   C     C_R   0.492122 0.500602 0.709431 -0.143619
C26   C     C_R   0.491441 0.499109 0.290542 -0.119709
C27   C     C_R   0.584282 0.501416 0.036072 -0.029483
C28   C     C_R   0.359224 0.495605 0.035795 -0.024498
C29   C     C_R   0.584769 0.498579 0.964349 -0.022833
C30   C     C_R   0.471606 0.497568 0.071653 0.125075
C31   C     C_R   0.472555 0.501420 0.928416 0.130482
C32   C     C_R   0.260042 0.499903 0.500106 1.056168
H1    H     H_    0.537110 0.126510 0.607794 0.142190
H2    H     H_    0.671275 0.504000 0.063971 0.169880
H3    H     H_    0.272007 0.491383 0.063482 0.174690
H4    H     H_    0.672144 0.496367 0.936739 0.171646
H5    H     H_    0.258750 0.247191 0.341732 0.378451
H6    H     H_    0.751950 0.854653 0.396620 0.383313
H7    H     H_    0.774121 0.152404 0.620518 0.379969
H8    H     H_    0.267463 0.746551 0.658139 0.382995
H9    H     H_    0.334383 0.030699 0.823202 0.426670
H10   H     H_    0.296349 0.877897 0.221429 0.361223
H11   H     H_    0.652248 0.106210 0.210978 0.363228
H12   H     H_    0.461340 0.873465 0.392375 0.139409
H13   H     H_    0.655416 0.894478 0.787655 0.368546
H14   H     H_    0.461921 0.125648 0.392310 0.134969
H15   H     H_    0.537945 0.874352 0.607699 0.132480
H16   H     H_    0.429405 0.292543 0.715221 0.214012
H17   H     H_    0.434601 0.708850 0.284498 0.186517
H18   H     H_    0.543817 0.288270 0.281616 0.187840
H19   H     H_    0.550428 0.709689 0.718539 0.186463
H20   H     H_    0.272806 0.506061 0.936069 0.176864
N1    N     N_R   0.500000 0.857200 0.500000 -0.083629
N2    N     N_R   0.500000 0.142800 0.500000 -0.081574
O1    O     O_R   0.316770 0.614620 0.500000 -0.571845
O2    O     O_2   0.022046 0.183679 0.385927 -0.211008
O3    O     O_3   0.222330 0.324667 0.367663 -0.575932
O4    O     O_2   0.807989 0.851419 0.531848 -0.250634
O5    O     O_2   0.986359 0.880048 0.454677 -0.147645
O6    O     O_3   0.791440 0.764841 0.404238 -0.542136
O7    O     O_2   0.806342 0.146652 0.475874 -0.234622
O8    O     O_2   0.985782 0.125190 0.552661 -0.155479
O9    O     O_3   0.791236 0.244224 0.601414 -0.556789
O10   O     O_2   0.197215 0.849830 0.536569 -0.216003
O11   O     O_2   0.026222 0.813730 0.618073 -0.205043
O12   O     O_R   0.683230 0.385380 0.500000 -0.555438
O13   O     O_3   0.224837 0.670133 0.634367 -0.568706
O14   O     O_2   0.488590 0.189220 0.911037 -0.172274
O15   O     O_2   0.271964 0.252512 0.891871 -0.280430
O16   O     O_3   0.379916 0.103967 0.798674 -0.506879
O17   O     O_2   0.500078 0.813709 0.092377 -0.142674
O18   O     O_2   0.281981 0.750408 0.102728 -0.278597
O19   O     O_3   0.378798 0.896088 0.200851 -0.464440
O20   O     O_2   0.432545 0.182893 0.093218 -0.148428
O21   O     O_2   0.653572 0.236099 0.093764 -0.272185
O22   O     O_3   0.565245 0.094673 0.195839 -0.463795
O23   O     O_R   0.683230 0.614620 0.500000 -0.560574
O24   O     O_2   0.445933 0.813134 0.910510 -0.183133
O25   O     O_2   0.666343 0.759684 0.902857 -0.267427
O26   O     O_3   0.569324 0.904242 0.804673 -0.495496
O27   O     O_R   0.316770 0.385380 0.500000 -0.566461
O28   O     O_R   0.500030 0.614710 0.398180 -0.638151
O29   O     O_R   0.499970 0.385290 0.601820 -0.634273
O30   O     O_R   0.499970 0.614710 0.601820 -0.635393
O31   O     O_R   0.500030 0.385290 0.398180 -0.635364
O32   O     O_2   0.193208 0.148536 0.467128 -0.216803
S1    S     S_3+6 0.124705 0.252968 0.425123 0.109423
S2    S     S_3+6 0.881831 0.786604 0.474496 0.137477
S3    S     S_3+6 0.880950 0.216481 0.531382 0.135484
S4    S     S_3+6 0.127655 0.744675 0.577869 0.118657
S5    S     S_3+6 0.395025 0.230079 0.857328 0.094936
S6    S     S_3+6 0.400370 0.770999 0.142271 0.109968
S7    S     S_3+6 0.540430 0.220793 0.138521 0.111082
S8    S     S_3+6 0.549278 0.776456 0.861718 0.083535
Zn1   Zn    Zn3+2 0.500000 0.653120 0.500000 1.050084
Zn2   Zn    Zn3+2 0.500000 0.346880 0.500000 1.060180

loop_
_geom_bond_atom_site_label_1
_geom_bond_atom_site_label_2
_ccdc_geom_bond_type
N1    Zn1   S    
C14   C18   A    
O16   S5    S    
O10   S4    D    
C4    C25   S    
O6    S2    S    
C9    C25   A    
C22   N2    A    
C15   C19   A    
C32   O27   A    
C29   H4    S    
C16   S7    S    
C10   C15   A    
O18   S6    D    
O31   Zn2   S    
C3    O31   A    
C7    S3    S    
O8    S3    D    
O14   S5    D    
C6    S2    S    
C27   C29   A    
C1    C2    S    
O5    S2    D    
C15   S6    S    
C13   H19   S    
O17   S6    D    
C20   C24   A    
C28   H3    S    
H8    O13   S    
C32   O1    A    
N2    Zn2   S    
C10   C26   A    
C21   C22   A    
C12   C32   S    
C27   C30   A    
O20   S7    D    
C13   C25   A    
O7    S3    D    
C27   H2    S    
O11   S4    D    
C1    C6    A    
O25   S8    D    
O1    Zn1   S    
C5    C7    A    
O27   Zn2   S    
O32   S1    D    
O2    S1    D    
C6    C8    A    
C11   C26   A    
C24   N1    A    
O23   Zn1   S    
O13   S4    S    
O3    S1    S    
O30   Zn1   S    
C23   C31   A    
C9    C14   A    
O22   S7    S    
C21   H12   S    
C11   C16   A    
C4    O30   A    
C8    C12   A    
O9    S3    S    
C3    O28   A    
C17   C18   A    
C23   C28   A    
C5    C12   A    
H6    O6    S    
C20   H1    S    
C20   N2    A    
C22   H14   S    
C8    S4    S    
O26   S8    S    
O21   S7    D    
O12   Zn2   S    
H11   O22   S    
H10   O19   S    
O28   Zn1   S    
C1    C7    A    
C24   H15   S    
C3    C26   S    
O19   S6    S    
C2    O12   A    
O4    S2    D    
C17   S8    S    
H7    O9    S    
C13   C17   A    
C28   C30   A    
C29   C31   A    
C11   H18   S    
C21   N1    A    
C19   C30   S    
C23   H20   S    
C4    O29   A    
O24   S8    D    
C16   C19   A    
O29   Zn2   S    
H13   O26   S    
C14   S5    S    
C5    S1    S    
C9    H16   S    
C2    O23   A    
C18   C31   S    
O15   S5    D    
C10   H17   S    
H5    O3    S    
H9    O16   S    
