data_mof_unit_30873.cif
_audit_creation_date              2013-03-05T15:46:30-0500
_audit_creation_method            fapswitch 2.2
_symmetry_space_group_name_H-M    P1
_symmetry_Int_Tables_number       1
_space_group_crystal_system       triclinic
_cell_length_a                    6.932873
_cell_length_b                    16.696562
_cell_length_c                    17.127903
_cell_angle_alpha                 100.308116
_cell_angle_beta                  92.173326
_cell_angle_gamma                 89.279644
_cell_volume                      1949.20552942

loop_
_atom_site_label
_atom_site_type_symbol
_atom_site_description
_atom_site_fract_x
_atom_site_fract_y
_atom_site_fract_z
_atom_type_partial_charge
O1    O     O_R   0.506180 0.438940 0.579430 -0.607177
O2    O     O_R   0.170520 0.406230 0.413590 -0.600245
O3    O     O_R   0.005180 0.561060 0.420570 -0.595313
C1    C     C_R   0.338424 0.382561 0.385796 0.931050
O4    O     O_R   0.176140 0.429310 0.578370 -0.587843
O5    O     O_R   0.010830 0.584300 0.586530 -0.590531
C2    C     C_R   0.349278 0.413096 0.604577 0.948992
O6    O     O_R   0.500520 0.415700 0.413470 -0.583995
O7    O     O_3   0.340830 0.550820 0.502480 -0.266580
V1    V     V_3+5 0.064040 0.490570 0.499540 1.174198
O8    O     O_R   0.681400 0.593770 0.586410 -0.588897
C3    C     C_R   0.852070 0.616249 0.615198 0.940136
O9    O     O_R   0.675790 0.570690 0.421630 -0.598813
C4    C     C_R   0.840275 0.587019 0.395109 0.956219
V2    V     V_3+5 0.564650 0.509430 0.500460 1.182433
O10   O     O_3   0.837730 0.449180 0.497520 -0.274224
C5    C     C_R   0.933741 0.858435 0.165007 -0.144377
C6    C     C_R   0.832732 0.641180 0.334602 -0.123155
C7    C     C_R   0.641009 0.702843 0.237689 -0.134734
C8    C     C_R   0.659099 0.648099 0.290521 -0.023574
C9    C     C_R   0.989769 0.690053 0.323700 -0.219241
C10   C     C_R   0.971391 0.746300 0.271256 0.222693
C11   C     C_R   0.795319 0.753026 0.228076 0.210951
C12   C     C_R   0.776866 0.809372 0.175721 -0.229244
C13   C     C_R   0.107433 0.851428 0.209022 -0.124416
C14   C     C_R   0.125690 0.796496 0.261667 -0.175732
H1    H     H_    0.642721 0.813434 0.141964 0.146422
H2    H     H_    0.230973 0.888454 0.202496 0.134976
H3    H     H_    0.505525 0.706282 0.204743 0.145817
H4    H     H_    0.261219 0.793002 0.294573 0.147906
H5    H     H_    0.535537 0.611112 0.297104 0.135244
H6    H     H_    0.123914 0.686004 0.357461 0.142683
C15   C     C_R   0.763369 0.908421 0.730583 -0.252844
C16   C     C_R   0.691052 0.922734 0.657330 -0.243530
C17   C     C_R   0.676324 0.859278 0.591959 0.430594
C18   C     C_R   0.734597 0.780697 0.601433 -0.303949
C19   C     C_R   0.806302 0.764275 0.675560 0.070023
C20   C     C_R   0.821646 0.829553 0.741398 0.134192
C21   C     C_R   0.867775 0.684726 0.684077 -0.234520
C22   C     C_R   0.947678 0.671087 0.758374 0.085215
C23   C     C_R   0.960845 0.736222 0.824224 0.071661
C24   C     C_R   0.898469 0.815550 0.815846 -0.251144
C25   C     C_R   0.013306 0.592927 0.768750 -0.373983
C26   C     C_R   0.092918 0.578570 0.841663 0.302799
C27   C     C_R   0.097887 0.642830 0.907202 0.444215
C28   C     C_R   0.032457 0.720073 0.898225 -0.325232
H7    H     H_    0.774725 0.960378 0.778299 0.134662
H8    H     H_    0.648057 0.984092 0.651773 0.166867
H9    H     H_    0.725680 0.732819 0.549863 0.157508
H10   H     H_    0.005312 0.542086 0.719904 0.183932
H11   H     H_    0.036626 0.767109 0.950643 0.167645
C29   C     C_R   0.543634 0.233087 0.399479 -0.176051
C30   C     C_R   0.651653 0.164090 0.407820 -0.080947
C31   C     C_R   0.681183 0.103639 0.342353 -0.067090
C32   C     C_R   0.603377 0.111809 0.268005 -0.210033
C33   C     C_R   0.495504 0.181943 0.256991 0.110737
C34   C     C_R   0.464489 0.243829 0.324516 0.125133
C35   C     C_R   0.415700 0.189970 0.180930 -0.262153
C36   C     C_R   0.302831 0.261266 0.173252 -0.031007
C37   C     C_R   0.261582 0.319838 0.242654 0.056562
C38   C     C_R   0.349584 0.313257 0.317291 -0.246699
C39   C     C_R   0.229307 0.277668 0.098378 0.274606
C40   C     C_R   0.095922 0.340988 0.095325 -0.184990
C41   C     C_R   0.048411 0.394169 0.163358 0.496905
C42   C     C_R   0.135735 0.385908 0.235548 -0.312684
H12   H     H_    0.519703 0.276894 0.452940 0.106371
H13   H     H_    0.710600 0.157025 0.465660 0.125920
H14   H     H_    0.763455 0.049640 0.349283 0.140029
H15   H     H_    0.628538 0.061924 0.219868 0.123318
H16   H     H_    0.037660 0.352450 0.038743 0.242123
H17   H     H_    0.101537 0.432326 0.285419 0.177738
C43   C     C_R   0.393121 0.132320 0.828429 -0.155149
C44   C     C_R   0.377343 0.360741 0.665871 -0.153394
C45   C     C_R   0.580603 0.324378 0.774727 0.348571
C46   C     C_R   0.532961 0.376847 0.721387 -0.199290
C47   C     C_R   0.264218 0.291569 0.665769 -0.193535
C48   C     C_R   0.309651 0.237961 0.719003 0.201443
C49   C     C_R   0.470446 0.253453 0.773320 -0.008868
C50   C     C_R   0.511778 0.199458 0.826859 -0.081427
C51   C     C_R   0.235613 0.117601 0.773729 -0.112238
C52   C     C_R   0.195492 0.169238 0.719182 -0.090601
H18   H     H_    0.629307 0.211400 0.870521 0.202750
H19   H     H_    0.141159 0.066443 0.773994 0.115082
H20   H     H_    0.072103 0.156388 0.678261 0.108975
H21   H     H_    0.620893 0.430322 0.722554 0.160926
H22   H     H_    0.144095 0.278489 0.623158 0.121428
O11   O     O_R   0.265840 0.084300 0.086750 -0.599905
O12   O     O_R   0.589750 0.070740 0.921690 -0.593933
O13   O     O_R   0.755020 0.915730 0.913400 -0.597014
C53   C     C_R   0.417477 0.082863 0.892362 1.027199
O14   O     O_R   0.595830 0.093740 0.086480 -0.572654
O15   O     O_R   0.761150 0.938890 0.079360 -0.602881
C54   C     C_R   0.427240 0.118820 0.113442 1.006522
O16   O     O_R   0.259710 0.061140 0.920790 -0.570501
O17   O     O_3   0.425260 0.949200 0.997610 -0.284603
V3    V     V_3+5 0.702060 0.009430 0.000450 1.205356
O18   O     O_R   0.090530 0.929220 0.078150 -0.602280
C55   C     C_R   0.926090 0.912805 0.104665 0.931518
O19   O     O_R   0.084440 0.906220 0.913360 -0.599320
C56   C     C_R   0.913784 0.883869 0.884683 0.932356
V4    V     V_3+5 0.201450 0.990520 0.999290 1.197259
O20   O     O_3   0.928380 0.050800 0.002390 -0.249458
N1    N     N_R   0.604274 0.874641 0.515938 0.233938
O21   O     O_R   0.553230 0.947807 0.506875 -0.422386
O22   O     O_R   0.589625 0.815755 0.454955 -0.435657
N2    N     N_R   0.166262 0.498672 0.847707 0.269530
O23   O     O_R   0.307037 0.489222 0.897729 -0.272236
O24   O     O_R   0.107841 0.435558 0.796754 -0.361049
Cl1   Cl    Cl    0.889276 0.475684 0.157242 -0.561423
N3    N     N_R   0.306793 0.239650 0.024672 0.221968
O25   O     O_R   0.492950 0.239338 0.017388 -0.414408
O26   O     O_R   0.195586 0.230491 0.960818 -0.368488
N4    N     N_R   0.739492 0.344957 0.830488 0.251413
O27   O     O_R   0.750586 0.417759 0.872865 -0.282485
O28   O     O_R   0.884754 0.295031 0.831752 -0.359540
Cl2   Cl    Cl    0.174181 0.629174 0.003335 -0.515042

loop_
_geom_bond_atom_site_label_1
_geom_bond_atom_site_label_2
_geom_bond_distance
_ccdc_geom_bond_type
C32   C33   1.418620 A    
O12   V3    1.966836 S    
V4    O20   2.130831 S    
V3    O20   1.719075 S    
C6    C9    1.406530 A    
C23   C24   1.418030 A    
C4    C6    1.491525 S    
O2    C1    1.304212 A    
O17   V3    2.172610 S    
C12   H1    1.084198 S    
C1    O6    1.294256 A    
O18   C55   1.293342 A    
O15   C55   1.304834 A    
C2    C44   1.487559 S    
C48   C49   1.420424 A    
C26   C27   1.406915 A    
C13   H2    1.083312 S    
C39   C40   1.402545 A    
C18   C19   1.416877 A    
C35   C54   1.505660 S    
C20   C24   1.419997 A    
C43   C50   1.403462 A    
C17   N1    1.441440 S    
O5    C3    1.292132 A    
C31   H14   1.082834 S    
N2    O23   1.300998 A    
V2    O10   2.130737 S    
O11   C54   1.294761 A    
O15   V3    1.974148 S    
C33   C34   1.427282 A    
C16   C17   1.398606 A    
N3    O25   1.301180 A    
O14   V3    2.002282 S    
O11   V4    2.005605 S    
O8    V2    2.000429 S    
C46   H21   1.084242 S    
C22   C25   1.415465 A    
C7    C8    1.398054 A    
O16   V4    1.995440 S    
C23   C28   1.413124 A    
O1    V2    2.000580 S    
O7    V1    2.172545 S    
C36   C37   1.433148 A    
O9    C4    1.293257 A    
C44   C46   1.406572 A    
C51   H19   1.083567 S    
C53   O16   1.295589 A    
C9    H6    1.084198 S    
C5    C12   1.406752 A    
C45   C46   1.402678 A    
O13   C56   1.291948 A    
C47   C48   1.412427 A    
C21   C22   1.423101 A    
O4    C2    1.307689 A    
C49   C50   1.416058 A    
C13   C14   1.398099 A    
C42   H17   1.077174 S    
C45   N4    1.433846 S    
C28   H11   1.081630 S    
C37   C38   1.417029 A    
C17   C18   1.403161 A    
C7    C11   1.399621 A    
C25   C26   1.404733 A    
C19   C20   1.422959 A    
C24   C56   1.488234 S    
O14   C54   1.309262 A    
C43   C53   1.488484 S    
O19   C56   1.296821 A    
C39   N3    1.428737 S    
C40   H16   1.083394 S    
C48   C52   1.402595 A    
C11   C12   1.412698 A    
C15   C16   1.392568 A    
N1    O22   1.301886 A    
C34   C38   1.419275 A    
C32   H15   1.079543 S    
O3    C4    1.304787 A    
C22   C23   1.420860 A    
O19   V4    2.000537 S    
O12   C53   1.305591 A    
C37   C42   1.417313 A    
C14   H4    1.083573 S    
O6    V2    1.999884 S    
O9    V2    2.013919 S    
C45   C49   1.413255 A    
C15   H7    1.081570 S    
C44   C47   1.403896 A    
C16   H8    1.082832 S    
O2    V1    2.002381 S    
C47   H22   1.084124 S    
C52   H20   1.083683 S    
C29   H12   1.081541 S    
C29   C30   1.391927 A    
N4    O27   1.301032 A    
C5    C55   1.491813 S    
C31   C32   1.392633 A    
C36   C39   1.432504 A    
O1    C2    1.291837 A    
C51   C52   1.398612 A    
O5    V1    1.999465 S    
C50   H18   1.080476 S    
O8    C3    1.297965 A    
C25   H10   1.080333 S    
C30   C31   1.387505 A    
C26   N2    1.441264 S    
C15   C20   1.414158 A    
C5    C13   1.411118 A    
C41   C42   1.384404 A    
O13   V3    1.999422 S    
C35   C36   1.439255 A    
O4    V1    1.966692 S    
C19   C21   1.420355 A    
O3    V1    1.974079 S    
V1    O10   1.719029 S    
C27   Cl2   1.763011 S    
C41   Cl1   1.756421 S    
N2    O24   1.300364 A    
C3    C21   1.490488 S    
C1    C38   1.496801 S    
C33   C35   1.423799 A    
C6    C8    1.411118 A    
O7    V2    1.689718 S    
C30   H13   1.082722 S    
N3    O26   1.301203 A    
C29   C34   1.417142 A    
C40   C41   1.380660 A    
C27   C28   1.394156 A    
C43   C51   1.406183 A    
C10   C14   1.399590 A    
N1    O21   1.301743 A    
C10   C11   1.416858 A    
C9    C10   1.412546 A    
O18   V4    2.014109 S    
C18   H9    1.080486 S    
O17   V4    1.689309 S    
N4    O28   1.301249 A    
C8    H5    1.083265 S    
C7    H3    1.083531 S    
