data_mof_unit_18622.cif
_audit_creation_date              2012-10-26T21:23:32-0400
_audit_creation_method            fapswitch 2.2
_symmetry_space_group_name_H-M    P1
_symmetry_Int_Tables_number       1
_space_group_crystal_system       triclinic
_cell_length_a                    27.728387
_cell_length_b                    10.912594
_cell_length_c                    9.696883
_cell_angle_alpha                 90.337768
_cell_angle_beta                  90.775036
_cell_angle_gamma                 90.250667
_cell_volume                      2933.81800161

loop_
_atom_site_label
_atom_site_type_symbol
_atom_type_description
_atom_site_fract_x
_atom_site_fract_y
_atom_site_fract_z
_atom_type_partial_charge
C1    C     C_R   0.498678 0.265375 0.499602 0.565503
C2    C     C_R   0.975996 0.453195 0.610160 0.005773
C3    C     C_R   0.974472 0.598720 0.417256 0.017064
C4    C     C_R   0.407617 0.502270 0.499310 0.532344
C5    C     C_R   0.949811 0.524694 0.514145 0.019364
C6    C     C_R   0.951990 0.411620 0.730659 -0.029554
C7    C     C_R   0.900758 0.404011 0.728252 0.062401
C8    C     C_R   0.874100 0.454310 0.615646 -0.004918
C9    C     C_R   0.898840 0.522420 0.514954 -0.047704
C10   C     C_R   0.872643 0.586971 0.413078 0.038711
C11   C     C_R   0.822248 0.579605 0.410115 0.439036
C12   C     C_R   0.279741 0.408715 0.421287 -0.050826
C13   C     C_R   0.823258 0.443090 0.601384 0.453825
C14   C     C_R   0.720866 0.433873 0.400064 0.093844
C15   C     C_R   0.670217 0.436843 0.402551 -0.149106
C16   C     C_R   0.503186 0.734591 0.500582 0.523106
C17   C     C_R   0.672394 0.572987 0.602353 0.035007
C18   C     C_R   0.722670 0.572487 0.598111 -0.067020
C19   C     C_R   0.747066 0.503256 0.499517 0.191524
C20   C     C_R   0.025729 0.433851 0.586019 0.011676
C21   C     C_R   0.050927 0.515383 0.499826 0.029157
C22   C     C_R   0.025598 0.603464 0.421165 0.012276
C23   C     C_R   0.253607 0.499433 0.489464 0.224851
C24   C     C_R   0.050547 0.331813 0.638964 -0.145013
C25   C     C_R   0.102588 0.687454 0.345767 -0.118704
C26   C     C_R   0.947172 0.663737 0.318388 -0.143148
C27   C     C_R   0.897165 0.657186 0.315974 -0.093710
C28   C     C_R   0.592533 0.502238 0.501108 0.559275
C29   C     C_R   0.052394 0.691140 0.347342 -0.156147
C30   C     C_2   0.500356 0.932674 0.391992 -0.171764
C31   C     C_2   0.514244 0.865313 0.501675 0.027246
C32   C     C_2   0.503841 0.066307 0.387962 -0.103819
C33   C     C_2   0.494651 0.133464 0.500207 -0.083174
C34   C     C_R   0.101764 0.507916 0.491733 -0.030003
C35   C     C_2   0.472797 0.428146 0.919779 -0.009458
C36   C     C_2   0.469413 0.436552 0.074472 0.158359
C37   C     C_R   0.177207 0.409825 0.554240 0.400533
C38   C     C_R   0.178169 0.589184 0.414413 0.399559
C39   C     C_R   0.277956 0.592582 0.562114 -0.044056
C40   C     C_R   0.328508 0.596910 0.566911 -0.028275
C41   C     C_R   0.329975 0.411322 0.425282 -0.121624
C42   C     C_2   0.649423 0.651139 0.707302 0.609828
C43   C     C_2   0.545842 0.914429 0.615270 0.588036
C44   C     C_2   0.428999 0.368343 0.134017 0.620965
C45   C     C_R   0.126658 0.412887 0.559277 0.024360
C46   C     C_2   0.745197 0.356693 0.294791 0.631031
C47   C     C_2   0.875578 0.351313 0.848344 0.615845
C48   C     C_3   0.979440 0.401506 0.869282 -0.239327
C49   C     C_3   0.005148 0.522164 0.908365 -0.304829
C50   C     C_3   0.031440 0.512027 0.047046 -0.441681
C51   C     C_3   0.352788 0.704179 0.639939 -0.254256
C52   C     C_3   0.370339 0.799121 0.535803 -0.293565
C53   C     C_3   0.392197 0.910941 0.608665 -0.447232
C54   C     C_R   0.100443 0.322600 0.628344 -0.117025
C55   C     C_R   0.127640 0.595308 0.416119 0.025042
C56   C     C_R   0.354749 0.504465 0.497542 0.029328
C57   C     C_R   0.645680 0.504133 0.503463 -0.036269
Cu1   Cu    Cu3+1 0.500010 0.500020 0.638630 1.013777
Cu2   Cu    Cu3+1 0.499990 0.499980 0.361370 1.014609
H1    H     H_    0.349628 0.339488 0.373296 0.139293
H2    H     H_    0.261086 0.336413 0.364930 0.142086
H3    H     H_    0.484176 0.090655 0.596140 0.110077
H4    H     H_    0.450106 0.361473 0.866093 0.150328
H5    H     H_    0.518368 0.567810 0.895811 0.225133
H6    H     H_    0.528645 0.539245 0.107594 0.205391
H7    H     H_    0.118319 0.244368 0.674048 0.166313
H8    H     H_    0.649553 0.383713 0.327475 0.177533
H9    H     H_    0.031314 0.255691 0.683318 0.126846
H10   H     H_    0.611662 0.660812 0.883243 0.346311
H11   H     H_    0.600907 0.026373 0.671549 0.369401
H12   H     H_    0.257128 0.662777 0.613359 0.129661
H13   H     H_    0.405399 0.211447 0.219230 0.318188
H14   H     H_    0.805382 0.269002 0.234323 0.348812
H15   H     H_    0.830394 0.379376 0.006594 0.362232
H16   H     H_    0.005482 0.491813 0.130200 0.169278
H17   H     H_    0.058912 0.438352 0.043225 0.168782
H18   H     H_    0.049976 0.600062 0.071041 0.155903
H19   H     H_    0.032036 0.547297 0.829605 0.182197
H20   H     H_    0.978188 0.597063 0.914557 0.176575
H21   H     H_    0.955091 0.380749 0.955685 0.175369
H22   H     H_    0.005193 0.324870 0.870985 0.146298
H23   H     H_    0.121661 0.756810 0.288219 0.166545
H24   H     H_    0.365095 0.955165 0.675759 0.168936
H25   H     H_    0.423953 0.883911 0.672371 0.176552
H26   H     H_    0.403908 0.978437 0.530634 0.142902
H27   H     H_    0.397867 0.758032 0.467689 0.174237
H28   H     H_    0.339469 0.829418 0.470221 0.186254
H29   H     H_    0.326905 0.749323 0.710473 0.146263
H30   H     H_    0.383096 0.672579 0.706298 0.185204
H31   H     H_    0.963690 0.716405 0.237765 0.114068
H32   H     H_    0.877761 0.706920 0.236527 0.180770
H33   H     H_    0.743383 0.626210 0.672598 0.160252
H34   H     H_    0.035423 0.765393 0.292354 0.116069
H35   H     H_    0.483010 0.889185 0.303142 0.148118
H36   H     H_    0.511558 0.109233 0.289902 0.198074
N1    N     N_R   0.201868 0.498428 0.484474 -0.397719
N2    N     N_R   0.798832 0.507007 0.501879 -0.376416
N3    N     N_2   0.499480 0.498660 0.846910 -0.347563
N4    N     N_2   0.499460 0.498630 0.153040 -0.363739
O1    O     O_R   0.500010 0.321960 0.617040 -0.494965
O2    O     O_R   0.569740 0.500000 0.617090 -0.440014
O3    O     O_R   0.569730 0.499960 0.382940 -0.501614
O4    O     O_2   0.201560 0.320559 0.620644 -0.496315
O5    O     O_2   0.653117 0.762558 0.699834 -0.468076
O6    O     O_R   0.625517 0.597659 0.817883 -0.647413
O7    O     O_2   0.541285 0.877268 0.733138 -0.493315
O8    O     O_R   0.581735 0.000668 0.586353 -0.654511
O9    O     O_2   0.388577 0.412517 0.130312 -0.528039
O10   O     O_R   0.436154 0.250012 0.184001 -0.705688
O11   O     O_2   0.722759 0.321404 0.192449 -0.477674
O12   O     O_2   0.798179 0.367280 0.683412 -0.411237
O13   O     O_R   0.793360 0.322074 0.312714 -0.668584
O14   O     O_2   0.882310 0.244364 0.879934 -0.492490
O15   O     O_R   0.845160 0.425160 0.926790 -0.647913
O16   O     O_2   0.203476 0.673212 0.343456 -0.495608
O17   O     O_2   0.796716 0.643674 0.315725 -0.460876
O18   O     O_R   0.499990 0.321920 0.382900 -0.462244
O19   O     O_R   0.430270 0.500040 0.617060 -0.515742
O20   O     O_R   0.430260 0.500000 0.382910 -0.469363
O21   O     O_R   0.500010 0.678080 0.617100 -0.468226
O22   O     O_R   0.499990 0.678040 0.382960 -0.511960

loop_
_geom_bond_atom_site_label_1
_geom_bond_atom_site_label_2
_ccdc_geom_bond_type
C10   C27   A    
Cu2   O22   S    
C47   O15   S    
C30   C32   S    
C8    C13   A    
C12   H2    S    
C22   C29   A    
C46   O13   S    
Cu2   N4    S    
C35   C36   S    
Cu1   N3    S    
C19   N2    S    
C1    C33   S    
C7    C8    A    
C14   C46   S    
C28   C57   S    
C23   N1    S    
C16   C31   S    
C12   C23   A    
C26   C27   A    
C31   C43   S    
C53   H25   S    
H11   O8    S    
C16   O21   A    
C30   C31   D    
C24   C54   A    
H15   O15   S    
Cu1   O19   S    
C49   H19   S    
C18   C19   A    
C17   C42   S    
C28   O2    A    
C38   C55   A    
C20   C24   A    
C33   H3    S    
C40   C56   A    
C4    O20   A    
C27   H32   S    
C52   H28   S    
C35   N3    D    
C9    C10   A    
C44   O10   S    
H5    N3    S    
C34   C55   A    
Cu2   O18   S    
C21   C22   A    
C4    C56   S    
C15   C57   A    
C4    O19   A    
C2    C6    A    
C1    O1    A    
C44   O9    D    
C25   C29   A    
C2    C20   A    
C51   C52   S    
Cu1   O1    S    
H6    N4    S    
C39   C40   A    
Cu1   O2    S    
H10   O6    S    
C8    C9    A    
C1    O18   A    
C21   C34   A    
Cu1   Cu2   S    
C49   H20   S    
C37   N1    A    
C43   O7    D    
C7    C47   S    
C16   O22   A    
C41   C56   A    
C5    C9    A    
C12   C41   A    
C50   H17   S    
C15   H8    S    
Cu1   O21   S    
C17   C18   A    
C34   C45   A    
C43   O8    S    
C11   O17   S    
C6    C48   S    
C48   C49   S    
C45   C54   A    
C46   O11   D    
C25   H23   S    
C36   C44   S    
C2    C5    A    
C37   C45   A    
C50   H18   S    
C52   C53   S    
H14   O13   S    
C37   O4    S    
C47   O14   D    
H13   O10   S    
Cu2   O20   S    
Cu2   O3    S    
C14   C19   A    
C3    C26   A    
C25   C55   A    
C41   H1    S    
C3    C5    A    
C42   O5    D    
C51   H29   S    
C35   H4    S    
C6    C7    A    
C54   H7    S    
C26   H31   S    
C40   C51   S    
C53   H24   S    
C11   N2    A    
C18   H33   S    
C32   C33   D    
C48   H21   S    
C52   H27   S    
C48   H22   S    
C13   O12   S    
C50   H16   S    
C51   H30   S    
C29   H34   S    
C38   O16   S    
C23   C39   A    
C36   N4    D    
C13   N2    A    
C42   O6    S    
C10   C11   A    
C24   H9    S    
C28   O3    A    
C32   H36   S    
C20   C21   A    
C30   H35   S    
C49   C50   S    
C38   N1    A    
C39   H12   S    
C14   C15   A    
C3    C22   A    
C53   H26   S    
C17   C57   A    
