data_mof_unit_54086.cif
_audit_creation_date              2012-12-10T16:58:28-0500
_audit_creation_method            fapswitch 2.2
_symmetry_space_group_name_H-M    P1
_symmetry_Int_Tables_number       1
_space_group_crystal_system       triclinic
_cell_length_a                    7.948291
_cell_length_b                    8.552591
_cell_length_c                    23.243935
_cell_angle_alpha                 94.407246
_cell_angle_beta                  84.067372
_cell_angle_gamma                 93.413039
_cell_volume                      1564.85560277

loop_
_atom_site_label
_atom_site_type_symbol
_atom_type_description
_atom_site_fract_x
_atom_site_fract_y
_atom_site_fract_z
_atom_type_partial_charge
C1    C     C_R   0.544842 0.793969 0.498837 0.953389
C2    C     C_R   0.555990 0.392569 0.283373 0.056637
C3    C     C_R   0.578778 0.513038 0.769762 0.242522
C4    C     C_R   0.534161 0.409846 0.224405 0.217692
C5    C     C_R   0.417358 0.457187 0.793772 0.261622
C6    C     C_R   0.424654 0.523484 0.210986 0.300053
C7    C     C_2   0.568319 0.957771 0.498930 -0.393142
C8    C     C_2   0.432046 0.042200 0.500807 -0.380569
C9    C     C_R   0.497612 0.498938 0.610815 0.860472
C10   C     C_R   0.499113 0.498234 0.389205 0.857864
C11   C     C_R   0.286760 0.407605 0.129187 0.501206
C12   C     C_R   0.455229 0.206020 0.501069 0.959515
C13   C     C_R   0.403006 0.622434 0.882845 0.513288
C14   C     C_R   0.442995 0.653845 0.122579 0.501967
C15   C     C_R   0.301861 0.355754 0.885850 0.499505
C16   C     C_R   0.424227 0.651987 0.063646 -0.041004
C17   C     C_R   0.277488 0.373364 0.946615 -0.042984
C18   C     C_R   0.344333 0.519283 0.036008 -0.035077
C19   C     C_R   0.343151 0.510683 0.975318 -0.042340
C20   C     C_R   0.272506 0.393301 0.068674 -0.065237
C21   C     C_R   0.414657 0.636291 0.942870 -0.058902
C22   C     C_R   0.497835 0.774234 0.031415 -0.205796
C23   C     C_R   0.296383 0.399728 0.756900 -0.166829
C24   C     C_R   0.200916 0.251703 0.978542 -0.206126
C25   C     C_R   0.500401 0.766097 0.971176 0.103676
C26   C     C_R   0.197838 0.256954 0.039323 0.083936
C27   C     C_3   0.623018 0.882041 0.940030 -0.388870
C28   C     C_3   0.550946 0.044499 0.942171 -0.309346
C29   C     C_3   0.682302 0.164467 0.916683 -0.838342
C30   C     C_3   0.125493 0.114823 0.071889 -0.335945
C31   C     C_3   0.058215 0.971892 0.035154 -0.451042
C32   C     C_3   0.989129 0.839662 0.072970 -0.801665
C33   C     C_3   0.712321 0.688997 0.694275 -0.436860
C34   C     C_R   0.350751 0.626089 0.254260 -0.151769
C35   C     C_3   0.612362 0.840242 0.704930 -0.308914
C36   C     C_3   0.694827 0.964159 0.745480 -0.790315
C37   C     C_3   0.630915 0.246341 0.300579 -0.419008
C38   C     C_3   0.492768 0.136981 0.329508 -0.349316
C39   C     C_3   0.562989 0.986032 0.345422 -0.864111
C40   C     C_3   0.725766 0.538831 0.806474 -0.920144
C41   C     C_3   0.624842 0.307416 0.176200 -0.891372
C42   C     C_3   0.015462 0.310873 0.459063 -0.150617
C43   C     C_3   0.935620 0.252224 0.404516 -0.411554
C44   C     C_3   0.005178 0.095628 0.379539 -0.965602
C45   C     C_R   0.333087 0.401637 0.697370 -0.274301
C46   C     C_3   0.991383 0.691910 0.540847 -0.149989
C47   C     C_3   0.079937 0.752194 0.594696 -0.377741
C48   C     C_3   0.031780 0.919242 0.615038 -0.971654
C49   C     C_R   0.383837 0.618170 0.311003 -0.265511
C50   C     C_R   0.481941 0.479798 0.673636 -0.105040
C51   C     C_R   0.488897 0.505434 0.326472 -0.087035
C52   C     C_R   0.600406 0.547038 0.710992 0.072347
H1    H     H_    0.564954 0.872754 0.052712 0.190202
H2    H     H_    0.717658 0.132227 0.870012 0.271525
H3    H     H_    0.629113 0.282229 0.921088 0.244397
H4    H     H_    0.438658 0.036993 0.917244 0.284875
H5    H     H_    0.511034 0.085274 0.987836 0.214327
H6    H     H_    0.741979 0.891542 0.961453 0.181600
H7    H     H_    0.664093 0.840415 0.894895 0.233547
H8    H     H_    0.090123 0.800549 0.097383 0.263053
H9    H     H_    0.882058 0.879805 0.104064 0.283689
H10   H     H_    0.942648 0.738193 0.045118 0.251240
H11   H     H_    0.954041 0.007486 0.011544 0.224309
H12   H     H_    0.148550 0.150018 0.954849 0.183993
H13   H     H_    0.161681 0.926249 0.003592 0.243998
H14   H     H_    0.227382 0.073186 0.095389 0.244854
H15   H     H_    0.018743 0.153508 0.103486 0.243563
H16   H     H_    0.696638 0.919422 0.788914 0.276656
H17   H     H_    0.826358 0.996109 0.727858 0.246976
H18   H     H_    0.620990 0.071474 0.750304 0.258598
H19   H     H_    0.603152 0.891217 0.662849 0.189177
H20   H     H_    0.480016 0.814830 0.723838 0.255506
H21   H     H_    0.829092 0.698965 0.716962 0.226760
H22   H     H_    0.757675 0.674946 0.648252 0.188269
H23   H     H_    0.172061 0.356476 0.774182 0.180363
H24   H     H_    0.461274 0.918519 0.370435 0.244357
H25   H     H_    0.610263 0.914446 0.305798 0.283900
H26   H     H_    0.666007 0.011604 0.373684 0.272371
H27   H     H_    0.432291 0.196367 0.369773 0.203535
H28   H     H_    0.393983 0.106205 0.299388 0.246801
H29   H     H_    0.698460 0.178775 0.263638 0.230760
H30   H     H_    0.727266 0.283295 0.329568 0.209012
H31   H     H_    0.756256 0.665728 0.815474 0.253758
H32   H     H_    0.699272 0.483553 0.848303 0.230789
H33   H     H_    0.838827 0.483640 0.783213 0.231445
H34   H     H_    0.265155 0.711335 0.243820 0.164153
H35   H     H_    0.571834 0.184441 0.177204 0.269025
H36   H     H_    0.614913 0.347149 0.132466 0.232533
H37   H     H_    0.762409 0.311722 0.181404 0.242166
H38   H     H_    0.145155 0.104638 0.372875 0.266094
H39   H     H_    0.965237 0.002070 0.409474 0.265470
H40   H     H_    0.956686 0.062164 0.336959 0.278833
H41   H     H_    0.798240 0.234643 0.414148 0.276285
H42   H     H_    0.964599 0.341024 0.371863 0.231872
H43   H     H_    0.147300 0.328630 0.442414 0.238523
H44   H     H_    0.998259 0.221092 0.491637 0.169112
H45   H     H_    0.238402 0.351754 0.669918 0.181798
H46   H     H_    0.085219 0.002544 0.582733 0.266639
H47   H     H_    0.892455 0.927531 0.620628 0.274223
H48   H     H_    0.083653 0.954642 0.656935 0.270527
H49   H     H_    0.045509 0.672546 0.630054 0.210411
H50   H     H_    0.218082 0.756200 0.587171 0.283499
H51   H     H_    0.009763 0.779430 0.507465 0.169138
H52   H     H_    0.858855 0.678967 0.557426 0.216047
H53   H     H_    0.319632 0.696641 0.343675 0.174911
H54   H     H_    0.697434 0.008338 0.497578 0.179984
H55   H     H_    0.303235 0.991439 0.501553 0.178143
H56   H     H_    0.797553 0.171099 0.940214 0.252956
N1    N     N_R   0.380684 0.530194 0.153135 -0.338340
N2    N     N_R   0.370540 0.478259 0.855282 -0.335763
N3    N     N_2   0.950330 0.457950 0.484560 -0.066429
N4    N     N_2   0.049670 0.542050 0.515440 -0.068685
O1    O     O_R   0.389250 0.738570 0.503790 -0.624045
O2    O     O_2   0.422288 0.750498 0.851908 -0.570562
O3    O     O_2   0.527797 0.775853 0.149042 -0.591570
O4    O     O_2   0.262166 0.216470 0.857851 -0.582356
O5    O     O_R   0.610750 0.261430 0.496210 -0.618922
O6    O     O_R   0.678390 0.711620 0.493890 -0.653408
O7    O     O_R   0.321610 0.288380 0.506110 -0.663214
O8    O     O_R   0.355400 0.513520 0.588790 -0.630812
O9    O     O_R   0.644600 0.486480 0.411210 -0.619438
O10   O     O_R   0.644550 0.486570 0.578900 -0.634887
O11   O     O_R   0.355450 0.513430 0.421100 -0.639519
O12   O     O_2   0.211824 0.300264 0.164349 -0.595071
Zn1   Zn    Zn3+2 0.306930 0.518000 0.506610 0.906223
Zn2   Zn    Zn3+2 0.693070 0.482000 0.493390 0.914635

loop_
_geom_bond_atom_site_label_1
_geom_bond_atom_site_label_2
_ccdc_geom_bond_type
C14   N1    A    
C41   H37   S    
C23   C45   A    
C46   N4    S    
C11   N1    A    
C40   H32   S    
C11   O12   S    
C40   H31   S    
C42   N3    S    
C10   O9    A    
C28   H4    S    
C7    C8    D    
C28   H5    S    
C33   C52   S    
C13   N2    A    
C38   H28   S    
C47   H49   S    
C39   H25   S    
C28   C29   S    
C19   C21   A    
C24   C26   A    
C32   H9    S    
C30   C31   S    
O11   Zn1   S    
O1    Zn1   S    
C38   H27   S    
C14   O3    S    
C43   H42   S    
C31   H13   S    
C18   C19   A    
C34   H34   S    
C48   H47   S    
C33   C35   S    
C5    N2    S    
C35   C36   S    
C49   C51   A    
C22   C25   A    
C50   C52   A    
C29   H56   S    
O5    Zn2   S    
C30   H15   S    
C44   H40   S    
C35   H19   S    
C24   H12   S    
C47   H50   S    
C4    C41   S    
C15   N2    A    
C37   H29   S    
C1    O1    A    
C48   H48   S    
C10   C51   S    
C36   H18   S    
C22   H1    S    
C41   H35   S    
C11   C20   A    
C17   C24   A    
C42   H43   S    
C39   H26   S    
C31   H11   S    
C4    C6    A    
C10   O11   A    
O8    Zn1   S    
C17   C19   A    
C49   H53   S    
C29   H3    S    
C46   H52   S    
C6    C34   A    
C40   H33   S    
O10   Zn2   S    
C2    C4    A    
C43   C44   S    
C37   C38   S    
C12   O7    A    
C47   C48   S    
C5    C23   A    
C8    C12   S    
N3    Zn2   S    
C9    O10   A    
C7    H54   S    
C13   C21   A    
C39   H24   S    
N4    Zn1   S    
C30   H14   S    
C44   H39   S    
O7    Zn1   S    
C33   H21   S    
C35   H20   S    
C26   C30   S    
C6    N1    S    
C14   C16   A    
C37   H30   S    
C42   C43   S    
C32   H8    S    
C8    H55   S    
C44   H38   S    
C36   H17   S    
C15   C17   A    
C41   H36   S    
C21   C25   A    
C46   C47   S    
C34   C49   A    
C16   C22   A    
N3    N4    D    
C1    C7    S    
C31   C32   S    
C9    C50   S    
C13   O2    S    
C23   H23   S    
C3    C5    A    
C27   H6    S    
C3    C40   S    
C3    C52   A    
C36   H16   S    
C25   C27   S    
C48   H46   S    
C46   H51   S    
C42   H44   S    
C32   H10   S    
O9    Zn2   S    
C27   H7    S    
C2    C37   S    
C38   C39   S    
C20   C26   A    
C45   C50   A    
C43   H41   S    
C18   C20   A    
C1    O6    A    
C2    C51   A    
C12   O5    A    
C33   H22   S    
C16   C18   A    
C29   H2    S    
C27   C28   S    
C9    O8    A    
C15   O4    S    
C45   H45   S    
O6    Zn2   S    
