data_mof_unit_67735.cif
_audit_creation_date              2012-10-26T19:56:23-0400
_audit_creation_method            fapswitch 2.2
_symmetry_space_group_name_H-M    P1
_symmetry_Int_Tables_number       1
_space_group_crystal_system       triclinic
_cell_length_a                    11.168723
_cell_length_b                    10.928804
_cell_length_c                    9.721687
_cell_angle_alpha                 88.911945
_cell_angle_beta                  91.78798
_cell_angle_gamma                 89.483322
_cell_volume                      1185.79031444

loop_
_atom_site_label
_atom_site_type_symbol
_atom_type_description
_atom_site_fract_x
_atom_site_fract_y
_atom_site_fract_z
_atom_type_partial_charge
C1    C     C_R   0.509315 0.260759 0.500792 0.603181
C2    C     C_3   0.398585 0.054816 0.471769 0.083264
C3    C     C_3   0.484797 0.876811 0.503366 -0.015857
C4    C     C_3   0.516064 0.123511 0.500399 -0.016467
C5    C     C_3   0.419590 0.968980 0.598012 0.285776
C6    C     C_3   0.581522 0.031351 0.406320 0.259016
C7    C     C_3   0.553669 0.596242 0.047626 0.349102
C8    C     C_3   0.446205 0.403652 0.951818 0.345132
C9    C     C_3   0.446855 0.593477 0.947107 0.140090
C10   C     C_3   0.553016 0.406115 0.053251 0.104715
C11   C     C_3   0.604790 0.500191 0.953773 0.118154
C12   C     C_R   0.490556 0.739351 0.499720 0.558324
C13   C     C_3   0.395328 0.499745 0.045633 0.161786
C14   C     C_R   0.263205 0.509742 0.496640 0.578297
C15   C     C_R   0.736997 0.491138 0.503242 0.530758
C16   C     C_R   0.094946 0.890235 0.206715 0.149660
C17   C     C_R   0.895380 0.119987 0.795114 0.118231
C18   C     C_R   0.092300 0.812456 0.326118 0.158764
C19   C     C_R   0.893885 0.200772 0.678286 0.112000
C20   C     C_R   0.089297 0.682833 0.310483 0.079822
C21   C     C_R   0.912606 0.327285 0.695241 0.054379
C22   C     C_R   0.067530 0.638677 0.176758 0.113874
C23   C     C_R   0.872076 0.495410 0.508906 0.008414
C24   C     C_R   0.940680 0.369011 0.829067 0.080469
C25   C     C_R   0.079008 0.715325 0.061124 -0.094795
C26   C     C_R   0.930235 0.290294 0.943352 -0.121983
C27   C     C_R   0.096195 0.839426 0.076559 -0.071811
C28   C     C_R   0.907301 0.167410 0.926265 -0.103434
C29   C     C_R   0.926581 0.591636 0.436257 0.043816
C30   C     C_R   0.073998 0.409966 0.557933 0.049337
C31   C     C_R   0.128241 0.508148 0.490457 0.026357
C32   C     C_R   0.948749 0.406827 0.577629 0.008406
C33   C     C_R   0.052123 0.598624 0.424094 0.007319
C34   C     C_3   0.537998 0.036734 0.625583 0.069927
C35   C     C_3   0.461748 0.964329 0.378816 0.046949
C36   C     C_3   0.602948 0.945695 0.533819 0.060075
Cu1   Cu    Cu3+1 0.500030 0.499990 0.643150 1.054413
Cu2   Cu    Cu3+1 0.499970 0.500010 0.356850 1.051681
H1    H     H_    0.098960 0.898180 0.985729 0.177065
H2    H     H_    0.185026 0.202006 0.974475 0.363345
H3    H     H_    0.779833 0.482560 0.987446 0.235567
H4    H     H_    0.722810 0.409079 0.850989 0.234436
H5    H     H_    0.264149 0.433646 0.158981 0.300791
H6    H     H_    0.281494 0.587455 0.156645 0.258819
H7    H     H_    0.164411 0.059811 0.189827 0.248453
H8    H     H_    0.052830 0.050626 0.305799 0.265155
H9    H     H_    0.915656 0.960515 0.687345 0.257089
H10   H     H_    0.810633 0.958096 0.811440 0.297330
H11   H     H_    0.076645 0.799342 0.535984 0.271978
H12   H     H_    0.905535 0.107182 0.015802 0.178979
H13   H     H_    0.988339 0.901342 0.456246 0.239326
H14   H     H_    0.804340 0.102923 0.539423 0.295051
H15   H     H_    0.955070 0.099603 0.523639 0.235225
H16   H     H_    0.933727 0.526244 0.124762 0.256041
H17   H     H_    0.069491 0.473062 0.086076 0.296727
H18   H     H_    0.925287 0.553443 0.796485 0.270589
H19   H     H_    0.067773 0.499173 0.811955 0.258219
H20   H     H_    0.820690 0.640285 0.274958 0.316248
H21   H     H_    0.783505 0.707264 0.424057 0.262135
H22   H     H_    0.117654 0.231742 0.556387 0.282222
H23   H     H_    0.068373 0.680391 0.958600 0.172038
H24   H     H_    0.140848 0.298101 0.711252 0.298194
H25   H     H_    0.776282 0.887979 0.508635 0.277208
H26   H     H_    0.699423 0.799869 0.619479 0.260899
H27   H     H_    0.222492 0.050401 0.427067 0.286944
H28   H     H_    0.295820 0.159786 0.339203 0.242029
H29   H     H_    0.570152 0.004963 0.830104 0.331188
H30   H     H_    0.557994 0.153661 0.787007 0.299246
H31   H     H_    0.405403 0.006878 0.182512 0.314669
H32   H     H_    0.449625 0.860470 0.205956 0.332713
H33   H     H_    0.144890 0.044130 0.776934 0.364227
H34   H     H_    0.943797 0.321801 0.046754 0.161511
H35   H     H_    0.837555 0.958688 0.191036 0.373953
H36   H     H_    0.430602 0.744496 0.831152 0.325631
H37   H     H_    0.307897 0.654648 0.831680 0.278174
H38   H     H_    0.698965 0.347931 0.157537 0.255586
H39   H     H_    0.658291 0.259849 0.026318 0.243645
H40   H     H_    0.812125 0.799188 0.015696 0.367846
N1    N     N_3   0.500090 0.499970 0.858290 -0.300387
N2    N     N_3   0.881453 0.155460 0.542378 -0.574147
N3    N     N_3   0.022199 0.517580 0.160697 -0.622733
N4    N     N_3   0.981793 0.491217 0.850265 -0.652675
N5    N     N_3   0.854218 0.681684 0.363475 -0.568644
N6    N     N_3   0.148671 0.309781 0.605338 -0.518614
N7    N     N_3   0.714480 0.889383 0.585677 -0.642970
N8    N     N_3   0.286944 0.117888 0.435762 -0.548048
N9    N     N_3   0.593306 0.070477 0.756996 -0.574508
N10   N     N_3   0.402525 0.931439 0.249292 -0.582082
N11   N     N_3   0.499910 0.500030 0.141710 -0.301412
N12   N     N_3   0.374822 0.693901 0.893251 -0.514094
N13   N     N_3   0.625021 0.306668 0.109934 -0.457424
N14   N     N_3   0.722716 0.492393 0.901371 -0.527622
N15   N     N_3   0.277312 0.510170 0.095680 -0.579931
N16   N     N_3   0.081927 0.020831 0.211220 -0.653344
N17   N     N_3   0.895173 0.989283 0.785377 -0.646513
N18   N     N_3   0.075408 0.865951 0.457984 -0.588441
O1    O     O_R   0.500060 0.316850 0.620870 -0.466346
O2    O     O_2   0.647353 0.765915 0.223698 -0.255626
O3    O     O_3   0.778794 0.715562 0.019020 -0.551850
O4    O     O_2   0.347318 0.239534 0.770593 -0.215159
O5    O     O_2   0.418734 0.163388 0.995372 -0.268201
O6    O     O_3   0.219784 0.284975 0.978102 -0.568445
O7    O     O_2   0.247233 0.821861 0.686932 -0.356244
O8    O     O_2   0.348058 0.948719 0.860732 -0.242605
O9    O     O_3   0.192330 0.050408 0.692834 -0.496188
O10   O     O_2   0.628412 0.057865 0.138474 -0.224941
O11   O     O_2   0.749771 0.177513 0.301888 -0.308638
O12   O     O_R   0.499940 0.683150 0.379130 -0.465314
O13   O     O_3   0.797639 0.948589 0.279903 -0.516609
O14   O     O_R   0.500000 0.316860 0.379090 -0.454483
O15   O     O_R   0.500000 0.683140 0.620910 -0.522423
O16   O     O_R   0.319670 0.500010 0.620890 -0.464976
O17   O     O_R   0.680330 0.499990 0.379110 -0.499145
O18   O     O_R   0.319620 0.500010 0.379110 -0.542896
O19   O     O_R   0.680380 0.499990 0.620890 -0.503539
O20   O     O_2   0.579911 0.836352 0.996271 -0.281030
S1    S     S_3+6 0.639160 0.732692 0.076030 0.017594
S2    S     S_3+6 0.358801 0.268917 0.919386 0.024923
S3    S     S_3+6 0.300831 0.944277 0.714636 0.022651
S4    S     S_3+6 0.690442 0.057179 0.277545 0.019449

loop_
_geom_bond_atom_site_label_1
_geom_bond_atom_site_label_2
_ccdc_geom_bond_type
C2    C35   S    
C8    C13   S    
H10   N17   S    
C16   N16   S    
C26   H34   S    
H26   N7    S    
C2    C4    S    
C14   C31   S    
H32   N10   S    
Cu1   O1    S    
C8    S2    S    
H27   N8    S    
C6    C35   S    
C14   O16   A    
Cu1   N1    S    
Cu2   N11   S    
C5    S3    S    
O5    S2    D    
C23   C29   A    
C19   C21   A    
H21   N5    S    
C29   N5    S    
C30   C31   A    
Cu2   O18   S    
C7    N11   S    
C29   C33   A    
C18   N18   S    
O20   S1    D    
C9    N1    S    
C9    C13   S    
Cu1   O16   S    
C24   N4    S    
H6    N15   S    
H37   N12   S    
H5    N15   S    
C28   H12   S    
C11   N14   S    
C10   N11   S    
C27   H1    S    
C22   C25   A    
C8    N1    S    
C31   C33   A    
C17   N17   S    
H17   N3    S    
C34   C36   S    
O6    S2    S    
H13   N18   S    
O8    S3    D    
O10   S4    D    
C16   C27   A    
C15   C23   S    
C3    C12   S    
H25   N7    S    
Cu2   O12   S    
H7    N16   S    
C6    S4    S    
C21   C32   S    
C4    C34   S    
C22   N3    S    
H15   N2    S    
C4    C6    S    
C1    O1    A    
C12   O12   A    
Cu2   O17   S    
C14   O18   A    
C13   N15   S    
C7    C11   S    
Cu1   Cu2   S    
C1    O14   A    
O3    S1    S    
C35   N10   S    
H8    N16   S    
C3    C35   S    
C5    C34   S    
C15   O17   A    
C25   H23   S    
H35   O13   S    
H31   N10   S    
C11   N1    S    
C20   C33   S    
C16   C18   A    
C20   C22   A    
C10   N13   S    
H33   O9    S    
C15   O19   A    
C2    C5    S    
Cu2   O14   S    
O11   S4    D    
O2    S1    D    
C7    C9    S    
H24   N6    S    
H39   N13   S    
H4    N14   S    
C13   N11   S    
C17   C28   A    
H29   N9    S    
O7    S3    D    
C24   C26   A    
C3    C5    S    
C9    N12   S    
H28   N8    S    
H18   N4    S    
Cu1   O19   S    
C36   N7    S    
C25   C27   A    
C26   C28   A    
C7    S1    S    
C1    C4    S    
C23   C32   A    
H36   N12   S    
H20   N5    S    
C30   C32   A    
H22   N6    S    
C3    C36   S    
C17   C19   A    
C6    C36   S    
C2    N8    S    
C18   C20   A    
C34   N9    S    
H16   N3    S    
H11   N18   S    
C30   N6    S    
C19   N2    S    
Cu1   O15   S    
C10   C11   S    
H38   N13   S    
H2    O6    S    
H3    N14   S    
O4    S2    D    
C8    C10   S    
C21   C24   A    
H40   O3    S    
H30   N9    S    
H9    N17   S    
H19   N4    S    
O9    S3    S    
H14   N2    S    
C12   O15   A    
O13   S4    S    
