data_mof_unit_6239.cif
_audit_creation_date              2012-12-10T18:45:30-0500
_audit_creation_method            fapswitch 2.2
_symmetry_space_group_name_H-M    P1
_symmetry_Int_Tables_number       1
_space_group_crystal_system       triclinic
_cell_length_a                    19.092875
_cell_length_b                    18.149211
_cell_length_c                    10.857657
_cell_angle_alpha                 89.957106
_cell_angle_beta                  89.706802
_cell_angle_gamma                 89.907224
_cell_volume                      3762.34677711

loop_
_atom_site_label
_atom_site_type_symbol
_atom_type_description
_atom_site_fract_x
_atom_site_fract_y
_atom_site_fract_z
_atom_type_partial_charge
C1    C     C_R   0.366974 0.499757 0.496030 0.871506
C2    C     C_R   0.633037 0.500173 0.494909 0.870484
C3    C     C_R   0.708428 0.501022 0.464468 -0.220017
C4    C     C_R   0.291813 0.498246 0.465959 -0.214634
C5    C     C_R   0.963463 0.564218 0.369563 0.315160
C6    C     C_R   0.037712 0.429647 0.365016 0.316119
C7    C     C_R   0.037036 0.563987 0.359832 0.261662
C8    C     C_R   0.964046 0.429822 0.354383 0.291068
C9    C     C_R   0.074005 0.497267 0.369903 -0.174533
C10   C     C_R   0.926718 0.496911 0.366331 -0.185806
C11   C     C_R   0.452538 0.721145 0.570257 0.096060
C12   C     C_R   0.547693 0.278783 0.568911 0.095283
C13   C     C_R   0.547271 0.720903 0.429132 0.094926
C14   C     C_R   0.452542 0.279144 0.430382 0.094711
C15   C     C_R   0.451457 0.798522 0.570979 -0.278371
C16   C     C_R   0.548792 0.201406 0.569581 -0.278581
C17   C     C_R   0.548366 0.798272 0.427959 -0.285491
C18   C     C_R   0.451464 0.201775 0.429211 -0.286036
C19   C     C_R   0.499945 0.838499 0.499417 0.107875
C20   C     C_R   0.500098 0.161489 0.499347 0.108380
C21   C     C_R   0.563241 0.961131 0.498045 -0.175211
C22   C     C_R   0.436803 0.038857 0.499716 -0.175124
C23   C     C_R   0.436763 0.961419 0.500339 -0.176359
C24   C     C_R   0.563284 0.038569 0.498617 -0.176612
C25   C     C_R   0.500064 0.078689 0.499193 0.119086
C26   C     C_R   0.499981 0.921299 0.499243 0.119117
C27   C     C_R   0.499848 0.500070 0.262659 0.800962
C28   C     C_R   0.500062 0.499951 0.737678 0.789068
C29   C     C_R   0.397448 0.584555 0.129229 -0.166968
C30   C     C_R   0.599177 0.410772 0.873400 -0.167420
C31   C     C_R   0.399406 0.587285 0.874063 -0.166823
C32   C     C_R   0.601868 0.415371 0.128299 -0.165228
C33   C     C_R   0.349578 0.627995 0.066031 -0.167234
C34   C     C_R   0.646461 0.367087 0.937838 -0.140496
C35   C     C_R   0.351193 0.630117 0.938673 -0.136324
C36   C     C_R   0.648341 0.370080 0.065088 -0.168376
C37   C     C_R   0.450490 0.544184 0.936031 0.068365
C38   C     C_R   0.549587 0.456417 0.065345 0.061587
C39   C     C_R   0.450114 0.543773 0.065818 0.060697
C40   C     C_R   0.548944 0.455248 0.935621 0.068567
C41   C     C_R   0.499876 0.499824 0.871670 -0.196164
C42   C     C_R   0.499970 0.500274 0.129206 -0.221508
C43   C     C_R   0.756416 0.459358 0.533602 0.361935
C44   C     C_R   0.242356 0.535543 0.539550 0.354651
C45   C     C_R   0.269704 0.459042 0.360461 0.366387
C46   C     C_R   0.732182 0.542088 0.361580 0.353841
C47   C     C_R   0.826318 0.454557 0.494800 -0.216758
C48   C     C_R   0.172077 0.537376 0.503337 -0.179357
C49   C     C_R   0.198483 0.460743 0.327292 -0.249975
C50   C     C_R   0.803611 0.539759 0.328705 -0.232069
C51   C     C_R   0.850607 0.495645 0.394220 0.070165
C52   C     C_R   0.149659 0.499319 0.398728 0.128614
Cu1   Cu    Cu3+1 0.500000 0.573360 0.500000 0.954459
Cu2   Cu    Cu3+1 0.500000 0.426640 0.500000 0.955491
H1    H     H_    0.686525 0.338077 0.115380 0.144783
H2    H     H_    0.313637 0.663499 0.889364 0.145801
H3    H     H_    0.683123 0.332368 0.888445 0.146971
H4    H     H_    0.310336 0.659127 0.116159 0.140593
H5    H     H_    0.390788 0.582246 0.227880 0.155465
H6    H     H_    0.604549 0.409906 0.774669 0.173005
H7    H     H_    0.393945 0.587379 0.775387 0.172042
H8    H     H_    0.609052 0.418445 0.226648 0.153641
H9    H     H_    0.862775 0.421677 0.547345 0.178080
H10   H     H_    0.134221 0.566785 0.559083 0.157454
H11   H     H_    0.180798 0.431739 0.246564 0.135005
H12   H     H_    0.822878 0.572900 0.253045 0.178376
H13   H     H_    0.415249 0.691093 0.626145 0.128443
H14   H     H_    0.585166 0.308760 0.623755 0.130317
H15   H     H_    0.584255 0.690644 0.372822 0.165245
H16   H     H_    0.415395 0.309428 0.375047 0.165649
H17   H     H_    0.413588 0.826780 0.628606 0.132347
H18   H     H_    0.586844 0.173103 0.626155 0.132544
H19   H     H_    0.586147 0.826328 0.369980 0.133049
H20   H     H_    0.413524 0.173768 0.372240 0.132430
H21   H     H_    0.612962 0.932370 0.498307 0.130774
H22   H     H_    0.387084 0.067617 0.501296 0.130977
H23   H     H_    0.387011 0.932887 0.500105 0.130437
H24   H     H_    0.613033 0.067101 0.497031 0.130166
N1    N     N_R   0.500000 0.683620 0.500000 -0.179147
N2    N     N_R   0.500000 0.316380 0.500000 -0.179299
O1    O     O_R   0.400190 0.561980 0.499980 -0.590158
O2    O     O_R   0.599810 0.438020 0.500020 -0.588204
O3    O     O_R   0.599810 0.561980 0.500020 -0.553202
O4    O     O_R   0.400190 0.438020 0.499980 -0.552235
O5    O     O_R   0.500000 0.561950 0.319660 -0.584167
O6    O     O_R   0.500000 0.438050 0.680340 -0.590430
O7    O     O_R   0.500000 0.561950 0.680340 -0.589657
O8    O     O_R   0.500000 0.438050 0.319660 -0.582008
O9    O     O_3   0.736029 0.427158 0.643582 -0.619605
C53   C     C_3   0.762067 0.469293 0.743729 0.022845
H25   H     H_    0.717764 0.480992 0.806982 0.172441
H26   H     H_    0.783379 0.524505 0.717612 0.129180
C54   C     C_3   0.818232 0.425760 0.813331 -0.313972
H27   H     H_    0.799252 0.369113 0.832603 0.224676
H28   H     H_    0.866352 0.421431 0.756181 0.205908
C55   C     C_3   0.837166 0.462990 0.934604 -0.968145
H29   H     H_    0.855131 0.520331 0.917943 0.261326
H30   H     H_    0.880217 0.431962 0.979402 0.251074
H31   H     H_    0.791204 0.463582 0.997620 0.255534
O10   O     O_3   0.262038 0.566894 0.650246 -0.623262
C56   C     C_3   0.237148 0.523050 0.749781 0.031703
H32   H     H_    0.281975 0.511721 0.811387 0.169673
H33   H     H_    0.216738 0.467715 0.722425 0.133110
C57   C     C_3   0.180432 0.564506 0.822567 -0.321931
H34   H     H_    0.198483 0.621219 0.843452 0.226879
H35   H     H_    0.132017 0.568745 0.767065 0.201228
C58   C     C_3   0.162663 0.525145 0.942988 -0.951843
H36   H     H_    0.147786 0.466990 0.925197 0.255651
H37   H     H_    0.117890 0.553081 0.988917 0.254756
H38   H     H_    0.208280 0.526717 0.005688 0.256913
O11   O     O_3   0.317010 0.412102 0.302071 -0.611493
C59   C     C_3   0.316800 0.419492 0.172378 0.046396
H39   H     H_    0.371700 0.428348 0.143123 0.176992
H40   H     H_    0.286285 0.467476 0.137706 0.124880
C60   C     C_3   0.292261 0.347828 0.112594 -0.340431
H41   H     H_    0.324651 0.301286 0.147063 0.224577
H42   H     H_    0.236871 0.336911 0.137463 0.198731
C61   C     C_3   0.298907 0.351571 0.972589 -0.919627
H43   H     H_    0.265141 0.396137 0.935777 0.251237
H44   H     H_    0.281973 0.298440 0.931912 0.258185
H45   H     H_    0.354130 0.362066 0.944985 0.263874
O12   O     O_3   0.686285 0.590225 0.303489 -0.609544
C62   C     C_3   0.685731 0.580403 0.174123 0.041365
H46   H     H_    0.630603 0.571571 0.146865 0.174386
H47   H     H_    0.715816 0.531517 0.140808 0.126036
C63   C     C_3   0.711159 0.650508 0.109797 -0.330599
H48   H     H_    0.677987 0.697752 0.139413 0.222803
H49   H     H_    0.766092 0.662405 0.136113 0.217454
C64   C     C_3   0.707101 0.642920 0.969965 -0.928548
H50   H     H_    0.741556 0.597450 0.937913 0.251146
H51   H     H_    0.724746 0.694904 0.925756 0.260020
H52   H     H_    0.652400 0.631539 0.941154 0.264489
O13   O     O_3   0.926999 0.630123 0.380441 -0.606835
C65   C     C_3   0.937376 0.661706 0.498453 0.111096
H53   H     H_    0.926724 0.721687 0.490150 0.160388
H54   H     H_    0.992166 0.656571 0.532143 0.157763
C66   C     C_3   0.886593 0.629091 0.593797 -0.382827
H55   H     H_    0.832184 0.631967 0.558172 0.240214
H56   H     H_    0.900366 0.570516 0.610763 0.211008
C67   C     C_3   0.890119 0.670299 0.716031 -0.938206
H57   H     H_    0.943842 0.667049 0.754494 0.255837
H58   H     H_    0.853047 0.645043 0.782876 0.256304
H59   H     H_    0.875399 0.729013 0.703041 0.260923
O14   O     O_3   0.072710 0.364860 0.393901 -0.576265
C68   C     C_3   0.080771 0.319293 0.288986 0.120298
H60   H     H_    0.137391 0.315214 0.267030 0.129073
H61   H     H_    0.054640 0.340419 0.204478 0.102497
C69   C     C_3   0.055265 0.241513 0.319448 -0.294788
H62   H     H_    0.090091 0.216783 0.390105 0.210641
H63   H     H_    0.001579 0.243691 0.358641 0.252384
C70   C     C_3   0.055255 0.192506 0.205329 -0.961125
H64   H     H_    0.018870 0.214996 0.135108 0.260426
H65   H     H_    0.037628 0.136251 0.230944 0.259966
H66   H     H_    0.108832 0.188862 0.165383 0.257901
O15   O     O_3   0.073760 0.629605 0.355289 -0.610828
C71   C     C_3   0.069648 0.660590 0.235872 0.121886
H67   H     H_    0.037511 0.711607 0.241586 0.169553
H68   H     H_    0.045259 0.623875 0.165354 0.111098
C72   C     C_3   0.143565 0.680210 0.192132 -0.351810
H69   H     H_    0.169626 0.715003 0.262517 0.231126
H70   H     H_    0.174641 0.628764 0.180865 0.216719
C73   C     C_3   0.142291 0.721881 0.070005 -0.946164
H71   H     H_    0.114721 0.689333 0.998639 0.258842
H72   H     H_    0.196770 0.732183 0.038184 0.254684
H73   H     H_    0.115243 0.775676 0.081676 0.259501
O16   O     O_3   0.928522 0.363399 0.349274 -0.587403
C74   C     C_3   0.898972 0.355376 0.230675 0.055014
H74   H     H_    0.940715 0.354325 0.158899 0.126016
H75   H     H_    0.862182 0.401121 0.208938 0.145975
C75   C     C_3   0.857835 0.283332 0.224948 -0.312831
H76   H     H_    0.890797 0.237026 0.258170 0.227160
H77   H     H_    0.810983 0.287587 0.285770 0.217739
C76   C     C_3   0.834584 0.266594 0.093617 -0.957669
H78   H     H_    0.803998 0.313314 0.055664 0.258143
H79   H     H_    0.801322 0.216477 0.093275 0.259994
H80   H     H_    0.880955 0.256723 0.033618 0.260270

loop_
_geom_bond_atom_site_label_1
_geom_bond_atom_site_label_2
_ccdc_geom_bond_type
C38   C40   A    
C21   C26   A    
C13   N1    A    
C56   H32   S    
C14   H16   S    
C14   C18   A    
O11   C59   S    
C16   H18   S    
C69   C70   S    
C22   H22   S    
C6    C9    A    
C57   H35   S    
C68   H60   S    
C62   H46   S    
C74   H75   S    
C76   H78   S    
C1    O4    A    
C5    O13   S    
C12   H14   S    
C3    C43   A    
C43   O9    S    
C49   H11   S    
C6    C8    A    
C32   C36   A    
C71   H67   S    
Cu1   N1    S    
C67   H58   S    
C38   C42   A    
C47   H9    S    
C8    C10   A    
C62   H47   S    
C20   C25   S    
C1    O1    A    
C60   H41   S    
C55   H31   S    
C29   C33   A    
C28   C41   S    
Cu1   O1    S    
C70   H66   S    
C27   O5    A    
C19   C26   S    
C31   H7    S    
C61   H43   S    
C57   H34   S    
C17   C19   A    
C11   C15   A    
C29   H5    S    
C60   H42   S    
C22   C25   A    
C30   H6    S    
C34   H3    S    
C58   H36   S    
C72   H70   S    
C32   C38   A    
C74   C75   S    
C18   C20   A    
C16   C20   A    
C64   H52   S    
C49   C52   A    
C54   H28   S    
C17   H19   S    
C58   H37   S    
C2    O3    A    
C27   O8    A    
C9    C52   S    
C65   C66   S    
C10   C51   S    
C59   H40   S    
C59   H39   S    
C68   H61   S    
C11   H13   S    
C39   C42   A    
Cu2   N2    S    
C4    C45   A    
C76   H79   S    
C66   C67   S    
C30   C34   A    
C12   C16   A    
C67   H57   S    
C74   H74   S    
C5    C7    A    
C62   C63   S    
C47   C51   A    
C4    C44   A    
C63   C64   S    
Cu1   Cu2   S    
C23   H23   S    
C31   C37   A    
C55   H30   S    
C61   H45   S    
C23   C26   A    
C15   C19   A    
C73   H73   S    
C66   H56   S    
C53   H26   S    
C72   H69   S    
C45   C49   A    
C70   H64   S    
C60   C61   S    
C55   H29   S    
C29   C39   A    
C28   O7    A    
C50   C51   A    
C72   C73   S    
C30   C40   A    
Cu1   O7    S    
C54   H27   S    
C24   C25   A    
C67   H59   S    
C50   H12   S    
C57   C58   S    
C11   N1    A    
C24   H24   S    
C40   C41   A    
C54   C55   S    
C56   C57   S    
C14   N2    A    
C28   O6    A    
O16   C74   S    
C58   H38   S    
C31   C35   A    
C2    O2    A    
C6    O14   S    
Cu2   O2    S    
C68   C69   S    
C53   C54   S    
Cu2   O6    S    
C64   H50   S    
C56   H33   S    
C76   H80   S    
C7    C9    A    
C46   C50   A    
C63   H49   S    
C35   H2    S    
C12   N2    A    
C71   C72   S    
C69   H63   S    
O14   C68   S    
C65   H54   S    
C45   O11   S    
C65   H53   S    
C73   H71   S    
C15   H17   S    
C66   H55   S    
C21   H21   S    
C3    C46   A    
C13   C17   A    
C33   H4    S    
Cu1   O3    S    
C1    C4    S    
C71   H68   S    
C2    C3    S    
O12   C62   S    
C32   H8    S    
C5    C10   A    
C37   C39   A    
C36   H1    S    
Cu2   O8    S    
C44   O10   S    
C27   C42   S    
C53   H25   S    
O13   C65   S    
C13   H15   S    
C63   H48   S    
C8    O16   S    
O10   C56   S    
C33   C35   A    
C34   C36   A    
C69   H62   S    
C70   H65   S    
C37   C41   A    
Cu2   O4    S    
C73   H72   S    
C61   H44   S    
C48   H10   S    
C48   C52   A    
C7    O15   S    
C18   H20   S    
C75   H76   S    
C21   C24   A    
O15   C71   S    
C22   C23   A    
C46   O12   S    
Cu1   O5    S    
C75   H77   S    
O9    C53   S    
C43   C47   A    
C59   C60   S    
C44   C48   A    
C64   H51   S    
C75   C76   S    
