data_mof_unit_15945.cif
_audit_creation_date              2012-12-11T15:57:34-0500
_audit_creation_method            fapswitch 2.2
_symmetry_space_group_name_H-M    P1
_symmetry_Int_Tables_number       1
_space_group_crystal_system       triclinic
_cell_length_a                    10.797779
_cell_length_b                    10.697726
_cell_length_c                    17.050397
_cell_angle_alpha                 99.674544
_cell_angle_beta                  100.253885
_cell_angle_gamma                 60.644819
_cell_volume                      1681.70165515

loop_
_atom_site_label
_atom_site_type_symbol
_atom_type_description
_atom_site_fract_x
_atom_site_fract_y
_atom_site_fract_z
_atom_type_partial_charge
C1    C     C_R   0.376440 0.721627 0.388560 0.534937
C2    C     C_2   0.347579 0.358836 0.843498 -0.093911
C3    C     C_2   0.462185 0.269354 0.805579 -0.079506
C4    C     C_R   0.398518 0.369301 0.353718 0.539915
C5    C     C_2   0.483199 0.289949 0.728843 0.167056
C6    C     C_1   0.852159 0.327146 0.704644 0.060496
C7    C     C_1   0.899561 0.292062 0.771454 0.040720
C8    C     C_1   0.339400 0.810528 0.709189 -0.009754
C9    C     C_1   0.312466 0.838464 0.776952 -0.009639
C10   C     C_R   0.952639 0.284193 0.099007 0.547436
C11   C     C_R   0.297659 0.268295 0.124352 0.535459
C12   C     C_2   0.905830 0.299961 0.176526 -0.084003
C13   C     C_R   0.296876 0.886114 0.081267 0.568237
C14   C     C_R   0.946417 0.271902 0.854308 0.563306
C15   C     C_R   0.311070 0.298864 0.899606 0.577926
C16   C     C_R   0.779673 0.374920 0.406990 0.549511
C17   C     C_R   0.277968 0.885265 0.856502 0.539850
C18   C     C_R   0.358593 0.769373 0.627259 0.557740
C19   C     C_R   0.406235 0.375192 0.598224 0.605541
C20   C     C_R   0.779723 0.377627 0.628600 0.576007
C21   C     C_1   0.355144 0.343362 0.272901 -0.004319
C22   C     C_1   0.325120 0.312620 0.204700 0.000575
C23   C     C_2   0.912526 0.190742 0.210534 0.191710
C24   C     C_2   0.868976 0.319417 0.342878 -0.136104
C25   C     C_2   0.861394 0.217948 0.288100 -0.117444
C26   C     C_2   0.359092 0.778283 0.313870 -0.053476
C27   C     C_2   0.359419 0.792289 0.145145 0.389028
C28   C     C_2   0.453350 0.807481 0.203412 -0.133982
C29   C     C_2   0.473131 0.757210 0.281382 -0.131257
C30   C     C_2   0.374221 0.357481 0.672635 0.222040
Cl1   Cl    Cl    0.961944 0.015432 0.163877 -0.525540
Cl2   Cl    Cl    0.662157 0.184542 0.708065 -0.601268
Cl3   Cl    Cl    0.191811 0.411733 0.679395 -0.606340
Cr1   Cr    Cr6+3 0.608020 0.610770 0.522990 1.078769
Cr2   Cr    Cr6+3 0.289390 0.599570 0.488050 1.086001
Cr3   Cr    Cr6+3 0.602610 0.289690 0.489020 1.080110
Cr4   Cr    Cr6+3 0.053780 0.052210 0.965970 1.124948
Cr5   Cr    Cr6+3 0.060060 0.372530 0.992430 1.086238
Cr6   Cr    Cr6+3 0.372600 0.061970 0.991430 1.049586
F1    F     F_    0.304359 0.703801 0.150631 -0.605596
H1    H     H_    0.274302 0.467059 0.827124 0.162663
H2    H     H_    0.807326 0.159564 0.297573 0.186578
H3    H     H_    0.863939 0.407703 0.207381 0.081233
H4    H     H_    0.927501 0.374430 0.335413 0.111569
H5    H     H_    0.503724 0.871425 0.197598 0.114705
H6    H     H_    0.579886 0.709000 0.313395 0.151767
H7    H     H_    0.251691 0.832731 0.283151 0.199349
H8    H     H_    0.541184 0.166684 0.827733 0.202376
O1    O     O_R   0.749250 0.499990 0.439200 -0.506884
O2    O     O_R   0.411120 0.181190 0.091480 -0.482248
O3    O     O_R   0.364220 0.944920 0.062310 -0.561560
O4    O     O_R   0.477870 0.725740 0.440280 -0.486858
O5    O     O_R   0.158740 0.906940 0.874970 -0.495662
O6    O     O_R   0.930920 0.176940 0.885610 -0.456075
O7    O     O_R   0.910730 0.394510 0.895320 -0.492550
O8    O     O_R   0.185840 0.361180 0.920280 -0.489747
O9    O     O_R   0.399210 0.173040 0.915160 -0.507615
O10   O     O_R   0.353170 0.937370 0.898860 -0.495246
O11   O     O_3   0.162150 0.162240 0.983280 -0.339307
O12   O     O_R   0.299400 0.468710 0.556310 -0.450588
O13   O     O_R   0.260770 0.742210 0.412610 -0.495161
O14   O     O_R   0.297990 0.466320 0.394220 -0.490120
O15   O     O_R   0.487720 0.253870 0.385870 -0.500146
O16   O     O_R   0.721940 0.304340 0.422320 -0.515838
O17   O     O_R   0.750770 0.502570 0.614050 -0.479220
O18   O     O_R   0.479280 0.728140 0.602370 -0.480001
O19   O     O_R   0.262290 0.744790 0.587460 -0.495225
O20   O     O_R   0.489240 0.256450 0.560730 -0.445991
O21   O     O_R   0.723350 0.306730 0.584410 -0.472955
O22   O     O_3   0.500010 0.500010 0.500020 -0.334237
O23   O     O_R   0.170650 0.915100 0.051290 -0.415718
O24   O     O_R   0.941960 0.184500 0.049060 -0.424120
O25   O     O_R   0.922640 0.402670 0.071640 -0.504669
O26   O     O_R   0.196880 0.368740 0.083740 -0.473498

loop_
_geom_bond_atom_site_label_1
_geom_bond_atom_site_label_2
_ccdc_geom_bond_type
Cr6   O3    S    
Cr1   O18   S    
C4    O15   A    
C28   C29   S    
C12   H3    S    
C10   O25   A    
C2    H1    S    
Cr6   O9    S    
C4    O14   A    
C3    H8    S    
C13   O3    A    
C7    C14   S    
Cr5   O7    S    
Cr2   O22   S    
C8    C9    T    
Cr3   O15   S    
Cr1   O22   S    
C17   O10   A    
C5    Cl2   S    
Cr4   O5    S    
C14   O7    A    
C16   C24   S    
C21   C22   T    
C15   O9    A    
Cr1   O17   S    
Cr3   O22   S    
C28   H5    S    
C20   O17   A    
C16   O1    A    
C13   O23   A    
C18   O19   A    
Cr6   O10   S    
C8    C18   S    
Cr2   O12   S    
C23   Cl1   S    
C12   C23   D    
Cr2   O19   S    
C27   F1    S    
Cr6   O11   S    
C19   O20   A    
Cr2   O13   S    
C24   C25   D    
C2    C15   S    
Cr4   O11   S    
C10   C12   S    
C26   H7    S    
Cr4   O6    S    
C9    C17   S    
C14   O6    A    
Cr4   O23   S    
C1    C26   S    
C24   H4    S    
C20   O21   A    
C17   O5    A    
Cr3   O21   S    
C5    C30   D    
Cr5   O26   S    
Cr1   O1    S    
C30   Cl3   S    
C3    C5    S    
C11   O26   A    
C1    O13   A    
C25   H2    S    
Cr3   O20   S    
C6    C7    T    
C19   O12   A    
C18   O18   A    
C6    C20   S    
C11   C22   S    
Cr1   O4    S    
C29   H6    S    
C15   O8    A    
C2    C3    D    
C11   O2    A    
C4    C21   S    
Cr2   O14   S    
C23   C25   S    
C1    O4    A    
Cr5   O11   S    
Cr6   O2    S    
Cr5   O8    S    
C26   C29   D    
Cr4   O24   S    
C27   C28   D    
C13   C27   S    
C16   O16   A    
Cr3   O16   S    
C19   C30   S    
Cr5   O25   S    
C10   O24   A    
