data_mof_unit_61671.cif
_audit_creation_date              2012-12-10T17:05:03-0500
_audit_creation_method            fapswitch 2.2
_symmetry_space_group_name_H-M    P1
_symmetry_Int_Tables_number       1
_space_group_crystal_system       triclinic
_cell_length_a                    15.062383
_cell_length_b                    15.060057
_cell_length_c                    19.520615
_cell_angle_alpha                 88.878549
_cell_angle_beta                  91.124437
_cell_angle_gamma                 90.200062
_cell_volume                      4426.34097227

loop_
_atom_site_label
_atom_site_type_symbol
_atom_type_description
_atom_site_fract_x
_atom_site_fract_y
_atom_site_fract_z
_atom_type_partial_charge
C1    C     C_R   0.486158 0.259997 0.510521 0.838061
C2    C     C_2   0.541984 0.502262 0.020587 -0.238557
C3    C     C_2   0.470669 0.515084 0.979545 -0.234371
C4    C     C_R   0.514601 0.739642 0.489334 0.793782
C5    C     C_R   0.485010 0.514628 0.761914 0.000847
C6    C     C_R   0.484663 0.163488 0.517728 -0.106228
C7    C     C_R   0.519244 0.835538 0.484061 -0.020000
C8    C     C_R   0.537414 0.968322 0.414276 -0.167710
C9    C     C_R   0.538500 0.876287 0.421034 -0.188999
C10   C     C_R   0.497721 0.886307 0.540450 -0.207455
C11   C     C_R   0.493072 0.978693 0.533553 0.033447
C12   C     C_R   0.533965 0.499748 0.095368 0.204282
C13   C     C_R   0.514184 0.019882 0.470020 0.100797
C14   C     C_R   0.510939 0.111979 0.462932 -0.270794
C15   C     C_R   0.461260 0.122686 0.580026 -0.280373
C16   C     C_R   0.259879 0.512614 0.488384 0.802867
C17   C     C_R   0.466272 0.030706 0.588290 0.614301
C18   C     C_R   0.163354 0.513204 0.481222 -0.014955
C19   C     C_R   0.835351 0.481962 0.517536 0.009203
C20   C     C_R   0.967964 0.469308 0.588723 -0.209256
C21   C     C_R   0.875898 0.467872 0.581952 -0.192673
C22   C     C_R   0.886370 0.498574 0.459686 -0.274639
C23   C     C_R   0.588935 0.443196 0.134883 -0.177239
C24   C     C_R   0.978643 0.503477 0.466414 0.184051
C25   C     C_R   0.019729 0.487723 0.531362 0.175043
C26   C     C_R   0.111866 0.491560 0.538057 -0.265930
C27   C     C_R   0.122439 0.531231 0.417289 -0.195286
C28   C     C_R   0.739517 0.486501 0.511819 0.789499
C29   C     C_R   0.030445 0.525496 0.409738 -0.217101
C30   C     C_R   0.490045 0.510778 0.687327 0.793078
C31   C     C_R   0.509851 0.490037 0.312559 0.789057
C32   C     C_R   0.517263 0.491243 0.237863 -0.001266
C33   C     C_R   0.463470 0.548940 0.198131 -0.208609
C34   C     C_R   0.580275 0.438423 0.205841 -0.200058
C35   C     C_R   0.471994 0.553482 0.127549 -0.160795
C36   C     C_R   0.551201 0.551570 0.871647 -0.152692
C37   C     C_R   0.555198 0.550952 0.800513 -0.201918
C38   C     C_R   0.409869 0.480994 0.795138 -0.188990
C39   C     C_R   0.405421 0.482714 0.866139 -0.174353
C40   C     C_R   0.476635 0.516319 0.904766 0.201504
F1    F     F_    0.444860 0.992819 0.649497 -0.669372
H1    H     H_    0.415137 0.591272 0.221554 0.165054
H2    H     H_    0.999892 0.538403 0.359829 0.142554
H3    H     H_    0.836135 0.455799 0.626869 0.142454
H4    H     H_    0.854015 0.511093 0.410313 0.136307
H5    H     H_    0.354469 0.453510 0.766278 0.161533
H6    H     H_    0.404920 0.518922 0.001230 0.151997
H7    H     H_    0.637592 0.401940 0.110724 0.132877
H8    H     H_    0.605890 0.580257 0.900540 0.135578
H9    H     H_    0.623207 0.394124 0.235554 0.162192
H10   H     H_    0.606239 0.488120 0.998991 0.152076
H11   H     H_    0.430769 0.599898 0.098373 0.135644
H12   H     H_    0.347082 0.456246 0.891049 0.133182
H13   H     H_    0.143544 0.478474 0.587601 0.155147
H14   H     H_    0.161764 0.547478 0.372870 0.160292
H15   H     H_    0.528174 0.143644 0.414573 0.168572
H16   H     H_    0.441395 0.162217 0.622859 0.189980
H17   H     H_    0.553119 0.999040 0.365305 0.138763
H18   H     H_    0.554393 0.836704 0.377189 0.140259
H19   H     H_    0.481349 0.853409 0.588502 0.191396
H20   H     H_    0.998527 0.457699 0.638806 0.143343
H21   H     H_    0.613524 0.577758 0.775844 0.163126
O1    O     O_3   0.500000 0.500000 0.500000 -0.484834
O2    O     O_R   0.437070 0.459640 0.654640 -0.649017
O3    O     O_R   0.556790 0.436390 0.349710 -0.648088
O4    O     O_R   0.547170 0.557950 0.655150 -0.643461
O5    O     O_R   0.458970 0.546010 0.340500 -0.651524
O6    O     O_R   0.306870 0.560460 0.447950 -0.644158
O7    O     O_R   0.697260 0.434930 0.470830 -0.638845
O8    O     O_R   0.434240 0.306870 0.546470 -0.642844
O9    O     O_R   0.561630 0.697750 0.534750 -0.633537
O10   O     O_R   0.542340 0.296600 0.470110 -0.642478
O11   O     O_R   0.461800 0.698790 0.448670 -0.637768
O12   O     O_R   0.296600 0.461110 0.533510 -0.642581
O13   O     O_R   0.699270 0.543500 0.547710 -0.638809
Zn1   Zn    Zn3+2 0.433070 0.575010 0.435400 0.968768
Zn2   Zn    Zn3+2 0.418400 0.433070 0.557650 0.971772
Zn3   Zn    Zn3+2 0.575700 0.573520 0.558390 0.978031
Zn4   Zn    Zn3+2 0.572830 0.418400 0.448560 0.966843

loop_
_geom_bond_atom_site_label_1
_geom_bond_atom_site_label_2
_ccdc_geom_bond_type
C7    C10   A    
C14   H15   S    
C8    C13   A    
O3    Zn4   S    
C30   O2    A    
C27   C29   A    
O2    Zn2   S    
C28   O7    A    
C18   C26   A    
C2    C12   S    
C37   H21   S    
O1    Zn4   S    
C31   O5    A    
C12   C23   A    
C16   O12   A    
C33   H1    S    
C36   C37   A    
C19   C21   A    
O10   Zn4   S    
C5    C37   A    
C38   C39   A    
C27   H14   S    
O1    Zn1   S    
C31   O3    A    
C20   H20   S    
C24   C29   A    
C8    H17   S    
C6    C15   A    
C8    C9    A    
O12   Zn2   S    
C16   O6    A    
C5    C38   A    
C29   H2    S    
O8    Zn2   S    
C15   H16   S    
C4    C7    S    
C26   H13   S    
O4    Zn3   S    
C34   H9    S    
C1    O10   A    
C1    C6    S    
C36   C40   A    
C19   C22   A    
C24   C25   A    
C2    H10   S    
C39   C40   A    
C25   C26   A    
C9    H18   S    
C32   C34   A    
C10   H19   S    
C6    C14   A    
C21   H3    S    
C31   C32   S    
C23   C34   A    
C12   C35   A    
C19   C28   S    
C4    O11   A    
C30   O4    A    
C3    C40   S    
O11   Zn1   S    
C22   C24   A    
O7    Zn4   S    
C5    C30   S    
O1    Zn2   S    
C15   C17   A    
C11   C17   A    
C23   H7    S    
C18   C27   A    
O6    Zn1   S    
C1    O8    A    
C32   C33   A    
C2    C3    D    
C11   C13   A    
C39   H12   S    
C3    H6    S    
C33   C35   A    
O9    Zn3   S    
O13   Zn3   S    
C17   F1    S    
C38   H5    S    
C10   C11   A    
C7    C9    A    
C22   H4    S    
C20   C21   A    
C16   C18   S    
C20   C25   A    
C35   H11   S    
O5    Zn1   S    
C13   C14   A    
C28   O13   A    
C4    O9    A    
C36   H8    S    
O1    Zn3   S    
