data_mof_unit_51974.cif
_audit_creation_date              2013-03-05T15:49:19-0500
_audit_creation_method            fapswitch 2.2
_symmetry_space_group_name_H-M    P1
_symmetry_Int_Tables_number       1
_space_group_crystal_system       triclinic
_cell_length_a                    10.530596
_cell_length_b                    11.941671
_cell_length_c                    12.900057
_cell_angle_alpha                 93.216115
_cell_angle_beta                  89.926867
_cell_angle_gamma                 86.020379
_cell_volume                      1615.73768166

loop_
_atom_site_label
_atom_site_type_symbol
_atom_site_description
_atom_site_fract_x
_atom_site_fract_y
_atom_site_fract_z
_atom_type_partial_charge
O1    O     O_R   0.506170 0.421690 0.658830 -0.645921
O2    O     O_R   0.491330 0.609320 0.646410 -0.591744
C1    C     C_R   0.497804 0.522021 0.700549 0.863991
O3    O     O_R   0.690660 0.406170 0.506210 -0.633817
O4    O     O_R   0.675810 0.593790 0.493790 -0.570012
C2    C     C_R   0.742633 0.498879 0.496294 0.891681
Zn1   Zn    Zn3+2 0.509910 0.374720 0.508290 0.956767
Zn2   Zn    Zn3+2 0.490090 0.625280 0.491710 0.984412
O5    O     O_R   0.508670 0.390680 0.353590 -0.557081
O6    O     O_R   0.493830 0.578310 0.341170 -0.635831
O7    O     O_R   0.324190 0.406210 0.506210 -0.613488
O8    O     O_R   0.309340 0.593830 0.493790 -0.617311
C3    C     C_R   0.501318 0.477840 0.299331 0.935717
C4    C     C_R   0.264516 0.503298 0.525214 0.892433
H1    H     H_    0.870475 0.680075 0.530748 0.213976
C5    C     C_R   0.918945 0.288943 0.480582 -0.157253
H2    H     H_    0.839871 0.280062 0.428156 0.175775
C6    C     C_R   0.986860 0.190782 0.509990 0.194836
C7    C     C_R   0.091068 0.199477 0.575965 -0.176013
H3    H     H_    0.138513 0.124072 0.604950 0.155464
C8    C     C_R   0.134877 0.304793 0.604525 0.191610
C9    C     C_R   0.075012 0.402827 0.562711 0.063337
C10   C     C_R   0.956031 0.396357 0.515638 0.008105
C11   C     C_R   0.879593 0.498235 0.506612 -0.165860
C12   C     C_R   0.929677 0.602121 0.531383 -0.183178
C13   C     C_R   0.056089 0.607361 0.557935 0.173064
C14   C     C_R   0.132373 0.506047 0.559319 -0.156287
C15   C     C_R   0.499933 0.464280 0.187864 -0.200131
C16   C     C_R   0.495454 0.535164 0.811704 -0.054129
C17   C     C_R   0.510309 0.649506 0.970032 -0.187709
C18   C     C_R   0.506693 0.640620 0.862663 -0.184178
C19   C     C_R   0.485037 0.439231 0.867293 -0.245103
C20   C     C_R   0.489341 0.447171 0.973838 0.089439
C21   C     C_R   0.502696 0.552942 0.025579 0.187271
C22   C     C_R   0.508446 0.560538 0.132139 -0.358810
C23   C     C_R   0.486901 0.358815 0.136429 0.629201
C24   C     C_R   0.481643 0.350644 0.029156 -0.300200
H4    H     H_    0.519280 0.642052 0.171429 0.191284
H5    H     H_    0.520129 0.731041 0.009405 0.145648
H6    H     H_    0.471333 0.269318 0.989484 0.169086
H7    H     H_    0.514591 0.715295 0.819773 0.186866
H8    H     H_    0.474949 0.357649 0.827887 0.166269
N1    N     N_R   0.523130 0.207800 0.519340 -0.113967
N2    N     N_R   0.476870 0.792180 0.480660 -0.141683
C25   C     C_R   0.373811 0.956424 0.409968 -0.314189
C26   C     C_R   0.387353 0.839574 0.417373 -0.106284
C27   C     C_R   0.555152 0.857059 0.538710 0.685446
C28   C     C_R   0.545654 0.975060 0.533360 -0.026440
C29   C     C_R   0.453545 0.025071 0.468003 0.011111
C30   C     C_R   0.444011 0.142850 0.462411 0.027071
C31   C     C_R   0.612469 0.160766 0.582905 -0.019335
C32   C     C_R   0.625313 0.044108 0.591313 -0.273218
H9    H     H_    0.374026 0.182976 0.412594 0.159733
H10   H     H_    0.674327 0.214022 0.627020 0.151967
H11   H     H_    0.301857 0.992637 0.359421 0.171633
H12   H     H_    0.697179 0.008561 0.642263 0.192020
H13   H     H_    0.325782 0.786467 0.372801 0.167415
F1    F     F_    0.641588 0.806881 0.602242 -0.687313
C33   C     C_3   0.946045 0.076713 0.475203 -0.909442
H14   H     H_    0.860505 0.082723 0.424975 0.252023
H15   H     H_    0.024514 0.029009 0.430724 0.241851
H16   H     H_    0.923108 0.029811 0.543979 0.244584
C34   C     C_3   0.235621 0.310131 0.687253 -0.864083
H17   H     H_    0.325199 0.264153 0.658926 0.258307
H18   H     H_    0.254360 0.397921 0.711800 0.225688
H19   H     H_    0.203074 0.269796 0.757148 0.227067
C35   C     C_3   0.104861 0.721066 0.585696 -0.852030
H20   H     H_    0.195251 0.713652 0.629795 0.245184
H21   H     H_    0.118968 0.766228 0.514079 0.243315
H22   H     H_    0.034955 0.771997 0.636576 0.236094
F2    F     F_    0.477361 0.264420 0.189134 -0.664699

loop_
_geom_bond_atom_site_label_1
_geom_bond_atom_site_label_2
_geom_bond_distance
_ccdc_geom_bond_type
C29   C30   1.408988 A    
O4    Zn2   1.966276 S    
C10   C11   1.421899 A    
C23   F2    1.358139 S    
N1    C30   1.364705 A    
Zn1   N1    2.001592 S    
C4    C14   1.456544 S    
C5    C10   1.416779 A    
C7    H3    1.084476 S    
N2    C27   1.365915 A    
C25   C29   1.402065 A    
Zn2   O8    1.965945 S    
C35   H22   1.111059 S    
C2    C11   1.448096 S    
C19   C20   1.373412 A    
C31   H10   1.081882 S    
C34   H18   1.109005 S    
O2    C1    1.284964 A    
C34   H19   1.110546 S    
C25   C26   1.401398 A    
C33   H14   1.110923 S    
C3    C15   1.438170 S    
C5    C6    1.401327 A    
C8    C9    1.424136 A    
C22   H4    1.085193 S    
C27   F1    1.356666 S    
Zn1   O7    1.966276 S    
N1    C31   1.361337 A    
C13   C14   1.406042 A    
C17   C18   1.383945 A    
C23   C24   1.383248 A    
O3    Zn1   1.965948 S    
C13   C35   1.509446 S    
C5    H2    1.080574 S    
Zn2   O6    1.990464 S    
C28   C29   1.409431 A    
C7    C8    1.399715 A    
O8    C4    1.294384 A    
C17   H5    1.084125 S    
C20   C21   1.411017 A    
C24   H6    1.084369 S    
C9    C14   1.412617 A    
C26   H13   1.081799 S    
O4    C2    1.293936 A    
C21   C22   1.374213 A    
O7    C4    1.290647 A    
O2    Zn2   2.015308 S    
C8    C34   1.507689 S    
C30   H9    1.082818 S    
C16   C19   1.395742 A    
C17   C21   1.398216 A    
O3    C2    1.281169 A    
C35   H20   1.110333 S    
C27   C28   1.411307 A    
C32   H12   1.083001 S    
C6    C33   1.501591 S    
C28   C32   1.403889 A    
C1    C16   1.433692 S    
C31   C32   1.400582 A    
C11   C12   1.402156 A    
C25   H11   1.083399 S    
H1    C12   1.084258 S    
C16   C18   1.400016 A    
C6    C7    1.395577 A    
C33   H15   1.110557 S    
Zn1   O5    2.015307 S    
O5    C3    1.284498 A    
C9    C10   1.398100 A    
C15   C23   1.405597 A    
C33   H16   1.110485 S    
C19   H8    1.085236 S    
C18   H7    1.083406 S    
O1    C1    1.282875 A    
C12   C13   1.379729 A    
O1    Zn1   1.990464 S    
C20   C24   1.396294 A    
Zn2   N2    2.001355 S    
C15   C22   1.397488 A    
N2    C26   1.362066 A    
C34   H17   1.108853 S    
C35   H21   1.110464 S    
O6    C3    1.284952 A    
