data_mof_unit_35361.cif
_audit_creation_date              2012-12-10T16:56:34-0500
_audit_creation_method            fapswitch 2.2
_symmetry_space_group_name_H-M    P1
_symmetry_Int_Tables_number       1
_space_group_crystal_system       triclinic
_cell_length_a                    7.844194
_cell_length_b                    8.555904
_cell_length_c                    15.708335
_cell_angle_alpha                 91.718908
_cell_angle_beta                  85.773454
_cell_angle_gamma                 93.28972
_cell_volume                      1049.30066141

loop_
_atom_site_label
_atom_site_type_symbol
_atom_type_description
_atom_site_fract_x
_atom_site_fract_y
_atom_site_fract_z
_atom_type_partial_charge
C1    C     C_R   0.545207 0.794305 0.497913 0.964778
C2    C     C_3   0.371596 0.396912 0.028821 -0.236500
C3    C     C_1   0.507195 0.501015 0.750302 -0.146079
C4    C     C_1   0.492805 0.498985 0.249698 -0.146079
C5    C     C_3   0.351296 0.542952 0.975368 -0.000199
C6    C     C_3   0.648704 0.457048 0.024632 -0.000199
C7    C     C_3   0.507380 0.501034 0.916443 0.075108
C8    C     C_3   0.492620 0.498966 0.083557 0.075108
C9    C     C_1   0.509823 0.501266 0.825456 -0.024132
C10   C     C_1   0.490177 0.498734 0.174544 -0.024131
C11   C     C_1   0.436671 0.800072 0.066641 0.195859
C12   C     C_R   0.454792 0.205695 0.502087 0.964777
C13   C     C_1   0.563329 0.199927 0.933359 0.195859
C14   C     C_1   0.808940 0.407487 0.055179 0.201508
C15   C     C_1   0.191060 0.592513 0.944821 0.201508
C16   C     C_1   0.025664 0.351682 0.420029 0.410779
C17   C     C_1   0.974336 0.648318 0.579971 0.410779
C18   C     C_R   0.502099 0.500509 0.661681 0.903450
C19   C     C_R   0.497901 0.499491 0.338319 0.903450
C20   C     C_2   0.569051 0.957752 0.496710 -0.360906
C21   C     C_2   0.430949 0.042248 0.503290 -0.360907
C22   C     C_3   0.470455 0.643389 0.030891 -0.010854
C23   C     C_3   0.529545 0.356611 0.969109 -0.010854
C24   C     C_3   0.628404 0.603088 0.971179 -0.236500
H1    H     H_    0.730764 0.688053 0.946267 0.183564
H2    H     H_    0.269236 0.311947 0.053733 0.183564
H3    H     H_    0.699818 0.008005 0.490410 0.183810
H4    H     H_    0.300182 0.991995 0.509590 0.183810
N1    N     N_2   0.950320 0.457950 0.477300 -0.158641
N2    N     N_2   0.049680 0.542050 0.522700 -0.158641
N3    N     N_1   0.410019 0.923507 0.094864 -0.195190
N4    N     N_1   0.589981 0.076493 0.905136 -0.195190
N5    N     N_1   0.934547 0.368014 0.079857 -0.211757
N6    N     N_1   0.065453 0.631986 0.920142 -0.211757
N7    N     N_1   0.086586 0.262275 0.371851 -0.237181
N8    N     N_1   0.913414 0.737725 0.628149 -0.237181
O1    O     O_R   0.389250 0.738570 0.505570 -0.623584
O2    O     O_R   0.610750 0.261430 0.494430 -0.623584
O3    O     O_R   0.678390 0.711630 0.491020 -0.632690
O4    O     O_R   0.321610 0.288370 0.508980 -0.632690
O5    O     O_R   0.355460 0.513480 0.630490 -0.618488
O6    O     O_R   0.644540 0.486520 0.369510 -0.618488
O7    O     O_R   0.644600 0.486540 0.615950 -0.622981
O8    O     O_R   0.355400 0.513460 0.384050 -0.622980
Zn1   Zn    Zn3+2 0.306940 0.517990 0.509710 0.960324
Zn2   Zn    Zn3+2 0.693060 0.482010 0.490290 0.960323

loop_
_geom_bond_atom_site_label_1
_geom_bond_atom_site_label_2
_ccdc_geom_bond_type
C12   O4    A    
C8    C22   S    
N1    N2    D    
C3    C9    T    
C20   H3    S    
C6    C14   S    
N2    Zn1   S    
C19   O6    A    
C1    O1    A    
N1    Zn2   S    
C6    C24   S    
C20   C21   D    
C14   N5    T    
C13   N4    T    
C11   N3    T    
C2    H2    S    
C18   O7    A    
C24   H1    S    
C17   N2    S    
O3    Zn2   S    
C7    C23   S    
C6    C23   S    
C5    C22   S    
C17   N8    T    
C21   H4    S    
C5    C7    S    
C16   N7    T    
C12   O2    A    
O4    Zn1   S    
O7    Zn2   S    
C22   C24   S    
O2    Zn2   S    
C2    C5    S    
C5    C15   S    
C1    O3    A    
O1    Zn1   S    
C7    C24   S    
C19   O8    A    
C13   C23   S    
C3    C18   S    
C8    C10   S    
O6    Zn2   S    
C18   O5    A    
C2    C23   S    
C7    C9    S    
O5    Zn1   S    
C1    C20   S    
C6    C8    S    
C11   C22   S    
C15   N6    T    
C16   N1    S    
C4    C19   S    
C4    C10   T    
C12   C21   S    
C2    C8    S    
O8    Zn1   S    
