data_mof_unit_65998.cif
_audit_creation_date              2012-12-10T16:52:42-0500
_audit_creation_method            fapswitch 2.2
_symmetry_space_group_name_H-M    P1
_symmetry_Int_Tables_number       1
_space_group_crystal_system       triclinic
_cell_length_a                    23.527506
_cell_length_b                    30.809728
_cell_length_c                    19.142133
_cell_angle_alpha                 89.999983
_cell_angle_beta                  126.435424
_cell_angle_gamma                 90.000015
_cell_volume                      11163.3509159

loop_
_atom_site_label
_atom_site_type_symbol
_atom_type_description
_atom_site_fract_x
_atom_site_fract_y
_atom_site_fract_z
_atom_type_partial_charge
C1    C     C_R   0.804388 0.190688 0.118957 0.944320
C2    C     C_R   0.359239 0.749690 0.999578 0.897413
C3    C     C_R   0.359238 0.250302 0.999576 0.898083
C4    C     C_R   0.640761 0.749690 0.000422 0.897413
C5    C     C_R   0.140762 0.750302 0.000423 0.898084
C6    C     C_R   0.859239 0.249690 0.999578 0.897413
C7    C     C_R   0.859238 0.750302 0.999576 0.898082
C8    C     C_R   0.140761 0.249690 0.000422 0.897414
C9    C     C_1   0.580751 0.251067 0.000759 -0.161392
C10   C     C_1   0.419251 0.748906 0.999243 -0.161818
C11   C     C_1   0.419249 0.251067 0.999240 -0.161392
C12   C     C_R   0.195744 0.809351 0.881127 0.944436
C13   C     C_1   0.580749 0.748906 0.000757 -0.161818
C14   C     C_1   0.080751 0.751067 0.000759 -0.161392
C15   C     C_1   0.919251 0.248906 0.999243 -0.161819
C16   C     C_1   0.919249 0.751067 0.999240 -0.161392
C17   C     C_1   0.080749 0.248906 0.000757 -0.161818
C18   C     C_1   0.529801 0.251406 0.000374 0.024343
C19   C     C_1   0.470199 0.748553 0.999627 0.023833
C20   C     C_1   0.470199 0.251407 0.999626 0.024343
C21   C     C_1   0.529801 0.748553 0.000374 0.023833
C22   C     C_1   0.029801 0.751406 0.000374 0.024343
C23   C     C_R   0.195612 0.190688 0.881043 0.944321
C24   C     C_1   0.970199 0.248553 0.999627 0.023833
C25   C     C_1   0.970199 0.751406 0.999626 0.024343
C26   C     C_1   0.029801 0.248553 0.000374 0.023832
C27   C     C_2   0.831875 0.087562 0.242746 -0.107634
C28   C     C_2   0.126679 0.870806 0.673751 -0.110688
C29   C     C_2   0.168125 0.087562 0.757254 -0.107634
C30   C     C_2   0.873318 0.870806 0.326248 -0.110686
C31   C     C_2   0.331875 0.587562 0.242746 -0.107634
C32   C     C_2   0.626680 0.370806 0.673751 -0.110687
C33   C     C_2   0.668125 0.587563 0.757254 -0.107633
C34   C     C_R   0.804256 0.809351 0.118873 0.944435
C35   C     C_2   0.373319 0.370806 0.326248 -0.110687
C36   C     C_2   0.903581 0.084268 0.297885 -0.260238
C37   C     C_2   0.080154 0.899187 0.669038 -0.256022
C38   C     C_2   0.096419 0.084268 0.702114 -0.260237
C39   C     C_2   0.919847 0.899186 0.330964 -0.256026
C40   C     C_2   0.403581 0.584268 0.297885 -0.260237
C41   C     C_2   0.580154 0.399186 0.669037 -0.256023
C42   C     C_2   0.596420 0.584268 0.702115 -0.260239
C43   C     C_2   0.419846 0.399186 0.330963 -0.256024
C44   C     C_2   0.798390 0.118373 0.170043 0.006574
C45   C     C_R   0.304388 0.690688 0.118957 0.944320
C46   C     C_2   0.154711 0.834438 0.735400 0.004503
C47   C     C_2   0.201610 0.118373 0.829957 0.006573
C48   C     C_2   0.845286 0.834438 0.264598 0.004504
C49   C     C_2   0.298390 0.618373 0.170043 0.006573
C50   C     C_2   0.654712 0.334438 0.735401 0.004503
C51   C     C_2   0.701610 0.618374 0.829956 0.006573
C52   C     C_2   0.345288 0.334438 0.264599 0.004504
C53   C     C_2   0.825406 0.158750 0.185648 -0.364700
C54   C     C_2   0.176077 0.842504 0.816874 -0.364750
C55   C     C_2   0.174594 0.158750 0.814352 -0.364700
C56   C     C_R   0.695744 0.309351 0.881127 0.944435
C57   C     C_2   0.823924 0.842504 0.183126 -0.364749
C58   C     C_2   0.325406 0.658750 0.185648 -0.364701
C59   C     C_2   0.676077 0.342504 0.816874 -0.364750
C60   C     C_2   0.674594 0.658750 0.814352 -0.364701
C61   C     C_2   0.323923 0.342504 0.183126 -0.364750
C62   C     C_R   0.442712 0.438539 0.383941 0.868277
C63   C     C_R   0.560715 0.557961 0.623068 0.897778
C64   C     C_R   0.557288 0.438539 0.616059 0.868277
C65   C     C_R   0.439285 0.557961 0.376932 0.897778
C66   C     C_R   0.942712 0.938538 0.383941 0.868276
C67   C     C_R   0.695612 0.690688 0.881043 0.944320
C68   C     C_R   0.060715 0.057961 0.623068 0.897779
C69   C     C_R   0.057288 0.938539 0.616059 0.868278
C70   C     C_R   0.939285 0.057961 0.376932 0.897779
C71   C     C_1   0.785287 0.062174 0.252989 0.238936
C72   C     C_1   0.151473 0.874953 0.620407 0.239425
C73   C     C_1   0.214712 0.062174 0.747011 0.238936
C74   C     C_1   0.848519 0.874956 0.379586 0.239428
C75   C     C_1   0.285287 0.562174 0.252989 0.238936
C76   C     C_1   0.651476 0.374954 0.620409 0.239426
C77   C     C_1   0.714713 0.562176 0.747008 0.238938
C78   C     C_R   0.304256 0.309351 0.118873 0.944436
C79   C     C_1   0.348523 0.374955 0.379589 0.239426
C80   C     C_2   0.949658 0.102610 0.275175 0.942298
C81   C     C_2   0.042134 0.888879 0.707864 0.939358
C82   C     C_2   0.050341 0.102611 0.724825 0.942299
C83   C     C_2   0.957870 0.888876 0.292144 0.939359
C84   C     C_2   0.449658 0.602610 0.275175 0.942299
C85   C     C_2   0.542133 0.388878 0.707861 0.939359
C86   C     C_2   0.550342 0.602609 0.724828 0.942299
C87   C     C_2   0.457867 0.388877 0.292140 0.939360
C88   C     C_1   0.737904 0.104136 0.085393 0.272081
C89   C     C_R   0.640762 0.250302 0.000423 0.898083
C90   C     C_1   0.158241 0.791785 0.706106 0.274374
C91   C     C_1   0.262095 0.104136 0.914607 0.272083
C92   C     C_1   0.841749 0.791786 0.293889 0.274367
C93   C     C_1   0.237904 0.604136 0.085393 0.272082
C94   C     C_1   0.658244 0.291785 0.706107 0.274372
C95   C     C_1   0.762097 0.604137 0.914606 0.272081
C96   C     C_1   0.341755 0.291785 0.293892 0.274371
H1    H     H_    0.865782 0.168924 0.252117 0.158266
H2    H     H_    0.993486 0.843876 0.731999 0.349169
H3    H     H_    0.035747 0.113637 0.817106 0.349987
H4    H     H_    0.006519 0.843870 0.268015 0.349170
H5    H     H_    0.464253 0.613637 0.182893 0.349987
H6    H     H_    0.493484 0.343874 0.731994 0.349170
H7    H     H_    0.535750 0.613634 0.817111 0.349987
H8    H     H_    0.506517 0.343873 0.268008 0.349170
H9    H     H_    0.179264 0.875860 0.837605 0.158220
H10   H     H_    0.134218 0.168924 0.747883 0.158266
H11   H     H_    0.820741 0.875860 0.162396 0.158220
H12   H     H_    0.365782 0.668924 0.252117 0.158266
H13   H     H_    0.679262 0.375860 0.837604 0.158220
H14   H     H_    0.634217 0.668924 0.747883 0.158266
H15   H     H_    0.320738 0.375860 0.162396 0.158220
H16   H     H_    0.964253 0.113637 0.182893 0.349987
N1    N     N_1   0.747968 0.041946 0.260881 -0.174653
N2    N     N_1   0.161039 0.757791 0.682567 -0.176430
N3    N     N_1   0.310378 0.092699 0.982059 -0.182446
N4    N     N_1   0.838946 0.757793 0.317425 -0.176430
N5    N     N_1   0.189622 0.592700 0.017941 -0.182446
N6    N     N_1   0.661044 0.257792 0.682570 -0.176430
N7    N     N_1   0.810380 0.592700 0.982058 -0.182446
N8    N     N_1   0.338955 0.257792 0.317429 -0.176430
N9    N     N_1   0.171253 0.878133 0.577860 -0.164391
N10   N     N_1   0.252032 0.041946 0.739120 -0.174653
N11   N     N_1   0.828736 0.878136 0.422129 -0.164393
N12   N     N_1   0.247968 0.541946 0.260881 -0.174653
N13   N     N_1   0.671256 0.378134 0.577864 -0.164392
N14   N     N_1   0.752032 0.541949 0.739115 -0.174652
N15   N     N_1   0.328742 0.378134 0.422134 -0.164392
N16   N     N_1   0.689622 0.092700 0.017941 -0.182446
O1    O     O_R   0.820770 0.230320 0.141550 -0.617978
O2    O     O_R   0.230290 0.820740 0.960580 -0.617490
O3    O     O_R   0.230290 0.179260 0.960580 -0.601872
O4    O     O_R   0.769710 0.820740 0.039420 -0.617490
O5    O     O_R   0.269710 0.679260 0.039420 -0.601871
O6    O     O_R   0.730290 0.320740 0.960580 -0.617490
O7    O     O_R   0.730290 0.679260 0.960580 -0.601870
O8    O     O_R   0.269710 0.320740 0.039420 -0.617490
O9    O     O_R   0.692770 0.275550 0.051090 -0.611673
O10   O     O_R   0.307230 0.724450 0.948910 -0.609630
O11   O     O_R   0.307230 0.275550 0.948910 -0.611674
O12   O     O_R   0.179230 0.769680 0.858450 -0.602341
O13   O     O_R   0.692770 0.724450 0.051090 -0.609628
O14   O     O_R   0.192770 0.775550 0.051090 -0.611674
O15   O     O_R   0.807230 0.224450 0.948910 -0.609629
O16   O     O_R   0.807230 0.775550 0.948910 -0.611674
O17   O     O_R   0.192770 0.224450 0.051090 -0.609629
O18   O     O_R   0.641720 0.224490 0.948960 -0.609859
O19   O     O_R   0.358280 0.775510 0.051040 -0.612722
O20   O     O_R   0.358280 0.224490 0.051040 -0.609859
O21   O     O_R   0.641720 0.775510 0.948960 -0.612722
O22   O     O_R   0.141720 0.724490 0.948960 -0.609859
O23   O     O_R   0.179230 0.230320 0.858450 -0.617979
O24   O     O_R   0.858280 0.275510 0.051040 -0.612722
O25   O     O_R   0.858280 0.724490 0.051040 -0.609859
O26   O     O_R   0.141720 0.275510 0.948960 -0.612722
O27   O     O_R   0.501540 0.454790 0.409570 -0.593975
O28   O     O_R   0.498460 0.545210 0.590430 -0.583355
O29   O     O_R   0.498460 0.454790 0.590430 -0.593975
O30   O     O_R   0.501540 0.545210 0.409570 -0.583356
O31   O     O_R   0.001540 0.954790 0.409570 -0.593973
O32   O     O_R   0.998460 0.045210 0.590430 -0.583356
O33   O     O_R   0.998460 0.954790 0.590430 -0.593976
O34   O     O_R   0.820770 0.769680 0.141550 -0.602340
O35   O     O_R   0.001540 0.045210 0.409570 -0.583356
O36   O     O_R   0.408080 0.454790 0.409570 -0.617101
O37   O     O_R   0.591920 0.545210 0.590430 -0.607144
O38   O     O_R   0.591920 0.454790 0.590430 -0.617101
O39   O     O_R   0.408080 0.545210 0.409570 -0.607143
O40   O     O_R   0.908080 0.954790 0.409570 -0.617101
O41   O     O_R   0.091920 0.045210 0.590430 -0.607144
O42   O     O_R   0.091920 0.954790 0.590430 -0.617101
O43   O     O_R   0.908080 0.045210 0.409570 -0.607143
O44   O     O_2   0.006419 0.119145 0.331621 -0.603851
O45   O     O_R   0.320770 0.730320 0.141550 -0.617978
O46   O     O_R   0.928622 0.100083 0.189863 -0.775910
O47   O     O_2   0.030541 0.917641 0.741939 -0.598771
O48   O     O_R   0.018405 0.846631 0.703519 -0.781921
O49   O     O_2   0.993581 0.119146 0.668378 -0.603852
O50   O     O_R   0.071378 0.100083 0.810136 -0.775909
O51   O     O_2   0.969467 0.917636 0.258070 -0.598769
O52   O     O_R   0.981598 0.846627 0.296491 -0.781919
O53   O     O_2   0.506419 0.619145 0.331621 -0.603851
O54   O     O_R   0.428622 0.600083 0.189863 -0.775910
O55   O     O_2   0.530539 0.417639 0.741936 -0.598771
O56   O     O_R   0.679230 0.269680 0.858450 -0.602340
O57   O     O_R   0.518404 0.346629 0.703515 -0.781921
O58   O     O_2   0.493581 0.619144 0.668382 -0.603851
O59   O     O_R   0.571381 0.600081 0.810140 -0.775908
O60   O     O_2   0.469462 0.417638 0.258065 -0.598771
O61   O     O_R   0.481596 0.346629 0.296486 -0.781920
O62   O     O_R   0.679230 0.730320 0.858450 -0.617980
O63   O     O_R   0.320770 0.269680 0.141550 -0.602341
O64   O     O_R   0.769710 0.179260 0.039420 -0.601871
Zn1   Zn    Zn3+2 0.784110 0.284120 0.068220 1.006528
Zn2   Zn    Zn3+2 0.062380 0.000000 0.499980 1.063542
Zn3   Zn    Zn3+2 0.437620 0.500000 0.500020 1.063542
Zn4   Zn    Zn3+2 0.562380 0.500000 0.499980 1.063541
Zn5   Zn    Zn3+2 0.215890 0.715880 0.931780 1.029008
Zn6   Zn    Zn3+2 0.215890 0.284120 0.931780 1.006528
Zn7   Zn    Zn3+2 0.784110 0.715880 0.068220 1.029009
Zn8   Zn    Zn3+2 0.284110 0.784120 0.068220 1.006528
Zn9   Zn    Zn3+2 0.715890 0.215880 0.931780 1.029008
Zn10  Zn    Zn3+2 0.715890 0.784120 0.931780 1.006527
Zn11  Zn    Zn3+2 0.284110 0.215880 0.068220 1.029008
Zn12  Zn    Zn3+2 0.937620 1.000000 0.500020 1.063541

loop_
_geom_bond_atom_site_label_1
_geom_bond_atom_site_label_2
_ccdc_geom_bond_type
O31   Zn2   S    
H16   O46   S    
C37   C69   S    
C72   N9    T    
C40   C84   S    
O33   Zn12  S    
C8    O17   A    
C70   O43   A    
C70   O35   A    
O36   Zn3   S    
C27   C71   S    
C48   C57   D    
C62   O27   A    
C47   C91   S    
C4    O21   A    
C28   C46   S    
O63   Zn11  S    
O24   Zn1   S    
C29   C47   S    
C50   C59   D    
C81   O47   D    
C30   C48   S    
C84   O53   D    
C19   C21   S    
O38   Zn4   S    
C63   O28   A    
O18   Zn9   S    
C1    O1    A    
C52   C61   D    
O7    Zn7   S    
C30   C74   S    
C29   C73   S    
H4    O52   S    
O43   Zn12  S    
C31   C40   D    
C71   N1    T    
C4    C13   S    
C1    C53   S    
C7    O16   A    
C79   N15   T    
O27   Zn4   S    
C6    C15   S    
C27   C44   S    
O6    Zn1   S    
C62   O36   A    
C60   C67   S    
C22   C25   S    
C64   O29   A    
C34   C57   S    
C64   O38   A    
O64   Zn9   S    
C12   O12   A    
C42   C86   S    
O1    Zn1   S    
O3    Zn11  S    
C61   C78   S    
O22   Zn5   S    
O8    Zn6   S    
C46   C54   D    
C87   O61   S    
C6    O24   A    
C74   N11   T    
C34   O4    A    
C86   O59   S    
C85   O55   D    
C8    O26   A    
C38   C82   S    
O45   Zn8   S    
C76   N13   T    
O23   Zn6   S    
C37   C81   S    
O19   Zn8   S    
C28   C72   S    
C93   N5    T    
C31   C49   S    
O2    Zn8   S    
C44   C53   D    
C66   O31   A    
C36   C70   S    
C46   C90   S    
C85   O57   S    
C89   O18   A    
C11   C20   T    
O9    Zn1   S    
C45   C58   S    
C67   O62   A    
H6    O57   S    
C55   H10   S    
C23   O3    A    
C75   N12   T    
C2    O10   A    
C81   O48   S    
O28   Zn3   S    
C60   H14   S    
H3    O50   S    
C36   C80   S    
C9    C89   S    
C4    O13   A    
O42   Zn2   S    
C50   C94   S    
C56   O56   A    
O35   Zn2   S    
C53   H1    S    
C2    O19   A    
O34   Zn7   S    
O30   Zn4   S    
C49   C58   D    
O40   Zn12  S    
C29   C38   D    
C67   O7    A    
O12   Zn5   S    
O11   Zn6   S    
C32   C76   S    
C45   O45   A    
H2    O48   S    
C68   O41   A    
C31   C75   S    
C7    O25   A    
C63   O37   A    
C10   C19   T    
C32   C41   D    
C82   O50   S    
C13   C21   T    
C92   N4    T    
C32   C50   S    
C5    C14   S    
C87   O60   D    
C12   O2    A    
O16   Zn10  S    
C83   O52   S    
C7    C16   S    
O15   Zn9   S    
C38   C68   S    
C86   O58   D    
C89   O9    A    
C40   C65   S    
C77   N14   T    
C39   C66   S    
O39   Zn3   S    
C3    O11   A    
C17   C26   T    
C2    C10   S    
O37   Zn4   S    
C95   N7    T    
C35   C43   D    
C47   C55   D    
C16   C25   T    
C58   H12   S    
C33   C42   D    
C1    O64   A    
C15   C24   T    
O5    Zn5   S    
O56   Zn9   S    
C54   H9    S    
C57   H11   S    
O29   Zn3   S    
O14   Zn8   S    
C96   N8    T    
O62   Zn10  S    
C78   O63   A    
C24   C26   S    
C69   O33   A    
C65   O30   A    
C34   O34   A    
O32   Zn12  S    
C56   O6    A    
C23   C55   S    
O41   Zn2   S    
O25   Zn7   S    
C83   O51   D    
C27   C36   D    
C33   C51   S    
C41   C85   S    
C65   O39   A    
O4    Zn10  S    
C8    C17   S    
C56   C59   S    
C66   O40   A    
C43   C87   S    
C14   C22   T    
C84   O54   S    
C80   O46   S    
C88   N16   T    
C44   C88   S    
C94   N6    T    
C33   C77   S    
C5    O14   A    
C28   C37   D    
O26   Zn6   S    
H8    O61   S    
C42   C63   S    
C82   O49   D    
C35   C79   S    
C59   H13   S    
C91   N3    T    
C30   C39   D    
C52   C96   S    
C18   C20   S    
C69   O42   A    
C90   N2    T    
C45   O5    A    
C39   C83   S    
C3    C11   S    
C5    O22   A    
C23   O23   A    
O10   Zn5   S    
C9    C18   T    
C3    O20   A    
C43   C62   S    
C73   N10   T    
C48   C92   S    
O17   Zn11  S    
C35   C52   S    
C80   O44   D    
C51   C60   D    
O13   Zn7   S    
C41   C64   S    
C49   C93   S    
C6    O15   A    
C68   O32   A    
C78   O8    A    
O21   Zn10  S    
H7    O59   S    
C12   C54   S    
H5    O54   S    
O20   Zn11  S    
C51   C95   S    
C61   H15   S    
