data_mof_unit_37955.cif
_audit_creation_date              2012-12-10T20:38:15-0500
_audit_creation_method            fapswitch 2.2
_symmetry_space_group_name_H-M    P1
_symmetry_Int_Tables_number       1
_space_group_crystal_system       triclinic
_cell_length_a                    9.843151
_cell_length_b                    10.75615
_cell_length_c                    16.510815
_cell_angle_alpha                 90.207996
_cell_angle_beta                  84.93154
_cell_angle_gamma                 89.806204
_cell_volume                      1741.21403906

loop_
_atom_site_label
_atom_site_type_symbol
_atom_type_description
_atom_site_fract_x
_atom_site_fract_y
_atom_site_fract_z
_atom_type_partial_charge
C1    C     C_R   0.499784 0.739595 0.500974 0.897845
C2    C     C_R   0.357265 0.512547 0.790510 -0.206020
C3    C     C_R   0.427324 0.542759 0.131142 -0.184057
C4    C     C_R   0.425326 0.495790 0.210219 0.169373
C5    C     C_R   0.641993 0.602701 0.224652 0.505134
C6    C     C_R   0.639608 0.649589 0.146111 -0.270277
C7    C     C_R   0.531583 0.622363 0.100230 0.037739
C8    C     C_2   0.424364 0.683798 0.978346 -0.170476
C9    C     C_2   0.537705 0.664469 0.015879 -0.137795
C10   C     C_R   0.531626 0.529640 0.258283 -0.257150
C11   C     C_R   0.380870 0.938397 0.504850 -0.044272
C12   C     C_R   0.480585 0.506031 0.653586 0.876439
C13   C     C_R   0.501018 0.870778 0.502207 -0.076007
C14   C     C_R   0.625938 0.934921 0.499297 -0.193091
C15   C     C_R   0.626519 0.063953 0.498299 -0.200145
C16   C     C_R   0.502267 0.129221 0.499659 -0.106970
C17   C     C_R   0.382157 0.062748 0.501646 -0.046427
C18   C     C_3   0.229534 0.073433 0.505304 0.364797
C19   C     C_3   0.228295 0.929566 0.508614 -0.040126
C20   C     C_R   0.920210 0.566891 0.557044 0.203896
C21   C     C_R   0.937070 0.442019 0.440058 -0.121001
C22   C     C_R   0.081123 0.442155 0.440001 -0.092307
C23   C     C_R   0.500423 0.260410 0.499743 0.867850
C24   C     C_R   0.062992 0.566590 0.557072 0.258290
C25   C     C_3   0.056361 0.547300 0.646592 -0.499419
C26   C     C_3   0.902368 0.548010 0.646864 -0.524686
C27   C     C_R   0.519342 0.503108 0.345811 0.892743
C28   C     C_R   0.466383 0.550995 0.736827 -0.080523
C29   C     C_R   0.550286 0.648573 0.758207 -0.329193
C30   C     C_R   0.533609 0.701489 0.836357 0.577235
C31   C     C_R   0.427923 0.656467 0.891432 0.076969
C32   C     C_R   0.338100 0.565250 0.867553 -0.254918
H1    H     H_    0.624743 0.686005 0.712804 0.152712
H2    H     H_    0.721177 0.709578 0.121421 0.156159
H3    H     H_    0.722764 0.886344 0.497530 0.172653
H4    H     H_    0.723537 0.111617 0.496387 0.178762
H5    H     H_    0.187333 0.119373 0.562577 0.096166
H6    H     H_    0.191252 0.880828 0.455312 0.172316
H7    H     H_    0.889801 0.392567 0.392858 0.147312
H8    H     H_    0.142676 0.392749 0.392813 0.185716
H9    H     H_    0.098276 0.455573 0.663060 0.207972
H10   H     H_    0.096766 0.628173 0.678858 0.216509
H11   H     H_    0.855162 0.457047 0.664164 0.225500
H12   H     H_    0.854486 0.629822 0.679139 0.188361
H13   H     H_    0.636770 0.659486 0.981311 0.170310
H14   H     H_    0.257362 0.530134 0.910182 0.148245
H15   H     H_    0.350265 0.514527 0.092212 0.152444
H16   H     H_    0.288232 0.440950 0.773106 0.148269
H17   H     H_    0.325492 0.686125 0.013314 0.136131
N1    N     N_R   0.857140 0.500860 0.500530 -0.104053
N2    N     N_R   0.142780 0.500820 0.500530 -0.117275
O1    O     O_R   0.385310 0.683210 0.499990 -0.606407
O2    O     O_R   0.614650 0.683240 0.500000 -0.617765
O3    O     O_R   0.371780 0.500000 0.615800 -0.616869
O4    O     O_R   0.601120 0.500040 0.615800 -0.618505
O5    O     O_R   0.385350 0.316760 0.500000 -0.606377
O6    O     O_R   0.614690 0.316790 0.500010 -0.625417
O7    O     O_R   0.398880 0.499960 0.384200 -0.609466
O8    O     O_R   0.628220 0.500000 0.384200 -0.568146
Zn1   Zn    Zn3+2 0.346870 0.499980 0.499990 0.962817
Zn2   Zn    Zn3+2 0.653130 0.500020 0.500010 0.962314
O9    O     O_3   0.170708 0.123777 0.436468 -0.599548
C33   C     C_3   0.250247 0.105764 0.361694 -0.284229
H18   H     H_    0.275443 0.006319 0.349812 0.155346
H19   H     H_    0.344692 0.162154 0.359293 0.160263
H20   H     H_    0.190410 0.138120 0.311930 0.179609
N3    N     N_2   0.169520 0.881996 0.586112 -0.293364
H21   H     H_    0.214302 0.914113 0.636380 0.227741
C34   C     C_3   0.022063 0.884988 0.596503 -0.807533
H22   H     H_    0.985975 0.837708 0.654000 0.228454
H23   H     H_    0.978825 0.836197 0.545280 0.246566
H24   H     H_    0.984577 0.982568 0.599548 0.239017
N4    N     N_2   0.320010 0.413373 0.242268 -0.276905
H25   H     H_    0.354309 0.335590 0.270562 0.211753
C35   C     C_3   0.199040 0.394358 0.199928 -0.843975
H26   H     H_    0.122704 0.341464 0.239416 0.230151
H27   H     H_    0.224708 0.340039 0.143271 0.240932
H28   H     H_    0.152549 0.485104 0.185864 0.242389
O10   O     O_3   0.743476 0.641233 0.271899 -0.581343
C36   C     C_3   0.865937 0.579138 0.245382 -0.302646
H29   H     H_    0.852838 0.476307 0.246414 0.149383
H30   H     H_    0.943804 0.602444 0.287601 0.197013
H31   H     H_    0.905901 0.610147 0.183686 0.146482
O11   O     O_3   0.610279 0.802112 0.859636 -0.603658
C37   C     C_3   0.749073 0.791450 0.830331 -0.374581
H32   H     H_    0.765180 0.826055 0.766929 0.173844
H33   H     H_    0.788649 0.694764 0.834919 0.152077
H34   H     H_    0.809813 0.851408 0.868207 0.202926

loop_
_geom_bond_atom_site_label_1
_geom_bond_atom_site_label_2
_ccdc_geom_bond_type
C10   C27   S    
C8    C9    D    
C33   H19   S    
C9    H13   S    
N4    H25   S    
C26   H12   S    
C23   O5    A    
O3    Zn1   S    
C37   H32   S    
C11   C19   S    
C29   C30   A    
C12   C28   S    
C2    C32   A    
C28   C29   A    
C18   H5    S    
C3    C7    A    
C5    C6    A    
O7    Zn1   S    
C15   C16   A    
C29   H1    S    
C23   O6    A    
C18   C19   S    
C34   H23   S    
C1    O2    A    
C20   N1    A    
O1    Zn1   S    
O2    Zn2   S    
C20   C24   A    
C16   C17   A    
C19   N3    S    
C5    O10   S    
C24   N2    A    
C33   H20   S    
C13   C14   A    
N4    C35   S    
C36   H31   S    
C21   N1    A    
C35   H28   S    
C26   H11   S    
C37   H33   S    
O8    Zn2   S    
N3    H21   S    
O11   C37   S    
C36   H30   S    
C25   H9    S    
C14   H3    S    
C18   O9    S    
C2    H16   S    
C25   C26   S    
C33   H18   S    
C6    H2    S    
N3    C34   S    
C34   H24   S    
C35   H26   S    
O9    C33   S    
C19   H6    S    
C31   C32   A    
C21   H7    S    
C22   H8    S    
C17   C18   S    
C24   C25   S    
C35   H27   S    
C4    N4    S    
C16   C23   S    
C1    C13   S    
C4    C10   A    
C3    C4    A    
C15   H4    S    
C37   H34   S    
C7    C9    S    
C11   C17   A    
C8    C31   S    
C32   H14   S    
C36   H29   S    
C27   O7    A    
C25   H10   S    
O6    Zn2   S    
C6    C7    A    
C5    C10   A    
C27   O8    A    
C11   C13   A    
C30   C31   A    
C20   C26   S    
O4    Zn2   S    
C3    H15   S    
C30   O11   S    
C34   H22   S    
C1    O1    A    
C12   O4    A    
O10   C36   S    
O5    Zn1   S    
N1    Zn2   S    
C14   C15   A    
C2    C28   A    
N2    Zn1   S    
C21   C22   A    
C8    H17   S    
C12   O3    A    
C22   N2    A    
