data_mof_unit_58756.cif
_audit_creation_date              2012-10-26T21:08:09-0400
_audit_creation_method            fapswitch 2.2
_symmetry_space_group_name_H-M    P1
_symmetry_Int_Tables_number       1
_space_group_crystal_system       triclinic
_cell_length_a                    15.88053
_cell_length_b                    10.857854
_cell_length_c                    9.673221
_cell_angle_alpha                 89.265774
_cell_angle_beta                  90.258073
_cell_angle_gamma                 96.691695
_cell_volume                      1656.43237896

loop_
_atom_site_label
_atom_site_type_symbol
_atom_type_description
_atom_site_fract_x
_atom_site_fract_y
_atom_site_fract_z
_atom_type_partial_charge
C1    C     C_R   0.506816 0.263062 0.501236 0.552578
C2    C     C_R   0.473085 0.044823 0.875932 -0.149634
C3    C     C_R   0.420352 0.933223 0.859773 0.233142
C4    C     C_R   0.340123 0.498758 0.499706 0.541815
C5    C     C_R   0.418435 0.873231 0.731069 0.305379
C6    C     C_R   0.465575 0.931003 0.618607 -0.063734
C7    C     C_R   0.498886 0.056610 0.628229 -0.015973
C8    C     C_R   0.514082 0.127648 0.503672 -0.006971
C9    C     C_R   0.518713 0.064933 0.376446 -0.004277
C10   C     C_R   0.495550 0.937098 0.371659 0.204671
C11   C     C_R   0.478400 0.868267 0.495058 -0.007153
C12   C     C_3   0.083489 0.497126 0.498263 0.036728
C13   C     C_R   0.605284 0.694945 0.138204 0.307744
C14   C     C_R   0.633621 0.804426 0.065025 0.003942
C15   C     C_R   0.623883 0.807684 0.925049 -0.156491
C16   C     C_R   0.490995 0.735511 0.498694 0.615125
C17   C     C_R   0.598699 0.698608 0.855216 0.255432
C18   C     C_R   0.549645 0.595533 0.923954 0.140823
C19   C     C_R   0.550872 0.594797 0.073785 0.120942
C20   C     C_R   0.445963 0.418662 0.072462 0.077185
C21   C     C_R   0.449748 0.415826 0.925664 0.008132
C22   C     C_R   0.659779 0.499818 0.500305 0.585233
C23   C     C_3   0.972893 0.496099 0.630734 -0.019675
C24   C     C_3   0.963190 0.397204 0.434902 -0.015603
C25   C     C_3   0.027005 0.498885 0.368108 -0.000649
C26   C     C_1   0.250553 0.498370 0.499014 0.002567
C27   C     C_1   0.749267 0.499619 0.500894 -0.009755
C28   C     C_3   0.020423 0.393895 0.565489 -0.136710
C29   C     C_3   0.057710 0.501268 0.219302 -0.391219
C30   C     C_3   0.371139 0.342125 0.138436 -0.355439
C31   C     C_3   0.688019 0.911043 0.132024 -0.381954
C32   C     C_3   0.920874 0.283006 0.361914 -0.398265
C33   C     C_3   0.942525 0.495664 0.779548 -0.392354
C34   C     C_3   0.916107 0.498080 0.500996 0.058056
C35   C     C_3   0.550156 0.131539 0.244522 -0.346366
C36   C     C_3   0.036242 0.597056 0.563891 0.270424
C37   C     C_3   0.979949 0.598785 0.435151 0.259427
C38   C     C_1   0.175085 0.497881 0.498572 -0.008852
C39   C     C_1   0.824638 0.499193 0.501088 -0.014502
C40   C     C_R   0.515557 0.104531 0.762410 0.220493
Cu1   Cu    Cu3+1 0.499990 0.499990 0.640660 1.056618
Cu2   Cu    Cu3+1 0.500010 0.500010 0.359340 0.988444
H1    H     H_    0.652218 0.888933 0.868521 0.116291
H2    H     H_    0.434150 0.822824 0.246415 0.349325
H3    H     H_    0.342003 0.269483 0.067373 0.074549
H4    H     H_    0.387107 0.293297 0.233145 0.172624
H5    H     H_    0.321800 0.403097 0.161881 0.150600
H6    H     H_    0.697055 0.714197 0.270350 0.306466
H7    H     H_    0.664400 0.928374 0.236951 0.184281
H8    H     H_    0.754269 0.888519 0.140923 0.123359
H9    H     H_    0.689125 0.997862 0.069678 0.117291
H10   H     H_    0.667747 0.767600 0.697421 0.302239
H11   H     H_    0.969969 0.226559 0.324905 0.139299
H12   H     H_    0.407626 0.348684 0.869041 0.122537
H13   H     H_    0.877985 0.226653 0.434788 0.139536
H14   H     H_    0.883532 0.311842 0.272378 0.137287
H15   H     H_    0.012122 0.752620 0.339655 0.333552
H16   H     H_    0.029262 0.749159 0.659140 0.331094
H17   H     H_    0.997488 0.495394 0.850761 0.147373
H18   H     H_    0.910542 0.579521 0.797901 0.144423
H19   H     H_    0.897156 0.411690 0.799470 0.136399
H20   H     H_    0.570443 0.067917 0.166770 0.163270
H21   H     H_    0.498890 0.177244 0.195241 0.141018
H22   H     H_    0.606247 0.199724 0.266146 0.133135
H23   H     H_    0.037557 0.309126 0.618808 0.122092
H24   H     H_    0.583955 0.220199 0.882143 0.311995
H25   H     H_    0.480432 0.086039 0.976648 0.089142
H26   H     H_    0.002925 0.502839 0.147938 0.146779
H27   H     H_    0.103346 0.585240 0.200901 0.145748
H28   H     H_    0.089469 0.417448 0.199645 0.127805
H29   H     H_    0.376633 0.938338 0.046824 0.339466
H30   H     H_    0.338129 0.733716 0.795538 0.377090
N1    N     N_R   0.500800 0.501210 0.147910 -0.220986
N2    N     N_R   0.500830 0.501290 0.852040 -0.230627
O1    O     O_R   0.499990 0.319640 0.618810 -0.455990
O2    O     O_3   0.365152 0.765164 0.707983 -0.665133
O3    O     O_3   0.486465 0.882380 0.243803 -0.694541
O4    O     O_3   0.635049 0.688162 0.269647 -0.632566
O5    O     O_3   0.635290 0.688517 0.728740 -0.647794
O6    O     O_3   0.957755 0.705627 0.368973 -0.704984
O7    O     O_3   0.075875 0.701952 0.630319 -0.677334
O8    O     O_3   0.579508 0.200546 0.782311 -0.672527
O9    O     O_R   0.500000 0.319660 0.381240 -0.545924
O10   O     O_R   0.379070 0.499980 0.618770 -0.486415
O11   O     O_R   0.379080 0.500000 0.381190 -0.527038
O12   O     O_R   0.500000 0.680340 0.618760 -0.424521
O13   O     O_R   0.500010 0.680360 0.381190 -0.430029
O14   O     O_R   0.620920 0.500000 0.618810 -0.414388
O15   O     O_R   0.620930 0.500020 0.381230 -0.455026
O16   O     O_3   0.372502 0.879920 0.968477 -0.709570

loop_
_geom_bond_atom_site_label_1
_geom_bond_atom_site_label_2
_ccdc_geom_bond_type
C34   C37   S    
Cu1   Cu2   S    
C30   H3    S    
C14   C31   S    
H30   O2    S    
C7    C8    A    
C20   C30   S    
Cu1   O12   S    
C12   C28   S    
C3    O16   S    
C36   C37   S    
C5    C6    A    
Cu1   O1    S    
C1    C8    S    
C17   O5    S    
C18   C19   A    
H6    O4    S    
C25   C37   S    
Cu1   N2    S    
C27   C39   T    
C8    C9    A    
C23   C33   S    
C16   O13   A    
C7    C40   A    
C35   H22   S    
C22   O14   A    
C12   C36   S    
H10   O5    S    
C9    C10   A    
C32   H13   S    
C33   H17   S    
C13   C14   A    
C16   O12   A    
H15   O6    S    
C31   H7    S    
C10   O3    S    
C29   H27   S    
C25   C29   S    
C37   O6    S    
C13   C19   A    
C34   C39   S    
C1    O1    A    
C40   O8    S    
C30   H5    S    
C19   N1    A    
C24   C25   S    
C2    H25   S    
H16   O7    S    
C6    C11   A    
C26   C38   T    
C4    O11   A    
Cu1   O10   S    
C21   N2    A    
C24   C34   S    
C24   C32   S    
H24   O8    S    
C29   H26   S    
C11   C16   S    
C4    O10   A    
C36   O7    S    
C23   C34   S    
C17   C18   A    
Cu2   O11   S    
C23   C28   S    
C33   H19   S    
C33   H18   S    
C22   C27   S    
C31   H8    S    
C32   H11   S    
C29   H28   S    
C15   C17   A    
Cu1   O14   S    
C13   O4    S    
H2    O3    S    
Cu2   N1    S    
C30   H4    S    
Cu2   O9    S    
C24   C28   S    
C31   H9    S    
C3    C5    A    
C4    C26   S    
C6    C7    A    
C1    O9    A    
C12   C25   S    
Cu2   O15   S    
C5    O2    S    
C28   H23   S    
C15   H1    S    
C21   H12   S    
H29   O16   S    
C22   O15   A    
C20   N1    A    
C2    C3    A    
C35   H20   S    
C12   C38   S    
C10   C11   A    
C2    C40   A    
C20   C21   A    
C18   N2    A    
C23   C36   S    
C9    C35   S    
C14   C15   A    
C35   H21   S    
Cu2   O13   S    
C32   H14   S    
