data_mof_unit_15108.cif
_audit_creation_date              2012-10-26T21:21:04-0400
_audit_creation_method            fapswitch 2.2
_symmetry_space_group_name_H-M    P1
_symmetry_Int_Tables_number       1
_space_group_crystal_system       triclinic
_cell_length_a                    10.828848
_cell_length_b                    10.921915
_cell_length_c                    9.856083
_cell_angle_alpha                 92.19036
_cell_angle_beta                  92.930268
_cell_angle_gamma                 90.902478
_cell_volume                      1163.13843134

loop_
_atom_site_label
_atom_site_type_symbol
_atom_type_description
_atom_site_fract_x
_atom_site_fract_y
_atom_site_fract_z
_atom_type_partial_charge
C1    C     C_R   0.497755 0.265853 0.497768 0.578560
C2    C     C_2   0.483607 0.132932 0.493473 0.268667
C3    C     C_2   0.428844 0.428216 0.916947 0.389735
C4    C     C_R   0.262338 0.509877 0.496223 0.529892
C5    C     C_2   0.413753 0.445356 0.072861 0.423425
C6    C     C_R   0.506936 0.733987 0.502459 0.504559
C7    C     C_R   0.738251 0.494715 0.504296 0.522783
C8    C     C_R   0.127093 0.676640 0.689649 0.024114
C9    C     C_R   0.077145 0.704079 0.815289 -0.089409
C10   C     C_R   0.966881 0.647802 0.849702 0.210722
C11   C     C_R   0.903716 0.568842 0.754729 -0.062589
C12   C     C_R   0.070170 0.583363 0.601600 0.002389
C13   C     C_R   0.947861 0.545606 0.623929 -0.066010
C14   C     C_3   0.077033 0.535068 0.232332 -0.216097
C15   C     C_3   0.038865 0.445815 0.113279 -0.325819
C16   C     C_3   0.579706 0.595507 0.917392 -0.130879
C17   C     C_3   0.618022 0.710916 0.847528 -0.368335
C18   C     C_3   0.219551 0.768109 0.640096 -0.253806
C19   C     C_3   0.156964 0.890145 0.614128 -0.438102
C20   C     C_R   0.127555 0.534343 0.486741 -0.060701
C21   C     C_R   0.052834 0.489482 0.373130 0.048864
C22   C     C_R   0.932590 0.448787 0.395331 0.228607
C23   C     C_R   0.875113 0.487898 0.514064 -0.036675
C24   C     C_2   0.526956 0.929536 0.395715 -0.125441
C25   C     C_2   0.524814 0.865745 0.509058 -0.113610
C26   C     C_2   0.541959 0.063965 0.400859 0.241626
Cu1   Cu    Cu3+1 0.500020 0.500020 0.638630 0.984750
Cu2   Cu    Cu3+1 0.499980 0.499980 0.361370 1.065382
H1    H     H_    0.121342 0.773541 0.883602 0.093528
H2    H     H_    0.363752 0.143165 0.634780 0.351012
H3    H     H_    0.354799 0.266325 0.903244 0.299979
H4    H     H_    0.674882 0.691532 0.759481 0.194945
H5    H     H_    0.537624 0.770747 0.827387 0.148199
H6    H     H_    0.680278 0.766495 0.919924 0.135686
H7    H     H_    0.533136 0.640255 0.002483 0.109999
H8    H     H_    0.670070 0.554303 0.943134 0.183229
H9    H     H_    0.259064 0.354396 0.060833 0.290778
H10   H     H_    0.670534 0.517333 0.158153 0.360547
H11   H     H_    0.068625 0.874831 0.552903 0.152386
H12   H     H_    0.822966 0.523263 0.788360 0.166981
H13   H     H_    0.138198 0.938979 0.711607 0.155229
H14   H     H_    0.217449 0.948751 0.555736 0.203545
H15   H     H_    0.298007 0.782184 0.716518 0.165889
H16   H     H_    0.257229 0.737760 0.542669 0.151555
H17   H     H_    0.966511 0.736443 0.024167 0.317345
H18   H     H_    0.811184 0.320859 0.342630 0.362720
H19   H     H_    0.649804 0.054930 0.249441 0.322419
H20   H     H_    0.521214 0.883075 0.296070 0.128065
H21   H     H_    0.540580 0.910227 0.608956 0.156592
H22   H     H_    0.061820 0.350211 0.137957 0.189726
H23   H     H_    0.938309 0.451299 0.086747 0.228518
H24   H     H_    0.086898 0.471716 0.021499 0.133721
H25   H     H_    0.023328 0.619973 0.219674 0.134004
H26   H     H_    0.173991 0.564627 0.222786 0.182910
N1    N     N_2   0.498640 0.498660 0.846910 -0.194863
N2    N     N_2   0.498610 0.498630 0.153040 -0.097557
O1    O     O_R   0.500020 0.321960 0.617040 -0.469301
O2    O     O_3   0.361526 0.337283 0.844291 -0.681650
O3    O     O_3   0.313737 0.395015 0.132382 -0.691617
O4    O     O_3   0.609437 0.453713 0.124289 -0.611508
O5    O     O_3   0.914407 0.673847 0.971813 -0.757053
O6    O     O_3   0.871347 0.373085 0.297629 -0.687226
O7    O     O_3   0.613461 0.119669 0.307545 -0.693981
O8    O     O_R   0.499980 0.321920 0.382900 -0.404548
O9    O     O_R   0.319670 0.500020 0.617100 -0.452630
O10   O     O_R   0.319630 0.499980 0.382950 -0.471057
O11   O     O_R   0.500020 0.678080 0.617100 -0.539721
O12   O     O_R   0.499980 0.678040 0.382960 -0.515628
O13   O     O_R   0.680370 0.500020 0.617050 -0.538066
O14   O     O_R   0.680330 0.499980 0.382900 -0.468862
O15   O     O_3   0.406610 0.078711 0.582587 -0.780842

loop_
_geom_bond_atom_site_label_1
_geom_bond_atom_site_label_2
_ccdc_geom_bond_type
C7    O13   A    
Cu2   O10   S    
C26   O7    S    
C3    O2    S    
Cu1   O9    S    
C4    C20   S    
C18   H16   S    
C22   O6    S    
C9    C10   A    
C5    N2    D    
Cu1   O13   S    
C19   H14   S    
C9    H1    S    
C8    C12   A    
C12   C20   A    
C7    O14   A    
C6    O12   A    
H2    O15   S    
Cu2   N2    S    
C16   N1    S    
C19   H13   S    
C1    O1    A    
C2    C26   D    
C21   C22   A    
C16   H8    S    
C4    O10   A    
C12   C13   A    
C11   C13   A    
C13   C23   A    
H9    O3    S    
C19   H11   S    
H18   O6    S    
H10   O4    S    
Cu2   O8    S    
H3    O2    S    
H17   O5    S    
C6    O11   A    
C14   H26   S    
C24   C26   S    
C1    C2    S    
C8    C18   S    
C15   H23   S    
C22   C23   A    
C16   H7    S    
H19   O7    S    
C4    O9    A    
C7    C23   S    
C6    C25   S    
Cu1   O11   S    
C17   H6    S    
Cu1   N1    S    
C11   H12   S    
C10   O5    S    
C1    O8    A    
N2    O4    S    
C14   H25   S    
C24   C25   D    
C14   C21   S    
C18   C19   S    
C10   C11   A    
C15   H22   S    
C18   H15   S    
Cu1   Cu2   S    
C17   H4    S    
C5    O3    S    
C14   C15   S    
C8    C9    A    
C3    C5    S    
Cu1   O1    S    
C17   H5    S    
C20   C21   A    
C15   H24   S    
C3    N1    D    
Cu2   O14   S    
C2    O15   S    
C16   C17   S    
Cu2   O12   S    
C25   H21   S    
C24   H20   S    
