data_mof_unit_59288.cif
_audit_creation_date              2012-12-10T17:52:28-0500
_audit_creation_method            fapswitch 2.2
_symmetry_space_group_name_H-M    P1
_symmetry_Int_Tables_number       1
_space_group_crystal_system       triclinic
_cell_length_a                    18.881355
_cell_length_b                    10.604399
_cell_length_c                    9.97568
_cell_angle_alpha                 90.910011
_cell_angle_beta                  89.531252
_cell_angle_gamma                 93.472379
_cell_volume                      1993.41415157

loop_
_atom_site_label
_atom_site_type_symbol
_atom_type_description
_atom_site_fract_x
_atom_site_fract_y
_atom_site_fract_z
_atom_type_partial_charge
C1    C     C_R   0.513727 0.264956 0.499232 0.914057
C2    C     C_R   0.855490 0.600125 0.518378 -0.152647
C3    C     C_R   0.572151 0.139647 0.736715 -0.050567
C4    C     C_R   0.365517 0.507003 0.500643 0.811736
C5    C     C_R   0.566864 0.084295 0.862161 -0.058474
C6    C     C_R   0.531399 0.966506 0.875275 -0.105149
C7    C     C_R   0.506668 0.899714 0.761618 -0.150431
C8    C     C_R   0.519314 0.948349 0.630789 0.096685
C9    C     C_R   0.543626 0.075455 0.622114 0.043006
C10   C     C_R   0.536024 0.136429 0.499268 -0.189388
C11   C     C_R   0.535573 0.067218 0.379210 0.482985
C12   C     C_R   0.291309 0.539178 0.502643 -0.043672
C13   C     C_R   0.520361 0.938303 0.384435 -0.274497
C14   C     C_R   0.508802 0.878458 0.507848 -0.189858
C15   C     C_R   0.381002 0.388995 0.137217 -0.094379
C16   C     C_R   0.499836 0.741641 0.502224 0.910886
C17   C     C_R   0.315268 0.387765 0.071412 -0.077574
C18   C     C_R   0.315966 0.389994 0.931884 -0.260495
C19   C     C_R   0.380744 0.390487 0.863684 -0.028769
C20   C     C_R   0.442569 0.443553 0.928207 0.134284
C21   C     C_R   0.442432 0.443971 0.071906 0.137110
C22   C     C_R   0.554395 0.556250 0.071609 -0.010496
C23   C     C_R   0.932341 0.624503 0.515451 0.358235
C24   C     C_R   0.554449 0.556854 0.928139 -0.070026
C25   C     C_R   0.634747 0.503050 0.499789 0.947161
C26   C     C_R   0.254652 0.547073 0.624801 -0.195218
C27   C     C_R   0.185266 0.583058 0.628161 -0.130588
C28   C     C_R   0.151417 0.612229 0.508980 0.079871
C29   C     C_R   0.189104 0.610315 0.387283 -0.123764
C30   C     C_R   0.258851 0.575364 0.384496 -0.205785
C31   C     C_2   0.612481 0.624440 0.144202 0.542309
C32   C     C_2   0.387639 0.280841 0.225827 0.558898
C33   C     C_2   0.247561 0.355585 0.143713 0.416746
C34   C     C_R   0.075394 0.631472 0.510323 0.270326
C35   C     C_2   0.383449 0.284551 0.767576 0.562010
C36   C     C_2   0.611980 0.627899 0.854725 0.476746
C37   C     C_R   0.825968 0.504497 0.602679 0.350323
C38   C     C_R   0.753265 0.465481 0.590776 0.374820
C39   C     C_R   0.711204 0.528263 0.501389 -0.207752
C40   C     C_R   0.740542 0.625855 0.422440 -0.281693
C41   C     C_R   0.812054 0.662830 0.429481 0.425932
H1    H     H_    0.279642 0.526568 0.718033 0.157791
H2    H     H_    0.287348 0.577323 0.289935 0.157762
H3    H     H_    0.707059 0.677932 0.358791 0.220805
H4    H     H_    0.663479 0.583171 0.150990 0.094314
H5    H     H_    0.359491 0.275070 0.320960 0.002588
H6    H     H_    0.247525 0.337639 0.250404 0.045168
H7    H     H_    0.349237 0.279302 0.680509 0.015217
H8    H     H_    0.599663 0.685815 0.770942 0.102288
H9    H     H_    0.840799 0.423585 0.772503 0.360286
H10   H     H_    0.758949 0.304941 0.680415 0.345920
H11   H     H_    0.882142 0.799045 0.386167 0.343832
H12   H     H_    0.598096 0.233166 0.729701 0.191896
H13   H     H_    0.549212 0.063373 0.185308 0.339042
H14   H     H_    0.587523 0.135181 0.949710 0.157794
H15   H     H_    0.523033 0.926403 0.973699 0.144995
H16   H     H_    0.475624 0.813465 0.781231 0.168161
H17   H     H_    0.516693 0.885600 0.290743 0.210600
H18   H     H_    0.267608 0.361579 0.878565 0.186580
H19   H     H_    0.157720 0.584598 0.723766 0.170151
H20   H     H_    0.164519 0.634158 0.294063 0.169104
N1    N     N_R   0.038175 0.622969 0.394539 -0.152670
N2    N     N_R   0.967787 0.619364 0.397057 -0.140603
N3    N     N_R   0.969418 0.637389 0.630991 -0.078695
N4    N     N_R   0.039803 0.640720 0.628410 -0.153645
N5    N     N_R   0.499340 0.498800 0.142780 -0.142539
N6    N     N_R   0.499320 0.498720 0.857170 -0.167934
O1    O     O_R   0.500000 0.316780 0.614690 -0.619494
O2    O     O_2   0.419845 0.190833 0.186817 -0.536534
O3    O     O_2   0.190814 0.350369 0.085379 -0.536744
O4    O     O_2   0.418255 0.194810 0.793019 -0.558711
O5    O     O_2   0.674044 0.621152 0.885701 -0.573734
O6    O     O_3   0.869449 0.449685 0.692948 -0.729163
O7    O     O_3   0.722352 0.364994 0.661062 -0.772438
O8    O     O_3   0.836493 0.762488 0.350673 -0.709510
O9    O     O_3   0.550236 0.127065 0.259199 -0.698925
O10   O     O_R   0.499990 0.316750 0.385360 -0.553251
O11   O     O_R   0.398140 0.500000 0.614700 -0.641878
O12   O     O_R   0.398130 0.499970 0.385370 -0.650268
O13   O     O_R   0.500010 0.683250 0.614640 -0.670176
O14   O     O_R   0.500000 0.683220 0.385310 -0.575461
O15   O     O_R   0.601870 0.500030 0.614630 -0.600286
O16   O     O_R   0.601860 0.500000 0.385300 -0.639343
O17   O     O_2   0.604800 0.729632 0.191018 -0.608685
Zn1   Zn    Zn3+2 0.500000 0.500020 0.653130 0.942003
Zn2   Zn    Zn3+2 0.500000 0.499980 0.346870 0.991484

loop_
_geom_bond_atom_site_label_1
_geom_bond_atom_site_label_2
_ccdc_geom_bond_type
C21   N5    A    
C1    O10   A    
C20   N6    A    
C19   C20   A    
H10   O7    S    
H11   O8    S    
C7    C8    A    
C26   C27   A    
C29   C30   A    
C28   C29   A    
C37   C38   A    
C11   O9    S    
C5    C6    A    
C2    C41   A    
C34   N1    A    
C1    O1    A    
C18   C19   A    
C22   N5    A    
C24   N6    A    
C8    C9    A    
C4    C12   S    
C9    C10   A    
O14   Zn2   S    
C23   N2    A    
C35   O4    D    
C13   C14   A    
C3    H12   S    
O1    Zn1   S    
C17   C33   S    
C35   H7    S    
C34   N4    A    
C29   H20   S    
N6    Zn1   S    
C22   C31   S    
C15   C32   S    
C4    O12   A    
H9    O6    S    
C39   C40   A    
C13   H17   S    
C31   O17   D    
C12   C26   A    
C16   O13   A    
C4    O11   A    
O13   Zn1   S    
C3    C9    A    
C41   O8    S    
C40   H3    S    
N1    N2    A    
C17   C18   A    
C24   C36   S    
C32   O2    D    
C33   O3    D    
H13   O9    S    
O11   Zn1   S    
C23   N3    A    
O10   Zn2   S    
C25   O15   A    
C33   H6    S    
C14   C16   S    
C30   H2    S    
C2    C23   S    
C26   H1    S    
C38   O7    S    
C15   C17   A    
C37   O6    S    
C40   C41   A    
C8    C14   A    
C12   C30   A    
C32   H5    S    
C5    H14   S    
C1    C10   S    
C6    H15   S    
C3    C5    A    
N5    Zn2   S    
C6    C7    A    
O15   Zn1   S    
C27   H19   S    
N3    N4    A    
C19   C35   S    
C25   C39   S    
C11   C13   A    
C2    C37   A    
C38   C39   A    
C16   O14   A    
C22   C24   A    
C10   C11   A    
C28   C34   S    
C18   H18   S    
C15   C21   A    
O16   Zn2   S    
C20   C21   A    
C31   H4    S    
C27   C28   A    
C25   O16   A    
C7    H16   S    
O12   Zn2   S    
C36   H8    S    
C36   O5    D    
