data_mof_unit_33488.cif
_audit_creation_date              2012-12-10T16:53:30-0500
_audit_creation_method            fapswitch 2.2
_symmetry_space_group_name_H-M    P1
_symmetry_Int_Tables_number       1
_space_group_crystal_system       triclinic
_cell_length_a                    7.863339
_cell_length_b                    8.642733
_cell_length_c                    13.640269
_cell_angle_alpha                 92.952453
_cell_angle_beta                  78.968085
_cell_angle_gamma                 93.257509
_cell_volume                      907.621013924

loop_
_atom_site_label
_atom_site_type_symbol
_atom_type_description
_atom_site_fract_x
_atom_site_fract_y
_atom_site_fract_z
_atom_type_partial_charge
C1    C     C_R   0.544674 0.793829 0.498609 0.906045
C2    C     C_1   0.560266 0.475919 0.121554 0.057371
C3    C     C_2   0.561148 0.956132 0.512378 -0.262094
C4    C     C_2   0.438852 0.043867 0.487622 -0.262095
C5    C     C_2   0.289570 0.616024 0.045797 0.980166
C6    C     C_2   0.710438 0.383968 0.954204 0.980175
C7    C     C_1   0.693354 0.013999 0.568724 0.315514
C8    C     C_1   0.306646 0.986001 0.431276 0.315514
C9    C     C_2   0.039838 0.412195 0.377010 1.121314
C10   C     C_2   0.960161 0.587805 0.622989 1.121315
C11   C     C_R   0.455326 0.206170 0.501391 0.906043
C12   C     C_R   0.471191 0.504597 0.686613 0.881795
C13   C     C_R   0.528809 0.495402 0.313387 0.881796
C14   C     C_1   0.547541 0.484767 0.209515 -0.047709
C15   C     C_1   0.452459 0.515230 0.790485 -0.047705
C16   C     C_2   0.564729 0.468388 0.017398 -0.133170
C17   C     C_2   0.435279 0.531605 0.982601 -0.133164
C18   C     C_1   0.439737 0.524076 0.878445 0.057362
H1    H     H_    0.199810 0.743483 0.171451 0.371392
H2    H     H_    0.800218 0.256536 0.828539 0.371397
H3    H     H_    0.168165 0.247291 0.287371 0.326891
H4    H     H_    0.831832 0.752710 0.712628 0.326890
N1    N     N_2   0.954190 0.457600 0.473930 -0.195423
N2    N     N_2   0.045810 0.542400 0.526070 -0.195423
N3    N     N_1   0.798138 0.060541 0.613348 -0.130429
N4    N     N_1   0.201862 0.939460 0.386651 -0.130427
O1    O     O_R   0.388300 0.738660 0.506400 -0.630360
O2    O     O_R   0.307772 0.689324 0.137307 -0.789990
O3    O     O_2   0.845990 0.374468 0.984602 -0.562382
O4    O     O_R   0.692259 0.310702 0.862679 -0.789985
O5    O     O_2   0.042813 0.496974 0.307631 -0.611807
O6    O     O_R   0.112330 0.267361 0.359973 -0.809980
O7    O     O_2   0.957191 0.503028 0.692369 -0.611805
O8    O     O_R   0.887666 0.732639 0.640026 -0.809980
O9    O     O_R   0.611700 0.261340 0.493600 -0.630359
O10   O     O_R   0.679920 0.711490 0.489690 -0.589508
O11   O     O_R   0.320080 0.288510 0.510310 -0.589511
O12   O     O_R   0.333200 0.515510 0.649910 -0.605850
O13   O     O_R   0.666800 0.484490 0.350090 -0.605846
O14   O     O_R   0.624820 0.488340 0.633200 -0.612901
O15   O     O_R   0.375180 0.511660 0.366800 -0.612907
O16   O     O_2   0.154000 0.625493 0.015412 -0.562376
Zn1   Zn    Zn3+2 0.305280 0.518140 0.511160 1.021102
Zn2   Zn    Zn3+2 0.694720 0.481860 0.488840 1.021106

loop_
_geom_bond_atom_site_label_1
_geom_bond_atom_site_label_2
_ccdc_geom_bond_type
O11   Zn1   S    
C15   C18   T    
C5    O16   D    
C12   O14   A    
O13   Zn2   S    
O9    Zn2   S    
C5    O2    S    
C2    C16   S    
C7    N3    T    
C12   C15   S    
C4    C8    S    
N1    N2    D    
C13   O15   A    
C17   C18   S    
O12   Zn1   S    
C10   O8    S    
H2    O4    S    
C13   C14   S    
C4    C11   S    
H1    O2    S    
O15   Zn1   S    
C2    C14   T    
C11   O9    A    
C6    O4    S    
C10   O7    D    
C3    C7    S    
C12   O12   A    
C8    N4    T    
H4    O8    S    
H3    O6    S    
O10   Zn2   S    
C13   O13   A    
C9    O5    D    
C6    C16   S    
C3    C4    D    
O1    Zn1   S    
O14   Zn2   S    
C6    O3    D    
C5    C17   S    
C1    O1    A    
C11   O11   A    
N2    Zn1   S    
C9    N1    S    
C9    O6    S    
C10   N2    S    
N1    Zn2   S    
C1    O10   A    
C16   C17   D    
C1    C3    S    
