data_mof_unit_53159.cif
_audit_creation_date              2012-12-11T17:09:30-0500
_audit_creation_method            fapswitch 2.2
_symmetry_space_group_name_H-M    P1
_symmetry_Int_Tables_number       1
_space_group_crystal_system       triclinic
_cell_length_a                    14.807676
_cell_length_b                    6.951301
_cell_length_c                    13.517992
_cell_angle_alpha                 89.980454
_cell_angle_beta                  99.884045
_cell_angle_gamma                 90.0173
_cell_volume                      1370.78916916

loop_
_atom_site_label
_atom_site_type_symbol
_atom_type_description
_atom_site_fract_x
_atom_site_fract_y
_atom_site_fract_z
_atom_type_partial_charge
O1    O     O_R   0.586930 0.505770 0.416350 -0.539518
O2    O     O_R   0.413070 0.005770 0.583650 -0.537922
O3    O     O_R   0.397900 0.173100 0.389630 -0.537887
O4    O     O_R   0.602100 0.673100 0.610370 -0.537006
C1    C     C_R   0.364342 0.345404 0.362882 0.716433
C2    C     C_R   0.635276 0.845492 0.637616 0.715958
O5    O     O_R   0.585280 0.175870 0.404330 -0.540880
O6    O     O_R   0.414720 0.675870 0.595670 -0.544810
O7    O     O_R   0.601790 0.008380 0.598460 -0.531671
O8    O     O_R   0.398210 0.508380 0.401540 -0.533104
C3    C     C_R   0.614875 0.344865 0.383084 0.700693
C4    C     C_R   0.384443 0.844899 0.616056 0.697221
O9    O     O_3   0.505200 0.340120 0.563670 -0.368761
O10   O     O_3   0.494800 0.840120 0.436330 -0.368370
V1    V     V_3+5 0.499040 0.064180 0.488190 1.406407
V2    V     V_3+5 0.500960 0.564180 0.511810 1.405872
C5    C     C_R   0.305548 0.022017 0.739358 0.088189
C6    C     C_R   0.750517 0.502389 0.325564 0.107984
C7    C     C_R   0.316852 0.855117 0.685304 -0.102101
C8    C     C_R   0.685945 0.352928 0.317900 -0.140825
C9    C     C_R   0.258382 0.700921 0.695389 -0.200893
C10   C     C_R   0.694549 0.204028 0.249299 -0.181203
H1    H     H_    0.259386 0.579281 0.647376 0.147430
H2    H     H_    0.647594 0.083701 0.241669 0.129981
C11   C     C_R   0.193057 0.711098 0.759687 -0.183676
C12   C     C_R   0.760231 0.214617 0.185254 -0.172486
H3    H     H_    0.145657 0.593351 0.760895 0.134647
H4    H     H_    0.761934 0.101753 0.130536 0.122864
C13   C     C_R   0.184365 0.877676 0.816343 -0.093017
C14   C     C_R   0.818677 0.375404 0.187088 -0.106602
C15   C     C_R   0.243404 0.031241 0.806670 0.058668
C16   C     C_R   0.814343 0.514084 0.261070 0.058022
C17   C     C_3   0.215884 0.231039 0.776316 -0.411819
C18   C     C_3   0.806374 0.727367 0.252630 -0.397290
C19   C     C_3   0.278014 0.216789 0.698190 -0.019465
C20   C     C_3   0.737430 0.715580 0.324356 -0.030303
H5    H     H_    0.241305 0.333916 0.837718 0.151063
H6    H     H_    0.774913 0.772867 0.175630 0.145446
H7    H     H_    0.141495 0.243692 0.745189 0.180163
H8    H     H_    0.871820 0.800996 0.283591 0.180474
H9    H     H_    0.336869 0.318221 0.710607 0.142763
H10   H     H_    0.666667 0.758587 0.290066 0.141626
C21   C     C_1   0.783389 0.877164 0.782989 -0.190328
C22   C     C_1   0.216450 0.377117 0.217219 -0.190252
C23   C     C_1   0.715948 0.860169 0.717079 -0.185085
C24   C     C_1   0.283774 0.360091 0.283282 -0.185963
O11   O     O_R   0.101720 0.231700 0.098560 -0.534416
O12   O     O_R   0.898280 0.731700 0.901440 -0.535857
O13   O     O_R   0.914700 0.558980 0.095690 -0.540909
O14   O     O_R   0.085300 0.058980 0.904310 -0.541236
C25   C     C_R   0.885086 0.389654 0.116810 0.697955
C26   C     C_R   0.114378 0.889775 0.882569 0.692972
O15   O     O_R   0.102080 0.561590 0.110390 -0.536408
O16   O     O_R   0.897920 0.061590 0.889610 -0.537673
O17   O     O_R   0.086950 0.728940 0.916330 -0.541541
O18   O     O_R   0.913050 0.228940 0.083670 -0.540841
C27   C     C_R   0.135979 0.391924 0.137484 0.735073
C28   C     C_R   0.863981 0.891934 0.862567 0.727984
O19   O     O_3   0.994770 0.394510 0.936380 -0.370916
O20   O     O_3   0.005230 0.894510 0.063620 -0.368145
V3    V     V_3+5 0.000970 0.670520 0.011800 1.411181
V4    V     V_3+5 0.999030 0.170520 0.988200 1.410091
C29   C     C_3   0.223820 0.212256 0.589835 -0.744148
H11   H     H_    0.180976 0.080498 0.575866 0.216241
H12   H     H_    0.176699 0.336911 0.575465 0.190439
H13   H     H_    0.271602 0.217754 0.535177 0.211193
C30   C     C_3   0.771530 0.807092 0.426848 -0.722128
H14   H     H_    0.841634 0.756560 0.459132 0.199906
H15   H     H_    0.772611 0.965971 0.419340 0.213175
H16   H     H_    0.724562 0.768427 0.479155 0.207340

loop_
_geom_bond_atom_site_label_1
_geom_bond_atom_site_label_2
_ccdc_geom_bond_type
C14   C25   S    
C29   H12   S    
C2    C23   S    
C20   H10   S    
O1    C3    A    
O2    C4    A    
O11   V4    S    
C20   C30   S    
O5    C3    A    
C17   H7    S    
C18   H8    S    
C10   H2    S    
C7    C9    A    
O20   V4    S    
C25   O18   A    
C21   C28   S    
C5    C7    A    
O15   V3    S    
O13   C25   A    
O14   C26   A    
C15   C17   S    
O10   V2    S    
C6    C8    A    
C26   O17   A    
O5    V1    S    
C29   H13   S    
O6    V2    S    
C2    O7    A    
C22   C24   T    
C11   C13   A    
C3    C8    S    
O19   V3    S    
O13   V3    S    
C30   H14   S    
O4    C2    A    
O15   C27   A    
O16   V4    S    
C17   H5    S    
O20   V3    S    
C30   H15   S    
C16   C18   S    
O4    V2    S    
O11   C27   A    
C22   C27   S    
O6    C4    A    
O1    V2    S    
O2    V1    S    
C21   C23   T    
C8    C10   A    
C12   C14   A    
O9    V1    S    
O14   V4    S    
O18   V4    S    
C6    C16   A    
O3    V1    S    
O16   C28   A    
C9    C11   A    
O19   V4    S    
C18   H6    S    
O3    C1    A    
O12   C28   A    
C11   H3    S    
C1    C24   S    
C12   H4    S    
C30   H16   S    
C9    H1    S    
O7    V1    S    
C1    O8    A    
C13   C15   A    
O8    V2    S    
C14   C16   A    
O12   V3    S    
C5    C15   A    
O17   V3    S    
C4    C7    S    
C17   C19   S    
C18   C20   S    
C19   H9    S    
C29   H11   S    
C10   C12   A    
O9    V2    S    
O10   V1    S    
C19   C29   S    
C5    C19   S    
C6    C20   S    
C13   C26   S    
