data_mof_unit_57740.cif
_audit_creation_date              2012-12-11T14:22:59-0500
_audit_creation_method            fapswitch 2.2
_symmetry_space_group_name_H-M    P1
_symmetry_Int_Tables_number       1
_space_group_crystal_system       triclinic
_cell_length_a                    11.042168
_cell_length_b                    11.231889
_cell_length_c                    18.735321
_cell_angle_alpha                 91.596037
_cell_angle_beta                  91.124048
_cell_angle_gamma                 61.02163
_cell_volume                      2031.88546435

loop_
_atom_site_label
_atom_site_type_symbol
_atom_type_description
_atom_site_fract_x
_atom_site_fract_y
_atom_site_fract_z
_atom_type_partial_charge
C1    C     C_R   0.233626 0.647570 0.608004 0.544553
C2    C     C_3   0.715297 0.506439 0.806505 -0.163736
C3    C     C_3   0.684012 0.655867 0.819099 0.063738
C4    C     C_3   0.643546 0.614975 0.684856 0.040565
C5    C     C_3   0.769383 0.638389 0.693386 -0.304216
C6    C     C_3   0.663595 0.490978 0.729690 0.161932
C7    C     C_R   0.730481 0.065357 0.808386 -0.067314
C8    C     C_R   0.832393 0.086444 0.772307 -0.043186
C9    C     C_R   0.816336 0.112601 0.697302 -0.034153
C10   C     C_R   0.620538 0.073221 0.691537 0.262774
C11   C     C_R   0.628393 0.055280 0.765486 0.233907
C12   C     C_R   0.627626 0.588905 0.607964 0.585429
C13   C     C_R   0.947839 0.086132 0.806896 -0.110811
C14   C     C_R   0.049096 0.095802 0.768307 -0.157092
C15   C     C_R   0.039006 0.106692 0.694782 -0.144009
C16   C     C_R   0.923632 0.116061 0.659443 -0.089124
C17   C     C_R   0.695906 0.129047 0.661228 -0.054920
C18   C     C_R   0.167747 0.670332 0.831292 0.021993
C19   C     C_R   0.163087 0.563298 0.790801 0.001775
C20   C     C_R   0.157398 0.568770 0.714969 0.027717
C21   C     C_R   0.181218 0.771355 0.722012 -0.124995
C22   C     C_R   0.181025 0.769987 0.795304 -0.057814
C23   C     C_R   0.632957 0.221665 0.599825 0.563823
C24   C     C_R   0.158827 0.453365 0.823074 -0.115639
C25   C     C_R   0.123336 0.368599 0.783563 -0.163828
C26   C     C_R   0.110348 0.378786 0.709955 -0.146723
C27   C     C_R   0.127796 0.477081 0.675679 -0.091202
C28   C     C_R   0.177838 0.668052 0.680811 0.008921
C29   C     C_R   0.647591 0.666745 0.163822 0.037270
C30   C     C_R   0.715087 0.535385 0.191264 -0.028148
C31   C     C_R   0.716129 0.521023 0.265229 -0.023818
C32   C     C_R   0.605935 0.761456 0.285127 -0.085116
C33   C     C_R   0.581186 0.778515 0.211189 0.270440
C34   C     C_R   0.222838 0.648275 0.400654 0.570752
C35   C     C_R   0.787217 0.416088 0.147669 -0.124783
C36   C     C_R   0.884231 0.295625 0.178963 -0.093883
C37   C     C_R   0.883588 0.285286 0.252978 0.261279
C38   C     C_R   0.777853 0.390626 0.288826 -0.067873
C39   C     C_R   0.660766 0.634130 0.313582 0.025855
C40   C     C_R   0.647434 0.182668 0.169713 -0.013139
C41   C     C_R   0.513315 0.281490 0.190279 0.007549
C42   C     C_R   0.482134 0.299662 0.263981 0.018782
C43   C     C_R   0.719490 0.138743 0.293014 -0.135705
C44   C     C_R   0.745212 0.107843 0.221894 -0.138465
C45   C     C_R   0.643056 0.617639 0.391045 0.579535
C46   C     C_R   0.404807 0.338230 0.139676 -0.088627
C47   C     C_R   0.270399 0.376582 0.160346 -0.103991
C48   C     C_R   0.242176 0.372088 0.231833 -0.127039
C49   C     C_R   0.343588 0.346231 0.283904 -0.089086
C50   C     C_R   0.593303 0.245030 0.313956 -0.006635
C51   C     C_R   0.033008 0.753835 0.195559 -0.001635
C52   C     C_R   0.095314 0.827016 0.228410 -0.030189
C53   C     C_R   0.176388 0.769453 0.287223 0.023047
C54   C     C_R   0.058072 0.639151 0.307383 -0.180392
C55   C     C_R   0.003992 0.669145 0.237655 -0.168310
C56   C     C_R   0.579100 0.289801 0.388028 0.560949
C57   C     C_R   0.097408 0.942792 0.199758 -0.100538
C58   C     C_R   0.187681 0.987661 0.225186 -0.027522
C59   C     C_R   0.270148 0.924988 0.283219 0.347272
C60   C     C_R   0.283441 0.799113 0.300406 0.409548
C61   C     C_R   0.154524 0.679612 0.330073 0.028255
C62   C     C_R   0.727746 0.043694 0.887810 0.578233
C63   C     C_R   0.717208 0.682612 0.892287 0.554752
C64   C     C_R   0.114985 0.706934 0.904958 0.550972
C65   C     C_R   0.673838 0.114495 0.100478 0.512394
C66   C     C_R   0.693813 0.689492 0.095262 0.529894
C67   C     C_3   0.529528 0.747638 0.798492 0.234069
C68   C     C_R   0.020278 0.753225 0.117252 0.567165
C69   C     C_3   0.515674 0.743715 0.716298 -0.154509
C70   C     C_3   0.779691 0.681792 0.769816 -0.300760
Cr1   Cr    Cr6+3 0.392940 0.397950 0.502230 1.002813
Cr2   Cr    Cr6+3 0.398400 0.708500 0.501260 0.989711
Cr3   Cr    Cr6+3 0.708640 0.393530 0.496460 0.965256
Cr4   Cr    Cr6+3 0.937880 0.938320 0.007620 0.980909
Cr5   Cr    Cr6+3 0.625560 0.937220 0.994510 1.040039
Cr6   Cr    Cr6+3 0.938080 0.625010 0.001190 0.974711
H1    H     H_    0.486379 0.852721 0.817912 0.201586
H2    H     H_    0.743136 0.394347 0.704481 0.129936
H3    H     H_    0.888887 0.624895 0.787556 0.165977
H4    H     H_    0.862992 0.542582 0.679886 0.154724
H5    H     H_    0.969534 0.071858 0.862769 0.168079
H6    H     H_    0.141911 0.083192 0.795215 0.090645
H7    H     H_    0.124430 0.100571 0.664582 0.105541
H8    H     H_    0.924221 0.116754 0.601808 0.132458
H9    H     H_    0.194725 0.849509 0.697523 0.139948
H10   H     H_    0.183879 0.429495 0.878613 0.141167
H11   H     H_    0.189839 0.849810 0.824388 0.177921
H12   H     H_    0.108855 0.293409 0.810740 0.108371
H13   H     H_    0.081186 0.314826 0.678866 0.119013
H14   H     H_    0.106838 0.486616 0.618940 0.128389
H15   H     H_    0.576098 0.846035 0.321437 0.139441
H16   H     H_    0.776043 0.416313 0.090164 0.148948
H17   H     H_    0.952901 0.212625 0.144938 0.096141
H18   H     H_    0.420467 0.741690 0.701002 0.189221
H19   H     H_    0.742194 0.366154 0.333354 0.190460
H20   H     H_    0.798694 0.079348 0.331823 0.170584
H21   H     H_    0.425605 0.335064 0.083214 0.132281
H22   H     H_    0.837315 0.016577 0.208013 0.135400
H23   H     H_    0.190427 0.400152 0.120477 0.147449
H24   H     H_    0.140779 0.389573 0.247062 0.114511
H25   H     H_    0.314324 0.347209 0.338389 0.161197
H26   H     H_    0.034533 0.575653 0.340545 0.109841
H27   H     H_    0.024657 0.004520 0.159997 0.163730
H28   H     H_    0.945971 0.621699 0.215655 0.125125
H29   H     H_    0.507943 0.837805 0.694377 0.137805
H30   H     H_    0.183113 0.078854 0.204464 0.145214
H31   H     H_    0.752116 0.790245 0.771744 0.161063
H32   H     H_    0.763354 0.716165 0.656329 0.134902
H33   H     H_    0.828784 0.436361 0.810109 0.094628
H34   H     H_    0.668306 0.477663 0.849943 0.159280
O1    O     O_R   0.507340 0.255690 0.581430 -0.472147
O2    O     O_R   0.524510 0.695820 0.424050 -0.445027
O3    O     O_R   0.736370 0.504260 0.414810 -0.577227
O4    O     O_R   0.691220 0.277270 0.422180 -0.541554
O5    O     O_3   0.499990 0.499990 0.499980 -0.270392
O6    O     O_R   0.089570 0.825450 0.930590 -0.524174
O7    O     O_R   0.818700 0.054260 0.929860 -0.536148
O8    O     O_R   0.606310 0.077010 0.915520 -0.480405
O9    O     O_R   0.646730 0.806540 0.917560 -0.488268
O10   O     O_R   0.837290 0.593240 0.915240 -0.537684
O11   O     O_R   0.065320 0.635310 0.931580 -0.515211
O12   O     O_R   0.280360 0.527380 0.578910 -0.500701
O13   O     O_R   0.068470 0.828620 0.091850 -0.520680
O14   O     O_R   0.799150 0.057200 0.079350 -0.535420
O15   O     O_R   0.585220 0.080180 0.076770 -0.534122
O16   O     O_R   0.627170 0.809480 0.067050 -0.454785
O17   O     O_R   0.816200 0.596410 0.076500 -0.557711
O18   O     O_R   0.045770 0.638240 0.081070 -0.501082
O19   O     O_3   0.833840 0.833520 0.001110 -0.303177
O20   O     O_R   0.260600 0.739610 0.584580 -0.546859
O21   O     O_R   0.532370 0.695050 0.573830 -0.541826
O22   O     O_R   0.744850 0.503430 0.576380 -0.545702
O23   O     O_R   0.699080 0.276500 0.571950 -0.526883
O24   O     O_R   0.498860 0.256520 0.419860 -0.550474
O25   O     O_R   0.272490 0.528150 0.429140 -0.532662
O26   O     O_R   0.252110 0.740440 0.423010 -0.515940
O27   O     O_3   0.527795 0.047389 0.651668 -0.563079
C71   C     C_3   0.591527 0.967278 0.589680 -0.122410
H35   H     H_    0.548373 0.898433 0.579356 0.154553
H36   H     H_    0.706204 0.904624 0.593844 0.081208
H37   H     H_    0.564818 0.030937 0.541758 0.150789
O28   O     O_3   0.543072 0.014070 0.795810 -0.585857
C72   C     C_3   0.408041 0.124057 0.800180 -0.093412
H38   H     H_    0.349866 0.099534 0.839388 0.112258
H39   H     H_    0.354480 0.138714 0.747906 0.175413
H40   H     H_    0.406574 0.219165 0.819797 0.120277
F1    F     F_    0.450069 0.700279 0.830783 -0.670381
O29   O     O_3   0.481271 0.900324 0.184592 -0.544831
C73   C     C_3   0.512681 0.002880 0.204156 -0.062408
H41   H     H_    0.439904 0.093216 0.174424 0.182548
H42   H     H_    0.621945 0.969375 0.191308 0.117474
H43   H     H_    0.496629 0.033157 0.261158 0.155680
O30   O     O_3   0.959585 0.163778 0.287153 -0.609676
C74   C     C_3   0.010058 0.182745 0.354103 -0.139001
H44   H     H_    0.063978 0.082888 0.379782 0.120743
H45   H     H_    0.081414 0.225058 0.346976 0.130979
H46   H     H_    0.928566 0.246940 0.392666 0.147953
O31   O     O_3   0.339726 0.985952 0.316848 -0.601527
C75   C     C_3   0.333910 0.989092 0.392395 -0.108892
H47   H     H_    0.439704 0.945639 0.415172 0.133620
H48   H     H_    0.281488 0.936843 0.415426 0.144726
H49   H     H_    0.280224 0.096525 0.411542 0.085346
F2    F     F_    0.404505 0.693405 0.317223 -0.642901
O32   O     O_3   0.533093 0.493462 0.728410 -0.541450
C76   C     C_3   0.524839 0.400783 0.774276 -0.080583
H50   H     H_    0.626150 0.322611 0.793838 0.087475
H51   H     H_    0.472461 0.350950 0.745348 0.141127
H52   H     H_    0.460642 0.456826 0.821076 0.179868

loop_
_geom_bond_atom_site_label_1
_geom_bond_atom_site_label_2
_ccdc_geom_bond_type
C72   H40   S    
Cr4   O14   S    
Cr2   O2    S    
C2    H33   S    
C8    C13   A    
C64   O6    A    
C12   O21   A    
C29   C33   A    
C41   C42   A    
Cr1   O12   S    
C35   C36   A    
C67   H1    S    
Cr1   O24   S    
C45   O2    A    
Cr3   O3    S    
C7    C8    A    
C76   H50   S    
C26   H13   S    
C7    C11   A    
Cr2   O5    S    
C26   C27   A    
C17   C23   S    
C30   C35   A    
Cr6   O11   S    
O32   C76   S    
C9    C16   A    
C70   H31   S    
C73   H42   S    
C49   H25   S    
C30   C31   A    
C59   O31   S    
Cr2   O26   S    
C32   H15   S    
C10   C17   A    
C72   H38   S    
C13   H5    S    
C16   H8    S    
C60   F2    S    
C47   H23   S    
C66   O17   A    
C27   H14   S    
C18   C19   A    
C32   C39   A    
C1    O12   A    
C62   O7    A    
C54   C55   A    
C53   C61   A    
C36   H17   S    
C75   H47   S    
C8    C9    A    
Cr1   O1    S    
C38   H19   S    
C1    C28   S    
C41   C46   A    
C75   H48   S    
C10   O27   S    
C4    C12   S    
C68   O18   A    
C74   H45   S    
C39   C45   S    
C35   H16   S    
Cr4   O13   S    
Cr3   O22   S    
C59   C60   A    
C76   H51   S    
C21   C22   A    
C2    C6    S    
Cr5   O8    S    
C44   H22   S    
C48   H24   S    
C68   O13   A    
C4    C69   S    
C53   C60   A    
C54   H26   S    
C57   H27   S    
C21   H9    S    
C15   C16   A    
C23   O23   A    
C51   C52   A    
C37   O30   S    
C3    C70   S    
Cr5   O9    S    
O29   C73   S    
C74   H46   S    
C4    C6    S    
C1    O20   A    
C10   C11   A    
C73   H43   S    
C69   H29   S    
C15   H7    S    
C20   C28   A    
C58   C59   A    
Cr5   O19   S    
C55   H28   S    
C71   H37   S    
C25   H12   S    
C50   C56   S    
Cr3   O4    S    
C66   O16   A    
C67   C69   S    
C65   O15   A    
C37   C38   A    
C43   C44   A    
C7    C62   S    
C29   C30   A    
C33   O29   S    
C63   O9    A    
Cr6   O19   S    
Cr5   O15   S    
C47   C48   A    
C34   O26   A    
Cr4   O6    S    
C43   H20   S    
C75   H49   S    
Cr1   O5    S    
Cr6   O10   S    
C22   H11   S    
C24   C25   A    
C5    H4    S    
C74   H44   S    
C71   H36   S    
C42   C50   A    
C9    C17   A    
C40   C41   A    
C54   C61   A    
C46   H21   S    
C6    O32   S    
C69   H18   S    
C76   H52   S    
C40   C65   S    
C67   F1    S    
O31   C75   S    
Cr6   O18   S    
C14   H6    S    
C52   C53   A    
Cr2   O21   S    
C72   H39   S    
Cr4   O7    S    
C46   C47   A    
C2    H34   S    
C12   O22   A    
C70   H3    S    
C18   C22   A    
C21   C28   A    
C3    C67   S    
Cr3   O23   S    
C4    C5    S    
C5    C70   S    
C56   O24   A    
C43   C50   A    
Cr2   O20   S    
C20   C27   A    
C3    C63   S    
C23   O1    A    
O27   C71   S    
Cr3   O5    S    
C31   C38   A    
Cr5   O16   S    
C32   C33   A    
C19   C20   A    
C19   C24   A    
C25   C26   A    
C73   H41   S    
Cr1   O25   S    
C63   O10   A    
C18   C64   S    
C57   C58   A    
C34   O25   A    
C48   C49   A    
C31   C39   A    
C2    C3    S    
C51   C55   A    
C51   C68   S    
C34   C61   S    
C11   O28   S    
C62   O8    A    
C6    H2    S    
C52   C57   A    
C42   C49   A    
C29   C66   S    
C65   O14   A    
C45   O3    A    
C40   C44   A    
C36   C37   A    
Cr4   O19   S    
O28   C72   S    
Cr6   O17   S    
C56   O4    A    
C14   C15   A    
C58   H30   S    
O30   C74   S    
C13   C14   A    
C24   H10   S    
C71   H35   S    
C64   O11   A    
C5    H32   S    
