data_mof_unit_56391.cif
_audit_creation_date              2012-12-11T18:13:11-0500
_audit_creation_method            fapswitch 2.2
_symmetry_space_group_name_H-M    P1
_symmetry_Int_Tables_number       1
_space_group_crystal_system       triclinic
_cell_length_a                    8.208859
_cell_length_b                    12.695383
_cell_length_c                    18.718564
_cell_angle_alpha                 99.669272
_cell_angle_beta                  91.075231
_cell_angle_gamma                 98.721526
_cell_volume                      1898.83924733

loop_
_atom_site_label
_atom_site_type_symbol
_atom_type_description
_atom_site_fract_x
_atom_site_fract_y
_atom_site_fract_z
_atom_type_partial_charge
Ba1   Ba    Ba6+2 0.852780 0.548340 0.465070 1.664884
Ba2   Ba    Ba6+2 0.337060 0.451750 0.534940 1.647730
C1    C     C_3   0.598532 0.892773 0.238434 -0.371088
C2    C     C_3   0.628595 0.811270 0.286686 0.826113
C3    C     C_3   0.474510 0.252326 0.310980 0.671999
C4    C     C_3   0.536405 0.228612 0.234819 -0.358216
C5    C     C_3   0.064163 0.239588 0.737324 0.373385
C6    C     C_3   0.083669 0.215025 0.813524 -0.365870
C7    C     C_3   0.558504 0.180078 0.705183 0.349398
C8    C     C_3   0.608972 0.104471 0.753581 -0.419040
C9    C     C_R   0.995237 0.444348 0.046684 0.006271
C10   C     C_R   0.894413 0.390132 0.093525 0.035332
C11   C     C_R   0.733248 0.341574 0.069612 -0.086272
C12   C     C_3   0.119082 0.759084 0.267037 0.388136
C13   C     C_R   0.671534 0.348021 0.000684 -0.090231
C14   C     C_R   0.771322 0.400839 0.953337 0.032540
C15   C     C_R   0.934071 0.448925 0.976056 0.013859
C16   C     C_R   0.711370 0.403904 0.883266 -0.112592
C17   C     C_R   0.813423 0.450823 0.833453 -0.043303
C18   C     C_R   0.976338 0.501729 0.856433 -0.005378
C19   C     C_R   0.035522 0.500901 0.928180 -0.008351
C20   C     C_R   0.759032 0.445898 0.760740 -0.008010
C21   C     C_R   0.867519 0.487070 0.711729 -0.296140
C22   C     C_R   0.024886 0.543506 0.733857 0.046417
C23   C     C_3   0.111560 0.785496 0.190889 -0.373073
C24   C     C_R   0.080357 0.552768 0.807873 -0.046333
C25   C     C_R   0.157512 0.492360 0.069978 -0.007172
C26   C     C_R   0.216804 0.490810 0.141620 -0.003762
C27   C     C_R   0.111745 0.441281 0.190486 -0.056285
C28   C     C_R   0.954722 0.386257 0.163720 -0.040006
C29   C     C_R   0.237354 0.608638 0.834790 -0.041620
C30   C     C_R   0.298870 0.602945 0.904496 0.034746
C31   C     C_R   0.197830 0.549030 0.951466 0.006062
C32   C     C_R   0.259344 0.543776 0.021953 0.014595
C33   C     C_R   0.461893 0.648596 0.927523 -0.083225
C34   C     C_3   0.235047 0.787998 0.620917 0.281263
C35   C     C_R   0.523988 0.640970 0.996282 -0.091452
C36   C     C_R   0.423177 0.589724 0.044165 0.033851
C37   C     C_R   0.380709 0.539456 0.164236 -0.043668
C38   C     C_R   0.483610 0.585056 0.114001 -0.114404
C39   C     C_R   0.435192 0.542755 0.236877 -0.026471
C40   C     C_R   0.327345 0.501041 0.285714 -0.259835
C41   C     C_R   0.167230 0.449871 0.264417 0.084457
C42   C     C_R   0.760451 0.184841 0.537261 -0.278222
C43   C     C_R   0.429980 0.808410 0.471467 -0.272550
C44   C     C_R   0.399110 0.986644 0.451617 -0.112397
C45   C     C_3   0.252672 0.910446 0.638467 -0.354859
C46   C     C_R   0.337827 0.877245 0.444386 -0.034383
C47   C     C_R   0.577650 0.849350 0.511775 0.090900
C48   C     C_R   0.639632 0.962146 0.522759 -0.060542
C49   C     C_R   0.549460 0.031009 0.490815 -0.072518
C50   C     C_R   0.612906 0.142141 0.498010 0.050975
C51   C     C_R   0.854027 0.117935 0.565758 -0.017093
C52   C     C_R   0.791822 0.007803 0.561107 -0.091722
C53   C     C_3   0.957906 0.217348 0.385413 0.298938
C54   C     C_3   0.915488 0.095220 0.369147 -0.353510
C55   C     C_3   0.729940 0.706372 0.682333 0.313601
C56   C     C_3   0.753096 0.744473 0.763910 -0.406178
H1    H     H_    0.344754 0.941459 0.684017 0.113564
H2    H     H_    0.294079 0.946498 0.590842 0.082608
H3    H     H_    0.132240 0.934896 0.654108 0.141081
H4    H     H_    0.853937 0.252456 0.410969 -0.017396
H5    H     H_    0.067316 0.239205 0.423219 0.104136
H6    H     H_    0.799809 0.072235 0.334918 0.129438
H7    H     H_    0.899236 0.062495 0.420092 0.100388
H8    H     H_    0.016141 0.059817 0.339874 0.153650
H9    H     H_    0.845869 0.682093 0.661142 0.011807
H10   H     H_    0.628824 0.636235 0.671673 0.067293
H11   H     H_    0.533555 0.955993 0.268490 0.075387
H12   H     H_    0.860210 0.810556 0.776191 0.126628
H13   H     H_    0.775261 0.676989 0.791546 0.057912
H14   H     H_    0.640544 0.774953 0.785275 0.117901
H15   H     H_    0.506792 0.778532 0.305878 -0.168315
H16   H     H_    0.520679 0.850800 0.189784 0.067673
H17   H     H_    0.527315 0.337495 0.333908 0.039381
H18   H     H_    0.478623 0.146968 0.206717 0.097812
H19   H     H_    0.504600 0.290286 0.203667 0.062870
H20   H     H_    0.671789 0.230960 0.237755 0.096769
H21   H     H_    0.717615 0.931772 0.220538 0.122144
H22   H     H_    0.129107 0.713809 0.150579 0.072431
H23   H     H_    0.140153 0.318932 0.734780 0.088891
H24   H     H_    0.932503 0.244641 0.726810 -0.079647
H25   H     H_    0.215475 0.214137 0.827361 0.149737
H26   H     H_    0.038227 0.277709 0.853358 0.070033
H27   H     H_    0.011222 0.134919 0.817096 0.110061
H28   H     H_    0.670955 0.214223 0.679775 -0.054773
H29   H     H_    0.471461 0.132868 0.661102 0.076131
H30   H     H_    0.700026 0.150462 0.796507 0.112901
H31   H     H_    0.665543 0.039269 0.720800 0.093259
H32   H     H_    0.019866 0.690679 0.270438 0.106588
H33   H     H_    0.499638 0.067740 0.779896 0.130309
H34   H     H_    0.654409 0.298485 0.104127 0.064118
H35   H     H_    0.546145 0.310256 0.984028 0.070830
H36   H     H_    0.825572 0.479565 0.655705 0.066970
H37   H     H_    0.585450 0.367135 0.867921 0.108457
H38   H     H_    0.876270 0.342172 0.197621 0.090216
H39   H     H_    0.316110 0.654070 0.801349 0.097520
H40   H     H_    0.542295 0.689184 0.892001 0.062056
H41   H     H_    0.650679 0.676301 0.012317 0.070921
H42   H     H_    0.611066 0.618531 0.128539 0.107549
H43   H     H_    0.240004 0.733814 0.276357 -0.089925
H44   H     H_    0.370190 0.506853 0.341483 0.069188
H45   H     H_    0.324890 0.035684 0.427496 0.114092
H46   H     H_    0.866579 0.959146 0.585286 0.100876
H47   H     H_    0.809148 0.269772 0.540698 0.060275
H48   H     H_    0.381200 0.723066 0.464934 0.063028
H49   H     H_    0.989828 0.808471 0.179209 0.145396
H50   H     H_    0.210204 0.853712 0.185814 0.104441
H51   H     H_    0.355199 0.764480 0.605629 0.002910
H52   H     H_    0.142655 0.758971 0.575113 0.070027
O1    O     O_2   0.873090 0.425890 0.325140 -0.479358
O2    O     O_3   0.690996 0.792033 0.650609 -0.645552
O3    O     O_3   0.097041 0.850570 0.317493 -0.579202
O4    O     O_2   0.316610 0.574140 0.674900 -0.468786
O5    O     O_3   0.067290 0.565720 0.585630 -0.500669
O6    O     O_3   0.530210 0.372990 0.631200 -0.469524
O7    O     O_3   0.186214 0.746690 0.683070 -0.639247
O8    O     O_3   0.611340 0.366290 0.463630 -0.482346
O9    O     O_3   0.108550 0.314140 0.595200 -0.485275
O10   O     O_2   0.191506 0.120720 0.551857 -0.488201
O11   O     O_3   0.116820 0.157355 0.687413 -0.593201
O12   O     O_3   0.122420 0.434370 0.414380 -0.486716
O13   O     O_3   0.578370 0.633800 0.536380 -0.492170
O14   O     O_2   0.341510 0.231850 0.465510 -0.452488
O15   O     O_3   0.523748 0.178303 0.351609 -0.680440
O16   O     O_2   0.420209 0.455908 0.756835 -0.495264
O17   O     O_3   0.478428 0.258235 0.746854 -0.593153
O18   O     O_3   0.659500 0.627100 0.368810 -0.451516
O19   O     O_2   0.772891 0.538503 0.243616 -0.506150
O20   O     O_3   0.988984 0.254014 0.320020 -0.602139
O21   O     O_3   0.706057 0.731235 0.246125 -0.610424
O22   O     O_2   0.848200 0.768190 0.534530 -0.470227
O23   O     O_3   0.081160 0.685950 0.404810 -0.497428
O24   O     O_2   0.001226 0.879954 0.450554 -0.440544
P1    P     P_3+3 0.041040 0.394770 0.336330 1.029996
P2    P     P_3+3 0.672880 0.754030 0.556100 0.978977
P3    P     P_3+3 0.129471 0.824340 0.405135 0.996192
P4    P     P_3+3 0.148670 0.605320 0.663680 0.968799
P5    P     P_3+3 0.066699 0.176085 0.599629 0.949366
P6    P     P_3+3 0.642580 0.607354 0.273982 0.964715
P7    P     P_3+3 0.524959 0.229432 0.444558 0.952463
P8    P     P_3+3 0.547854 0.385659 0.725020 0.950697
O25   O     O_3   0.733244 0.862346 0.346152 -0.675438
H53   H     H_    0.669555 0.911089 0.376797 0.254182
O26   O     O_3   0.302787 0.241497 0.307038 -0.758479
H54   H     H_    0.259647 0.163456 0.290949 0.301268

loop_
_geom_bond_atom_site_label_1
_geom_bond_atom_site_label_2
_ccdc_geom_bond_type
C53   C54   S    
O23   P3    S    
C6    H25   S    
C39   C40   A    
C17   C18   A    
Ba1   O18   S    
Ba1   O22   S    
C1    H21   S    
O24   P3    D    
O26   H54   S    
Ba2   O8    S    
C5    C6    S    
C37   C39   A    
C42   H47   S    
C8    H30   S    
C7    O17   S    
C46   P3    S    
C6    H27   S    
C52   H46   S    
C26   C27   A    
C1    H11   S    
C55   H9    S    
Ba1   Ba2   S    
C3    C4    S    
C56   H13   S    
C4    H20   S    
C55   O2    S    
C19   C31   A    
C13   C14   A    
C23   H22   S    
C53   H4    S    
C34   C45   S    
C16   C17   A    
C1    H16   S    
Ba1   O12   S    
C12   H32   S    
C39   P6    S    
C28   H38   S    
O21   P6    S    
C45   H2    S    
Ba2   O6    S    
C42   C51   A    
O1    P1    D    
O20   P1    S    
C8    H31   S    
O15   P7    S    
C14   C15   A    
C53   H5    S    
C21   C22   A    
C54   H6    S    
C43   C47   A    
C33   H40   S    
C7    C8    S    
C10   C28   A    
C42   C50   A    
O4    P4    D    
C24   C29   A    
C6    H26   S    
C27   C41   A    
C16   H37   S    
O2    P2    S    
Ba1   O23   S    
C40   H44   S    
C2    O25   S    
C48   C49   A    
C2    O21   S    
Ba2   O12   S    
C25   C32   A    
C44   C46   A    
C3    O26   S    
C49   C50   A    
Ba2   P4    S    
C30   C33   A    
C45   H3    S    
C17   C20   A    
C37   C38   A    
C56   H12   S    
C12   H43   S    
C26   C37   A    
C22   P4    S    
Ba2   O13   S    
O8    P7    S    
C45   H1    S    
C44   C49   A    
O16   P8    D    
C15   C19   A    
O17   P8    S    
C3    H17   S    
Ba1   O13   S    
C13   H35   S    
C35   C36   A    
C7    H28   S    
Ba2   O5    S    
C5    O11   S    
C29   C30   A    
O5    P4    S    
C9    C25   A    
O22   P2    D    
C53   O20   S    
C20   P8    S    
C31   C32   A    
O10   P5    D    
C48   C52   A    
C10   C11   A    
C41   P1    S    
C34   O7    S    
C2    H15   S    
O6    P8    S    
C5    H23   S    
C47   P2    S    
C8    H33   S    
C11   C13   A    
C11   H34   S    
C34   H52   S    
O3    P3    S    
O14   P7    D    
C40   C41   A    
C55   H10   S    
C1    C2    S    
Ba1   P2    S    
C35   H41   S    
C43   H48   S    
C23   H49   S    
C43   C46   A    
C9    C15   A    
C33   C35   A    
C32   C36   A    
C4    H18   S    
C22   C24   A    
C4    H19   S    
O7    P4    S    
C38   H42   S    
C9    C10   A    
C51   C52   A    
Ba2   O14   S    
C12   O3    S    
C44   H45   S    
C50   P7    S    
C21   H36   S    
O13   P2    S    
O9    P5    S    
C30   C31   A    
O11   P5    S    
O25   H53   S    
O18   P6    S    
C7    H29   S    
C36   C38   A    
Ba2   O4    S    
C56   H14   S    
C55   C56   S    
O19   P6    D    
C18   C24   A    
C54   H8    S    
Ba2   O9    S    
Ba1   O8    S    
C29   H39   S    
C12   C23   S    
O12   P1    S    
C51   P5    S    
C27   C28   A    
C5    H24   S    
C18   C19   A    
C14   C16   A    
C47   C48   A    
C3    O15   S    
C34   H51   S    
C20   C21   A    
Ba1   O5    S    
Ba1   P1    S    
Ba1   O1    S    
C54   H7    S    
C23   H50   S    
C25   C26   A    
