data_mof_unit_44698.cif
_audit_creation_date              2012-12-10T20:46:51-0500
_audit_creation_method            fapswitch 2.2
_symmetry_space_group_name_H-M    P1
_symmetry_Int_Tables_number       1
_space_group_crystal_system       triclinic
_cell_length_a                    12.900369
_cell_length_b                    8.932664
_cell_length_c                    8.110646
_cell_angle_alpha                 89.966096
_cell_angle_beta                  97.764929
_cell_angle_gamma                 90.035509
_cell_volume                      926.057393673

loop_
_atom_site_label
_atom_site_type_symbol
_atom_type_description
_atom_site_fract_x
_atom_site_fract_y
_atom_site_fract_z
_atom_type_partial_charge
C1    C     C_R   0.500012 0.218005 0.500030 0.936858
C2    C     C_R   0.867575 0.571320 0.688800 -0.234999
C3    C     C_R   0.132938 0.579151 0.560826 -0.075659
C4    C     C_R   0.867062 0.420851 0.439174 -0.075659
C5    C     C_R   0.027288 0.544138 0.566369 0.056155
C6    C     C_R   0.972712 0.455864 0.433630 0.056155
C7    C     C_1   0.500009 0.065195 0.500040 -0.172776
C8    C     C_1   0.499991 0.934805 0.499960 -0.172776
C9    C     C_1   0.813134 0.302386 0.338511 0.194394
C10   C     C_1   0.186867 0.697613 0.661491 0.194394
C11   C     C_1   0.975305 0.344804 0.145529 0.179672
C12   C     C_R   0.499988 0.781995 0.499970 0.936858
C13   C     C_1   0.024694 0.655201 0.854470 0.179672
C14   C     C_R   0.297854 0.504452 0.466737 0.886810
C15   C     C_R   0.702146 0.495548 0.533263 0.886810
C16   C     C_R   0.814322 0.492981 0.555949 -0.106062
C17   C     C_R   0.185678 0.507021 0.444051 -0.106062
C18   C     C_R   0.025827 0.408466 0.299901 -0.001793
C19   C     C_R   0.974173 0.591538 0.700099 -0.001793
C20   C     C_R   0.132425 0.428683 0.311199 -0.234999
H1    H     H_    0.825397 0.618050 0.783903 0.172865
H2    H     H_    0.174603 0.381954 0.216095 0.172865
N1    N     N_1   0.500020 0.500000 0.073640 -0.024819
N2    N     N_1   0.499980 0.500000 0.926360 -0.024819
N3    N     N_1   0.769493 0.207900 0.259711 -0.176404
N4    N     N_1   0.230509 0.792098 0.740292 -0.176404
N5    N     N_1   0.935751 0.294454 0.021222 -0.180292
N6    N     N_1   0.064248 0.705552 0.978777 -0.180292
O1    O     O_R   0.499990 0.285340 0.636850 -0.613065
O2    O     O_R   0.500010 0.714660 0.363150 -0.613065
O3    O     O_R   0.500010 0.285340 0.363150 -0.613297
O4    O     O_R   0.499990 0.714660 0.636850 -0.613297
O5    O     O_R   0.346350 0.500000 0.614250 -0.613504
O6    O     O_R   0.653650 0.500000 0.385750 -0.613504
O7    O     O_R   0.346360 0.500000 0.340500 -0.624066
O8    O     O_R   0.653640 0.500000 0.659500 -0.624066
Zn1   Zn    Zn3+2 0.499990 0.500000 0.682780 1.009982
Zn2   Zn    Zn3+2 0.500010 0.500000 0.317220 1.009982

loop_
_geom_bond_atom_site_label_1
_geom_bond_atom_site_label_2
_ccdc_geom_bond_type
C4    C16   A    
N1    N2    T    
C11   C18   S    
C5    C19   A    
N1    Zn2   S    
C2    C16   A    
C15   O6    A    
O3    Zn2   S    
C11   N5    T    
C8    C12   S    
C10   N4    T    
C14   O5    A    
C1    O1    A    
N2    Zn1   S    
C2    C19   A    
C9    N3    T    
C7    C8    T    
C13   N6    T    
C3    C10   S    
O6    Zn2   S    
O4    Zn1   S    
C12   O4    A    
C14   C17   S    
C2    H1    S    
O8    Zn1   S    
C20   H2    S    
C3    C17   A    
C18   C20   A    
C5    C6    A    
C6    C18   A    
C13   C19   S    
C15   C16   S    
C15   O8    A    
C1    O3    A    
O7    Zn2   S    
O2    Zn2   S    
C4    C6    A    
O1    Zn1   S    
C14   O7    A    
C12   O2    A    
C4    C9    S    
C1    C7    S    
C17   C20   A    
O5    Zn1   S    
C3    C5    A    
