data_mof_unit_55062.cif
_audit_creation_date              2012-12-11T14:52:33-0500
_audit_creation_method            fapswitch 2.2
_symmetry_space_group_name_H-M    P1
_symmetry_Int_Tables_number       1
_space_group_crystal_system       triclinic
_cell_length_a                    18.844839
_cell_length_b                    10.86757
_cell_length_c                    18.774918
_cell_angle_alpha                 90.032359
_cell_angle_beta                  90.736241
_cell_angle_gamma                 89.749442
_cell_volume                      3844.70357742

loop_
_atom_site_label
_atom_site_type_symbol
_atom_type_description
_atom_site_fract_x
_atom_site_fract_y
_atom_site_fract_z
_atom_type_partial_charge
C1    C     C_R   0.271388 0.044913 0.852777 0.565769
C2    C     C_R   0.728621 0.045052 0.147238 0.559146
C3    C     C_R   0.771388 0.544913 0.852777 0.565767
C4    C     C_R   0.228621 0.545052 0.147238 0.559148
C5    C     C_3   0.522253 0.723661 0.966561 -0.104638
C6    C     C_3   0.476470 0.724540 0.033898 -0.106576
C7    C     C_3   0.022246 0.223654 0.966564 -0.104640
C8    C     C_3   0.976463 0.224547 0.033901 -0.106578
C9    C     C_R   0.305514 0.539980 0.965280 -0.144857
C10   C     C_R   0.695085 0.539561 0.034904 -0.146823
C11   C     C_R   0.805513 0.039978 0.965279 -0.144854
C12   C     C_R   0.195084 0.039562 0.034903 -0.146828
C13   C     C_R   0.301432 0.526645 0.038815 -0.194919
C14   C     C_R   0.699059 0.526160 0.961371 -0.195456
C15   C     C_R   0.801431 0.026643 0.038815 -0.194918
C16   C     C_R   0.199058 0.026161 0.961370 -0.195457
C17   C     C_R   0.248321 0.588676 0.076774 0.038167
C18   C     C_R   0.751556 0.588615 0.923256 0.037882
C19   C     C_R   0.748320 0.088675 0.076774 0.038163
C20   C     C_R   0.251556 0.088616 0.923256 0.037885
C21   C     C_R   0.202870 0.672690 0.041533 0.266480
C22   C     C_R   0.796403 0.673145 0.958354 0.266223
C23   C     C_R   0.702870 0.172689 0.041532 0.266473
C24   C     C_R   0.296402 0.173147 0.958353 0.266227
C25   C     C_R   0.206411 0.682462 0.968139 -0.130843
C26   C     C_R   0.792881 0.683227 0.031731 -0.130045
C27   C     C_R   0.706411 0.182461 0.968138 -0.130836
C28   C     C_R   0.292880 0.183230 0.031730 -0.130049
C29   C     C_R   0.255791 0.613734 0.929331 -0.021144
C30   C     C_R   0.744240 0.613984 0.070680 -0.019905
C31   C     C_R   0.755791 0.113734 0.929330 -0.021145
C32   C     C_R   0.244239 0.113986 0.070680 -0.019905
C33   C     C_R   0.451248 0.721118 0.522655 -0.135553
C34   C     C_R   0.467024 0.724007 0.451147 -0.128275
C35   C     C_R   0.951248 0.221119 0.522655 -0.135553
C36   C     C_R   0.967024 0.224007 0.451147 -0.128275
C37   C     C_R   0.492216 0.832573 0.420287 0.027091
C38   C     C_R   0.456773 0.827588 0.563974 0.027528
C39   C     C_R   0.992217 0.332573 0.420287 0.027092
C40   C     C_R   0.956773 0.327588 0.563974 0.027529
C41   C     C_R   0.495333 0.941110 0.460643 -0.140441
C42   C     C_R   0.477555 0.938615 0.532379 -0.132435
C43   C     C_R   0.995333 0.441110 0.460643 -0.140441
C44   C     C_R   0.977556 0.438615 0.532380 -0.132436
C45   C     C_R   0.443496 0.817875 0.863277 0.556013
C46   C     C_R   0.555902 0.817753 0.136697 0.552381
C47   C     C_R   0.943496 0.317875 0.863277 0.556013
C48   C     C_R   0.055902 0.317752 0.136697 0.552382
C49   C     C_R   0.229022 0.734954 0.517258 -0.134042
C50   C     C_R   0.814877 0.601761 0.458605 -0.137234
C51   C     C_R   0.729021 0.234954 0.517259 -0.134042
C52   C     C_R   0.314877 0.101763 0.458605 -0.137235
C53   C     C_R   0.220988 0.705624 0.446093 -0.128345
C54   C     C_R   0.819638 0.601871 0.531071 -0.130601
C55   C     C_R   0.720988 0.205624 0.446093 -0.128345
C56   C     C_R   0.319638 0.101872 0.531071 -0.130601
C57   C     C_R   0.253438 0.599225 0.419765 0.033293
C58   C     C_R   0.759724 0.575970 0.572063 0.037827
C59   C     C_R   0.753438 0.099226 0.419764 0.033293
C60   C     C_R   0.259724 0.075970 0.572063 0.037827
C61   C     C_R   0.298269 0.527841 0.463308 -0.140874
C62   C     C_R   0.693891 0.555007 0.539760 -0.151421
C63   C     C_R   0.798270 0.027843 0.463308 -0.140874
C64   C     C_R   0.193891 0.055007 0.539760 -0.151421
C65   C     C_R   0.305488 0.556559 0.534465 -0.140390
C66   C     C_R   0.688351 0.560177 0.466351 -0.141722
C67   C     C_R   0.805488 0.056560 0.534465 -0.140390
C68   C     C_R   0.188351 0.060177 0.466351 -0.141722
C69   C     C_R   0.269972 0.659293 0.561744 0.029285
C70   C     C_R   0.748827 0.586917 0.426067 0.031732
C71   C     C_R   0.769972 0.159293 0.561744 0.029285
C72   C     C_R   0.248827 0.086918 0.426068 0.031732
C73   C     C_R   0.262129 0.641720 0.853918 0.566205
C74   C     C_R   0.737889 0.641952 0.146094 0.552355
C75   C     C_R   0.762129 0.141720 0.853918 0.566205
C76   C     C_R   0.237889 0.141953 0.146093 0.552355
C77   C     C_R   0.272214 0.045179 0.645280 0.540458
C78   C     C_R   0.729533 0.048416 0.352940 0.552694
C79   C     C_R   0.772214 0.545180 0.645280 0.540459
C80   C     C_R   0.229534 0.548416 0.352940 0.552693
C81   C     C_R   0.439246 0.819819 0.639233 0.543374
C82   C     C_R   0.528189 0.823934 0.352204 0.556508
C83   C     C_R   0.939246 0.319819 0.639233 0.543374
C84   C     C_R   0.028189 0.323934 0.352204 0.556508
C85   C     C_R   0.274333 0.688450 0.636432 0.547121
C86   C     C_R   0.740086 0.634722 0.355613 0.555929
C87   C     C_R   0.774333 0.188450 0.636432 0.547121
C88   C     C_R   0.240086 0.134722 0.355613 0.555929
C89   C     C_3   0.476876 0.926842 0.034043 -0.126347
C90   C     C_3   0.522362 0.925959 0.965864 -0.123811
C91   C     C_3   0.976883 0.426850 0.034041 -0.126343
C92   C     C_3   0.022368 0.425951 0.965861 -0.123809
C93   C     C_3   0.428274 0.826067 0.001814 -0.138905
C94   C     C_3   0.570689 0.824413 0.998341 -0.134856
C95   C     C_3   0.928274 0.326082 0.001814 -0.138911
C96   C     C_3   0.070689 0.324398 0.998341 -0.134850
C97   C     C_3   0.474213 0.825012 0.935106 0.057860
C98   C     C_3   0.524771 0.825118 0.065059 0.059583
C99   C     C_3   0.974213 0.325012 0.935106 0.057856
C100  C     C_3   0.024771 0.325118 0.065059 0.059588
Cr1   Cr    Cr6+3 0.229630 0.835900 0.747350 1.004241
Cr2   Cr    Cr6+3 0.770370 0.835900 0.252650 1.003618
Cr3   Cr    Cr6+3 0.729630 0.335900 0.747350 1.004242
Cr4   Cr    Cr6+3 0.270370 0.335900 0.252650 1.003616
Cr5   Cr    Cr6+3 0.387410 0.989850 0.750850 1.026124
Cr6   Cr    Cr6+3 0.612590 0.989850 0.249150 1.027728
Cr7   Cr    Cr6+3 0.887410 0.489850 0.750850 1.026119
Cr8   Cr    Cr6+3 0.112590 0.489850 0.249150 1.027737
Cr9   Cr    Cr6+3 0.385800 0.677120 0.749340 1.019102
Cr10  Cr    Cr6+3 0.614200 0.677120 0.250660 1.017364
Cr11  Cr    Cr6+3 0.885800 0.177120 0.749340 1.019102
Cr12  Cr    Cr6+3 0.114200 0.177120 0.250660 1.017365
H1    H     H_    0.369325 0.826794 0.001725 0.116177
H2    H     H_    0.629637 0.823816 0.998405 0.117843
H3    H     H_    0.869325 0.326820 0.001725 0.116176
H4    H     H_    0.129637 0.323789 0.998404 0.117844
H5    H     H_    0.200850 0.813148 0.538459 0.131757
H6    H     H_    0.861933 0.622749 0.428347 0.129675
H7    H     H_    0.700849 0.313147 0.538459 0.131757
H8    H     H_    0.361933 0.122751 0.428347 0.129675
H9    H     H_    0.186102 0.761366 0.412883 0.129185
H10   H     H_    0.871308 0.618703 0.554675 0.133492
H11   H     H_    0.686101 0.261366 0.412884 0.129185
H12   H     H_    0.371308 0.118705 0.554675 0.133492
H13   H     H_    0.323316 0.444550 0.443964 0.138205
H14   H     H_    0.647707 0.532723 0.570948 0.128974
H15   H     H_    0.823317 0.944552 0.443963 0.138204
H16   H     H_    0.147707 0.032722 0.570948 0.128974
H17   H     H_    0.337107 0.496309 0.568245 0.134849
H18   H     H_    0.636425 0.549830 0.441696 0.139058
H19   H     H_    0.837108 0.996310 0.568245 0.134849
H20   H     H_    0.136425 0.049829 0.441696 0.139058
H21   H     H_    0.458463 0.009635 0.063267 0.110598
H22   H     H_    0.541003 0.008024 0.936425 0.113293
H23   H     H_    0.958476 0.509648 0.063261 0.110600
H24   H     H_    0.041015 0.508010 0.936420 0.113294
H25   H     H_    0.541048 0.639938 0.938461 0.129348
H26   H     H_    0.457482 0.641578 0.062276 0.127925
H27   H     H_    0.041035 0.139924 0.938467 0.129344
H28   H     H_    0.957470 0.141592 0.062281 0.127928
H29   H     H_    0.347084 0.492987 0.936648 0.178392
H30   H     H_    0.654041 0.492098 0.063665 0.179709
H31   H     H_    0.847083 0.992985 0.936648 0.178395
H32   H     H_    0.154040 0.992100 0.063665 0.179705
H33   H     H_    0.338034 0.464601 0.065571 0.127774
H34   H     H_    0.662915 0.463660 0.934748 0.129576
H35   H     H_    0.838034 0.964599 0.065571 0.127777
H36   H     H_    0.162915 0.963661 0.934748 0.129572
H37   H     H_    0.171787 0.747999 0.941801 0.133932
H38   H     H_    0.826931 0.749332 0.057940 0.135044
H39   H     H_    0.671788 0.247999 0.941801 0.133937
H40   H     H_    0.326930 0.249335 0.057940 0.135041
H41   H     H_    0.437107 0.634205 0.546315 0.125850
H42   H     H_    0.464102 0.638753 0.421324 0.131522
H43   H     H_    0.937107 0.134205 0.546315 0.125850
H44   H     H_    0.964102 0.138753 0.421325 0.131522
H45   H     H_    0.515363 0.025642 0.438096 0.130467
H46   H     H_    0.483008 0.021917 0.563542 0.130272
H47   H     H_    0.015363 0.525642 0.438096 0.130467
H48   H     H_    0.983009 0.521918 0.563542 0.130271
O1    O     O_R   0.214270 0.709000 0.827470 -0.522239
O2    O     O_R   0.785730 0.709000 0.172530 -0.531174
O3    O     O_R   0.714270 0.209000 0.827470 -0.522239
O4    O     O_R   0.285730 0.209000 0.172530 -0.531174
O5    O     O_R   0.445950 0.919440 0.676520 -0.494410
O6    O     O_R   0.554050 0.919440 0.323480 -0.499049
O7    O     O_R   0.945950 0.419440 0.676520 -0.494410
O8    O     O_R   0.054050 0.419440 0.323480 -0.499050
O9    O     O_R   0.456730 0.717630 0.669840 -0.512086
O10   O     O_R   0.543270 0.717630 0.330160 -0.523976
O11   O     O_R   0.956730 0.217630 0.669840 -0.512086
O12   O     O_R   0.043270 0.217630 0.330160 -0.523977
O13   O     O_R   0.320620 0.625640 0.672920 -0.515172
O14   O     O_R   0.679380 0.625640 0.327080 -0.505512
O15   O     O_R   0.820620 0.125640 0.672920 -0.515172
O16   O     O_R   0.179380 0.125640 0.327080 -0.505511
O17   O     O_3   0.334280 0.834290 0.749180 -0.308428
O18   O     O_3   0.665720 0.834290 0.250820 -0.262997
O19   O     O_3   0.834280 0.334290 0.749180 -0.308427
O20   O     O_3   0.165720 0.334290 0.250820 -0.262999
O21   O     O_R   0.236160 0.958490 0.823130 -0.521885
O22   O     O_R   0.763840 0.958490 0.176870 -0.525981
O23   O     O_R   0.736160 0.458490 0.823130 -0.521884
O24   O     O_R   0.263840 0.458490 0.176870 -0.525984
O25   O     O_R   0.332080 0.075470 0.831280 -0.468868
O26   O     O_R   0.667920 0.075470 0.168720 -0.473308
O27   O     O_R   0.832080 0.575470 0.831280 -0.468874
O28   O     O_R   0.167920 0.575470 0.168720 -0.473294
O29   O     O_R   0.446300 0.918110 0.826620 -0.494957
O30   O     O_R   0.553700 0.918110 0.173380 -0.506913
O31   O     O_R   0.946300 0.418110 0.826620 -0.494963
O32   O     O_R   0.053700 0.418110 0.173380 -0.506904
O33   O     O_R   0.457110 0.716200 0.831760 -0.513795
O34   O     O_R   0.542890 0.716200 0.168240 -0.522576
O35   O     O_R   0.957110 0.216200 0.831760 -0.513793
O36   O     O_R   0.042890 0.216200 0.168240 -0.522579
O37   O     O_R   0.320980 0.624310 0.823030 -0.500904
O38   O     O_R   0.679020 0.624310 0.176970 -0.507713
O39   O     O_R   0.820980 0.124310 0.823030 -0.500905
O40   O     O_R   0.179020 0.124310 0.176970 -0.507713
O41   O     O_R   0.213890 0.710430 0.665540 -0.498277
O42   O     O_R   0.786110 0.710430 0.334460 -0.522486
O43   O     O_R   0.713890 0.210430 0.665540 -0.498277
O44   O     O_R   0.286110 0.210430 0.334460 -0.522486
O45   O     O_R   0.235810 0.959820 0.673020 -0.524124
O46   O     O_R   0.764190 0.959820 0.326980 -0.505996
O47   O     O_R   0.735810 0.459820 0.673020 -0.524124
O48   O     O_R   0.264190 0.459820 0.326980 -0.505997
O49   O     O_R   0.331700 0.076900 0.669350 -0.530603
O50   O     O_R   0.668300 0.076900 0.330650 -0.521281
O51   O     O_R   0.831700 0.576900 0.669350 -0.530602
O52   O     O_R   0.168300 0.576900 0.330650 -0.521282
O53   O     O_3   0.158623 0.749786 0.080234 -0.553906
C101  C     C_3   0.087224 0.736703 0.057637 -0.120064
H49   H     H_    0.072664 0.638804 0.048482 0.121633
H50   H     H_    0.076109 0.792637 0.009267 0.077932
H51   H     H_    0.052457 0.772228 0.100279 0.138328
O54   O     O_3   0.840027 0.750423 0.919570 -0.550397
C102  C     C_3   0.911604 0.737027 0.941732 -0.118605
H52   H     H_    0.926731 0.638965 0.950064 0.121570
H53   H     H_    0.922670 0.791924 0.990479 0.075846
H54   H     H_    0.945965 0.773506 0.899195 0.140826
O55   O     O_3   0.658623 0.249786 0.080232 -0.553916
C103  C     C_3   0.587222 0.236672 0.057647 -0.120053
H55   H     H_    0.572667 0.138760 0.048523 0.121672
H56   H     H_    0.576097 0.292561 0.009261 0.077921
H57   H     H_    0.552458 0.272229 0.100283 0.138320
O56   O     O_3   0.340025 0.250424 0.919568 -0.550392
C104  C     C_3   0.411602 0.237043 0.941736 -0.118604
H58   H     H_    0.426732 0.138986 0.950088 0.121542
H59   H     H_    0.422664 0.291971 0.990475 0.075853
H60   H     H_    0.445965 0.273502 0.899194 0.140833

loop_
_geom_bond_atom_site_label_1
_geom_bond_atom_site_label_2
_ccdc_geom_bond_type
C8    H28   S    
C58   C62   A    
Cr11  O19   S    
C82   O10   A    
C48   O36   A    
C55   C59   A    
C81   O5    A    
Cr10  O38   S    
C34   C37   A    
C41   C42   A    
C14   C18   A    
Cr9   O37   S    
C35   C36   A    
C40   C83   S    
C13   H33   S    
C103  H55   S    
C2    O26   A    
C5    C94   S    
C94   H2    S    
Cr5   O49   S    
C7    C8    S    
C103  H56   S    
C92   H24   S    
O53   C101  S    
C46   C98   S    
C79   O51   A    
C7    C96   S    
C36   H44   S    
C50   C54   A    
C7    C99   S    
Cr3   O23   S    
C3    O27   A    
C56   H12   S    
C29   C73   S    
C75   O3    A    
C35   H43   S    
C39   C84   S    
C38   C42   A    
C104  H60   S    
C43   H47   S    
C54   C58   A    
C5    C6    S    
C30   C74   S    
C101  H50   S    
C79   O47   A    
Cr3   O19   S    
Cr7   O51   S    
Cr10  O18   S    
C95   C99   S    
Cr6   O50   S    
Cr7   O27   S    
C92   C96   S    
C15   H35   S    
C47   C99   S    
Cr8   O20   S    
C3    C18   S    
C25   H37   S    
C10   H30   S    
Cr5   O25   S    
C68   H20   S    
C9    C13   A    
Cr12  O36   S    
C73   O1    A    
C75   O39   A    
Cr11  O39   S    
C11   C15   A    
C8    C100  S    
C49   H5    S    
O55   C103  S    
C95   H3    S    
C64   H16   S    
C83   O11   A    
Cr10  O34   S    
C85   O13   A    
Cr9   O33   S    
C23   C27   A    
C91   C100  S    
C78   O50   A    
C90   C97   S    
C67   C71   A    
C85   O41   A    
Cr12  O20   S    
Cr7   O19   S    
Cr2   O42   S    
Cr10  O14   S    
Cr8   O8    S    
C11   C31   A    
C49   C69   A    
C12   C32   A    
C25   C29   A    
C47   O35   A    
C57   C80   S    
C42   H46   S    
C8    C95   S    
C51   C71   A    
Cr2   O18   S    
C46   O30   A    
Cr3   O47   S    
C59   C78   S    
C87   O43   A    
O56   C104  S    
Cr8   O52   S    
Cr9   O9    S    
C60   C64   A    
C90   C94   S    
C55   H11   S    
C34   H42   S    
C45   O33   A    
C48   C100  S    
Cr7   O7    S    
C60   C77   S    
C89   H21   S    
C62   C66   A    
C27   C31   A    
Cr2   O22   S    
C12   C16   A    
C28   C32   A    
Cr1   O17   S    
Cr6   O26   S    
C10   C14   A    
Cr5   O17   S    
C102  H52   S    
C62   H14   S    
C1    O21   A    
C101  H49   S    
C39   C43   A    
C51   C55   A    
C86   O42   A    
C83   O7    A    
C89   C93   S    
C88   O44   A    
C74   O38   A    
C12   H32   S    
C46   O34   A    
C73   O37   A    
C68   C72   A    
C86   O14   A    
C6    H26   S    
C15   C19   A    
C43   C44   A    
C78   O46   A    
C63   C67   A    
C32   C76   S    
C104  H58   S    
C52   C72   A    
C69   C85   S    
C77   O45   A    
C102  H53   S    
C2    O22   A    
C10   C30   A    
C93   C97   S    
C51   H7    S    
C26   H38   S    
C16   C20   A    
C6    C93   S    
O54   C102  S    
C33   C34   A    
C93   H1    S    
C4    O24   A    
C5    H25   S    
Cr12  O12   S    
Cr2   O46   S    
Cr1   O45   S    
C58   C79   S    
C54   H10   S    
C71   C87   S    
C4    C17   S    
C52   H8    S    
Cr4   O44   S    
C6    C98   S    
Cr12  O16   S    
C23   O55   S    
C26   C30   A    
C81   O9    A    
C38   C81   S    
C76   O40   A    
C44   H48   S    
C21   O53   S    
C37   C82   S    
C76   O4    A    
C61   H13   S    
Cr6   O30   S    
C22   O54   S    
C70   C86   S    
C103  H57   S    
C64   C68   A    
C31   C75   S    
C91   C92   S    
Cr1   O21   S    
Cr2   O2    S    
C19   C23   A    
C74   O2    A    
C82   O6    A    
C45   O29   A    
C65   C69   A    
C21   C25   A    
C1    C20   S    
C27   H39   S    
C80   O48   A    
C2    C19   S    
C50   H6    S    
Cr3   O3    S    
Cr8   O28   S    
C36   C39   A    
C67   H19   S    
Cr4   O20   S    
C24   C28   A    
Cr11  O15   S    
C84   O12   A    
C101  H51   S    
C53   C57   A    
Cr4   O4    S    
C65   H17   S    
Cr11  O11   S    
C47   O31   A    
C57   C61   A    
C77   O49   A    
Cr12  O40   S    
C87   O15   A    
C14   H34   S    
C59   C63   A    
C33   C38   A    
C88   O16   A    
C80   O52   A    
C89   C98   S    
C72   C88   S    
C1    O25   A    
C4    O28   A    
C28   H40   S    
C18   C22   A    
C35   C40   A    
C50   C70   A    
C33   H41   S    
C104  H59   S    
Cr1   O41   S    
C102  H54   S    
C7    H27   S    
C9    C29   A    
C16   H36   S    
C66   C70   A    
C11   H31   S    
Cr6   O6    S    
C90   H22   S    
C96   C100  S    
Cr1   O1    S    
Cr5   O29   S    
Cr5   O5    S    
C41   H45   S    
Cr9   O13   S    
Cr4   O48   S    
C61   C65   A    
C37   C41   A    
C20   C24   A    
Cr3   O43   S    
C48   O32   A    
C49   C53   A    
C9    H29   S    
C53   H9    S    
C13   C17   A    
C56   C60   A    
C5    C97   S    
C40   C44   A    
C91   H23   S    
C84   O8    A    
Cr10  O10   S    
C91   C95   S    
C22   C26   A    
Cr7   O31   S    
Cr9   O17   S    
C94   C98   S    
C96   H4    S    
Cr4   O24   S    
C45   C97   S    
C89   C90   S    
C24   O56   S    
C3    O23   A    
Cr6   O18   S    
C63   H15   S    
C52   C56   A    
C92   C99   S    
Cr11  O35   S    
C66   H18   S    
Cr8   O32   S    
C17   C21   A    
