data_mof_unit_34323.cif
_audit_creation_date              2012-10-26T20:16:41-0400
_audit_creation_method            fapswitch 2.2
_symmetry_space_group_name_H-M    P1
_symmetry_Int_Tables_number       1
_space_group_crystal_system       triclinic
_cell_length_a                    10.906704
_cell_length_b                    10.905073
_cell_length_c                    9.801673
_cell_angle_alpha                 98.73658
_cell_angle_beta                  98.727637
_cell_angle_gamma                 92.979531
_cell_volume                      1135.56288182

loop_
_atom_site_label
_atom_site_type_symbol
_atom_type_description
_atom_site_fract_x
_atom_site_fract_y
_atom_site_fract_z
_atom_type_partial_charge
C1    C     C_R   0.500939 0.261969 0.499288 0.543814
C2    C     C_R   0.672486 0.949016 0.849644 -0.095825
C3    C     C_R   0.447549 0.076586 0.228528 0.061378
C4    C     C_R   0.552461 0.923415 0.771472 0.061378
C5    C     C_R   0.541964 0.132149 0.169848 -0.030157
C6    C     C_R   0.458048 0.867853 0.830156 -0.030156
C7    C     C_R   0.514964 0.166407 0.037360 -0.093015
C8    C     C_R   0.485052 0.833597 0.962645 -0.093019
C9    C     C_R   0.394719 0.142272 0.961109 -0.122708
C10   C     C_R   0.605299 0.857733 0.038892 -0.122709
C11   C     C_R   0.471577 0.914919 0.375977 -0.165855
C12   C     C_R   0.499062 0.738031 0.500712 0.543815
C13   C     C_R   0.528428 0.085081 0.624022 -0.165856
C14   C     C_R   0.497777 0.872247 0.503790 -0.008733
C15   C     C_R   0.502227 0.127753 0.496210 -0.008734
C16   C     C_R   0.261971 0.500939 0.499287 0.543760
C17   C     C_R   0.738029 0.499060 0.500713 0.543759
C18   C     C_R   0.525285 0.958804 0.630336 -0.032949
C19   C     C_R   0.474721 0.041196 0.369664 -0.032949
C20   C     C_2   0.510773 0.510299 0.078979 -0.042910
C21   C     C_2   0.489227 0.489702 0.921021 -0.042909
C22   C     C_R   0.166090 0.514567 0.037103 -0.093848
C23   C     C_R   0.872247 0.497792 0.503795 -0.008770
C24   C     C_R   0.833905 0.485413 0.962892 -0.093843
C25   C     C_R   0.132123 0.541631 0.169737 -0.030176
C26   C     C_R   0.867874 0.458355 0.830258 -0.030177
C27   C     C_R   0.076575 0.447280 0.228531 0.061410
C28   C     C_R   0.923424 0.552709 0.771469 0.061410
C29   C     C_R   0.050763 0.327241 0.150363 -0.095922
C30   C     C_R   0.949235 0.672746 0.849642 -0.095921
C31   C     C_R   0.082504 0.301349 0.016654 -0.119929
C32   C     C_R   0.917491 0.698633 0.983351 -0.119929
C33   C     C_R   0.141713 0.394313 0.960841 -0.123188
C34   C     C_R   0.127752 0.502204 0.496205 -0.008770
C35   C     C_R   0.858281 0.605666 0.039158 -0.123187
C36   C     C_R   0.914938 0.471486 0.375996 -0.165848
C37   C     C_R   0.085062 0.528509 0.624005 -0.165847
C38   C     C_R   0.958792 0.525403 0.630325 -0.032895
C39   C     C_R   0.041207 0.474591 0.369675 -0.032895
C40   C     C_R   0.301703 0.082994 0.016771 -0.119874
C41   C     C_R   0.698313 0.917008 0.983225 -0.119873
C42   C     C_R   0.327525 0.050985 0.150351 -0.095824
Cu1   Cu    Cu3+1 0.521120 0.521140 0.639640 0.933629
Cu2   Cu    Cu3+1 0.478880 0.478860 0.360360 0.933628
H1    H     H_    0.167354 0.373401 0.857910 0.100300
H2    H     H_    0.582077 0.580749 0.135017 0.143150
H3    H     H_    0.620068 0.618909 0.904928 0.230179
H4    H     H_    0.379933 0.381090 0.095072 0.230179
H5    H     H_    0.210751 0.586918 0.993224 0.096220
H6    H     H_    0.789243 0.413061 0.006765 0.096219
H7    H     H_    0.150480 0.635332 0.227498 0.098146
H8    H     H_    0.849517 0.364655 0.772493 0.098143
H9    H     H_    0.005690 0.254089 0.192799 0.092724
H10   H     H_    0.994309 0.745901 0.807211 0.092724
H11   H     H_    0.060226 0.209436 0.955820 0.091801
H12   H     H_    0.832638 0.626575 0.142088 0.100300
H13   H     H_    0.939769 0.790545 0.044188 0.091802
H14   H     H_    0.849458 0.449165 0.279229 0.126426
H15   H     H_    0.150542 0.550829 0.720771 0.126426
H16   H     H_    0.209796 0.060896 0.955929 0.091837
H17   H     H_    0.790221 0.939107 0.044063 0.091836
H18   H     H_    0.254318 0.005917 0.192703 0.092717
H19   H     H_    0.745691 0.994083 0.807288 0.092717
H20   H     H_    0.373849 0.168149 0.858296 0.100264
H21   H     H_    0.626171 0.831856 0.141705 0.100264
H22   H     H_    0.635647 0.150367 0.227628 0.097925
H23   H     H_    0.364364 0.849636 0.772380 0.097927
H24   H     H_    0.587355 0.211109 0.993585 0.096207
H25   H     H_    0.412662 0.788896 0.006424 0.096208
H26   H     H_    0.449315 0.849424 0.279202 0.126509
H27   H     H_    0.550691 0.150576 0.720797 0.126510
H28   H     H_    0.417921 0.419252 0.864983 0.143150
N1    N     N_2   0.447120 0.447110 0.150550 -0.350209
N2    N     N_2   0.552880 0.552890 0.849450 -0.350209
O1    O     O_R   0.517830 0.337490 0.617920 -0.513190
O2    O     O_R   0.482170 0.662510 0.382080 -0.513189
O3    O     O_R   0.482150 0.301790 0.382070 -0.484419
O4    O     O_R   0.517850 0.698210 0.617930 -0.484419
O5    O     O_R   0.337480 0.517860 0.617920 -0.513301
O6    O     O_R   0.662520 0.482140 0.382080 -0.513301
O7    O     O_R   0.301810 0.482160 0.382070 -0.484676
O8    O     O_R   0.698190 0.517840 0.617930 -0.484675

loop_
_geom_bond_atom_site_label_1
_geom_bond_atom_site_label_2
_ccdc_geom_bond_type
C3    C42   A    
C40   H16   S    
C27   C29   A    
C9    H20   S    
C33   H1    S    
C14   C18   A    
C41   H17   S    
C11   H26   S    
Cu1   O4    S    
C15   C19   A    
C30   H10   S    
C11   C19   A    
C8    H25   S    
C17   C23   S    
C13   C18   A    
Cu2   O3    S    
C24   C26   A    
C36   H14   S    
C11   C14   A    
C2    C41   A    
Cu1   O5    S    
C34   C37   A    
C1    O3    A    
C17   O8    A    
Cu2   O2    S    
C16   C34   S    
C7    H24   S    
C27   C39   S    
C22   C25   A    
C12   O4    A    
C31   C33   A    
C3    C19   S    
C1    C15   S    
C42   H18   S    
C4    C18   S    
Cu1   N2    S    
C40   C42   A    
C10   C41   A    
Cu1   O1    S    
C32   H13   S    
C24   H6    S    
C24   C35   A    
C21   H28   S    
C34   C39   A    
C1    O1    A    
C32   C35   A    
Cu2   O6    S    
C4    C6    A    
Cu2   O7    S    
C5    C7    A    
C6    C8    A    
C13   H27   S    
C21   N2    D    
C17   O6    A    
C2    C4    A    
Cu1   Cu2   S    
C25   H7    S    
C37   C38   A    
C26   H8    S    
C28   C38   S    
C37   H15   S    
C22   H5    S    
C6    H23   S    
C12   C14   S    
C13   C15   A    
C12   O2    A    
C2    H19   S    
C10   H21   S    
C7    C9    A    
C22   C33   A    
C35   H12   S    
H4    N1    S    
C36   C39   A    
H3    N2    S    
C5    H22   S    
C3    C5    A    
C25   C27   A    
C23   C38   A    
C26   C28   A    
C16   O5    A    
C28   C30   A    
C29   C31   A    
C30   C32   A    
C29   H9    S    
C16   O7    A    
C20   N1    D    
C9    C40   A    
Cu2   N1    S    
C20   C21   S    
C8    C10   A    
C23   C36   A    
Cu1   O8    S    
C31   H11   S    
C20   H2    S    
