data_mof_unit_7613.cif
_audit_creation_date              2012-12-11T14:17:38-0500
_audit_creation_method            fapswitch 2.2
_symmetry_space_group_name_H-M    P1
_symmetry_Int_Tables_number       1
_space_group_crystal_system       triclinic
_cell_length_a                    6.949759
_cell_length_b                    13.606519
_cell_length_c                    20.429507
_cell_angle_alpha                 101.903304
_cell_angle_beta                  89.233822
_cell_angle_gamma                 91.08843
_cell_volume                      1889.8857794

loop_
_atom_site_label
_atom_site_type_symbol
_atom_type_description
_atom_site_fract_x
_atom_site_fract_y
_atom_site_fract_z
_atom_type_partial_charge
O1    O     O_R   0.506860 0.599390 0.449240 -0.538907
O2    O     O_R   0.180220 0.594600 0.586780 -0.543751
O3    O     O_R   0.004500 0.400610 0.550760 -0.540491
C1    C     C_R   0.348501 0.615017 0.613797 0.730511
O4    O     O_R   0.177490 0.611290 0.451970 -0.540758
O5    O     O_R   0.001750 0.417420 0.414990 -0.539178
C2    C     C_R   0.348655 0.636928 0.434025 0.727319
O6    O     O_R   0.509610 0.582580 0.585010 -0.542231
O7    O     O_3   0.337420 0.436370 0.488020 -0.372798
V1    V     V_3+5 0.064680 0.511800 0.502220 1.413582
O8    O     O_R   0.671710 0.405400 0.413220 -0.545364
C3    C     C_R   0.840234 0.383718 0.386683 0.742633
O9    O     O_R   0.674440 0.388710 0.548030 -0.541981
C4    C     C_R   0.841642 0.363553 0.566126 0.720979
V2    V     V_3+5 0.564010 0.488200 0.497780 1.413936
O10   O     O_3   0.841140 0.563630 0.511980 -0.372048
C5    C     C_R   0.892934 0.114538 0.615460 0.451241
H1    H     H_    0.904999 0.167647 0.523268 0.125691
C6    C     C_R   0.848512 0.287201 0.606921 -0.108515
C7    C     C_R   0.896736 0.317060 0.930085 -0.248451
C8    C     C_R   0.920010 0.392610 0.894251 -0.172159
C9    C     C_R   0.919341 0.371061 0.824384 0.415962
C10   C     C_R   0.871962 0.271738 0.788714 -0.015839
C11   C     C_R   0.850444 0.194610 0.826218 -0.035473
C12   C     C_R   0.856712 0.244559 0.717467 -0.030665
C13   C     C_R   0.858166 0.141237 0.685449 -0.070199
C14   C     C_R   0.824267 0.066774 0.723162 0.444317
C15   C     C_R   0.814939 0.095023 0.792933 -0.278463
C16   C     C_R   0.835866 0.315663 0.676530 -0.203531
C17   C     C_R   0.884227 0.187837 0.576861 -0.258633
C18   C     C_R   0.867041 0.217956 0.896723 -0.049386
H2    H     H_    0.803572 0.393086 0.697105 0.166686
H3    H     H_    0.908102 0.335553 0.984104 0.122889
H4    H     H_    0.948711 0.468382 0.920884 0.134704
H5    H     H_    0.781180 0.038051 0.821274 0.132257
C19   C     C_2   0.005667 0.283700 0.286237 -0.138170
C20   C     C_2   0.842654 0.315103 0.320073 -0.332719
H6    H     H_    0.143424 0.308507 0.308872 0.144313
H7    H     H_    0.703478 0.290484 0.299026 0.132542
C21   C     C_2   0.012825 0.216032 0.218519 -0.127238
C22   C     C_2   0.857837 0.182415 0.180669 -0.313660
H8    H     H_    0.155253 0.193946 0.199067 0.135555
H9    H     H_    0.714042 0.203324 0.198610 0.128566
C23   C     C_2   0.205459 0.775239 0.788098 -0.158884
C24   C     C_2   0.365539 0.814079 0.820522 -0.285780
H10   H     H_    0.066553 0.793224 0.812091 0.131742
H11   H     H_    0.505772 0.794164 0.798702 0.128686
C25   C     C_2   0.203824 0.707579 0.720345 -0.138661
C26   C     C_2   0.360261 0.682136 0.680842 -0.313466
H12   H     H_    0.063725 0.678048 0.702285 0.136285
H13   H     H_    0.502479 0.709212 0.697525 0.135194
C27   C     C_R   0.513112 0.871373 0.377314 0.409411
H14   H     H_    0.525030 0.816866 0.468507 0.143439
H15   H     H_    0.476061 0.004195 0.296038 0.134964
C28   C     C_R   0.370253 0.713104 0.392762 -0.138213
C29   C     C_R   0.292900 0.683588 0.070328 0.381918
C30   C     C_R   0.291795 0.606358 0.105869 -0.275635
C31   C     C_R   0.331927 0.625783 0.174260 0.347270
C32   C     C_R   0.352873 0.727068 0.210370 -0.015056
C33   C     C_R   0.368472 0.804418 0.172758 -0.038723
C34   C     C_R   0.372411 0.754060 0.281555 0.050332
C35   C     C_R   0.444196 0.851411 0.310783 0.034362
C36   C     C_R   0.445588 0.926592 0.273303 -0.219318
C37   C     C_R   0.405845 0.903952 0.205840 -0.152270
C38   C     C_R   0.321142 0.689027 0.325010 -0.228762
C39   C     C_R   0.473527 0.801871 0.417569 -0.226609
C40   C     C_R   0.345540 0.781359 0.102632 -0.190133
H16   H     H_    0.243436 0.619365 0.307407 0.173015
H17   H     H_    0.266617 0.529672 0.079460 0.156579
H18   H     H_    0.410772 0.965369 0.179536 0.112307
O11   O     O_R   0.203230 0.917310 0.915020 -0.538394
O12   O     O_R   0.535500 0.888690 0.048040 -0.545330
O13   O     O_R   0.711080 0.082610 0.085000 -0.545755
C41   C     C_R   0.363996 0.860024 0.063162 0.773573
O14   O     O_R   0.532630 0.905370 0.913230 -0.549474
O15   O     O_R   0.708190 0.099410 0.949230 -0.540139
C42   C     C_R   0.364798 0.883117 0.886906 0.760148
O16   O     O_R   0.206120 0.900510 0.050790 -0.546246
O17   O     O_3   0.375360 0.063570 0.011990 -0.373883
V3    V     V_3+5 0.648170 0.988200 0.997780 1.402891
O18   O     O_R   0.038240 0.111390 0.951940 -0.540975
C43   C     C_R   0.870790 0.139137 0.936038 0.705156
O19   O     O_R   0.041120 0.094710 0.086750 -0.542528
C44   C     C_R   0.872078 0.115400 0.113640 0.739658
V4    V     V_3+5 0.148810 0.011930 0.002180 1.413306
O20   O     O_3   0.871750 0.936430 0.988010 -0.378893
O21   O     O_3   0.614592 0.958468 0.405699 -0.583837
C45   C     C_3   0.776375 0.976408 0.366179 0.062763
H19   H     H_    0.754115 0.049411 0.351225 0.148274
H20   H     H_    0.799442 0.918331 0.319624 0.108724
C46   C     C_3   0.960733 0.983306 0.406755 -0.304544
H21   H     H_    0.927073 0.010131 0.460324 0.247619
H22   H     H_    0.023835 0.907400 0.400541 0.186865
C47   C     C_3   0.107352 0.055332 0.384597 -0.842749
H23   H     H_    0.128572 0.035733 0.329539 0.242095
H24   H     H_    0.247347 0.051177 0.409196 0.251470
H25   H     H_    0.055831 0.133750 0.398660 0.228329
O22   O     O_3   0.773603 0.969911 0.690145 -0.536408
C48   C     C_3   0.868692 0.896474 0.716736 -0.252764
H26   H     H_    0.788155 0.879572 0.760455 0.125593
H27   H     H_    0.020583 0.918467 0.730120 0.130118
H28   H     H_    0.871671 0.826153 0.678014 0.161550
O23   O     O_3   0.256533 0.661867 0.002502 -0.560241
C49   C     C_3   0.055517 0.662449 0.993944 -0.260011
H29   H     H_    0.993784 0.736623 0.016831 0.160624
H30   H     H_    0.982333 0.602440 0.015215 0.130799
H31   H     H_    0.024888 0.648310 0.939643 0.156681
O24   O     O_3   0.359859 0.543752 0.203197 -0.579318
C50   C     C_3   0.559578 0.530929 0.211452 0.089695
H32   H     H_    0.577225 0.499443 0.257030 0.133129
H33   H     H_    0.644912 0.602762 0.220129 0.114303
C51   C     C_3   0.642314 0.456382 0.151508 -0.341937
H34   H     H_    0.571685 0.381596 0.148443 0.198640
H35   H     H_    0.613742 0.482160 0.104460 0.197043
C52   C     C_3   0.859302 0.446605 0.157820 -0.793779
H36   H     H_    0.932835 0.519300 0.156382 0.237816
H37   H     H_    0.914092 0.388566 0.115655 0.222796
H38   H     H_    0.893731 0.424378 0.205548 0.252897
O25   O     O_3   0.932230 0.016761 0.583527 -0.561405
C53   C     C_3   0.119160 0.990864 0.600370 0.125547
H39   H     H_    0.119039 0.908734 0.598730 0.145548
H40   H     H_    0.163168 0.027817 0.652065 0.104196
C54   C     C_3   0.267902 0.013653 0.549584 -0.425666
H41   H     H_    0.245896 0.960577 0.501148 0.212745
H42   H     H_    0.251463 0.091612 0.542070 0.211008
C55   C     C_3   0.471032 0.002469 0.573422 -0.674717
H43   H     H_    0.497118 0.057479 0.620831 0.233095
H44   H     H_    0.575692 0.017489 0.535140 0.274220
H45   H     H_    0.492349 0.925279 0.581715 0.237530
O26   O     O_3   0.969588 0.448716 0.792901 -0.591422
C56   C     C_3   0.165960 0.441911 0.773302 0.047081
H46   H     H_    0.180116 0.469329 0.725817 0.147033
H47   H     H_    0.220648 0.363454 0.762413 0.115872
C57   C     C_3   0.290755 0.509169 0.826247 -0.304477
H48   H     H_    0.236002 0.587041 0.836188 0.222517
H49   H     H_    0.283656 0.481178 0.873597 0.207054
C58   C     C_3   0.500155 0.510159 0.803256 -0.769058
H50   H     H_    0.555985 0.432607 0.792983 0.233200
H51   H     H_    0.588163 0.557572 0.843053 0.244703
H52   H     H_    0.513319 0.541074 0.757147 0.222976

loop_
_geom_bond_atom_site_label_1
_geom_bond_atom_site_label_2
_ccdc_geom_bond_type
C23   C25   S    
O21   C45   S    
C14   O22   S    
C55   H43   S    
C2    C28   S    
C1    O6    A    
C56   C57   S    
C57   C58   S    
C49   H30   S    
O18   C43   A    
C54   H41   S    
V4    O20   S    
C29   C30   A    
C58   H51   S    
C13   C14   A    
C18   C43   S    
C5    C13   A    
C19   C20   D    
C16   H2    S    
C50   H33   S    
O5    C3    A    
C54   H42   S    
H15   C36   S    
V2    O10   S    
O24   C50   S    
C3    C20   S    
C49   H29   S    
V3    O20   S    
O11   V4    S    
O8    V2    S    
O13   V3    S    
O19   C44   A    
C15   H5    S    
C23   H10   S    
C26   H13   S    
C10   C11   A    
H1    C17   S    
C37   H18   S    
O7    V1    S    
O13   C44   A    
C53   C54   S    
C38   H16   S    
C21   H8    S    
C32   C33   A    
C8    C9    A    
C9    O26   S    
C5    C17   A    
C22   H9    S    
C47   H23   S    
C51   H35   S    
C51   H34   S    
C28   C38   A    
C53   H40   S    
C24   H11   S    
C12   C16   A    
C58   H52   S    
C32   C34   A    
C11   C15   A    
C19   C21   S    
C33   C40   A    
O12   C41   A    
C50   C51   S    
O15   C43   A    
C46   H21   S    
O4    C2    A    
C54   C55   S    
C57   H49   S    
C8    H4    S    
C47   H25   S    
C52   H37   S    
C12   C13   A    
C22   C44   S    
C27   C35   A    
O17   V3    S    
O2    C1    A    
C35   C36   A    
C46   H22   S    
C48   H26   S    
C45   C46   S    
O25   C53   S    
C52   H38   S    
C40   C41   S    
C7    C8    A    
C47   H24   S    
H14   C39   S    
O14   C42   A    
C49   H31   S    
O3    C4    A    
O1    V2    S    
C7    H3    S    
O16   V4    S    
C21   C22   D    
O19   V4    S    
C45   H20   S    
O6    V2    S    
O9    V2    S    
C56   H46   S    
O2    V1    S    
O11   C42   A    
C28   C39   A    
C27   C39   A    
C53   H39   S    
O14   V3    S    
C25   C26   D    
C55   H44   S    
C48   H27   S    
O1    C2    A    
C4    C6    S    
C27   O21   S    
C23   C24   D    
O15   V3    S    
C29   O23   S    
C56   H47   S    
O5    V1    S    
O8    C3    A    
C57   H48   S    
C29   C40   A    
C58   H50   S    
C55   H45   S    
C1    C26   S    
C33   C37   A    
C19   H6    S    
O26   C56   S    
C31   C32   A    
C11   C18   A    
O4    V1    S    
O12   V3    S    
O3    V1    S    
V1    O10   S    
C50   H32   S    
C46   C47   S    
C30   C31   A    
C25   H12   S    
O17   V4    S    
C31   O24   S    
C10   C12   A    
O7    V2    S    
C34   C35   A    
C5    O25   S    
C36   C37   A    
C34   C38   A    
C48   H28   S    
C45   H19   S    
C20   H7    S    
O22   C48   S    
C41   O16   A    
O23   C49   S    
C9    C10   A    
C24   C42   S    
C30   H17   S    
O9    C4    A    
C6    C17   A    
C51   C52   S    
O18   V4    S    
C52   H36   S    
C14   C15   A    
C7    C18   A    
C6    C16   A    
