data_mof_unit_24369.cif
_audit_creation_date              2013-03-05T15:52:18-0500
_audit_creation_method            fapswitch 2.2
_symmetry_space_group_name_H-M    P1
_symmetry_Int_Tables_number       1
_space_group_crystal_system       triclinic
_cell_length_a                    21.43711
_cell_length_b                    7.242921
_cell_length_c                    14.696709
_cell_angle_alpha                 90.063652
_cell_angle_beta                  74.73519
_cell_angle_gamma                 89.988622
_cell_volume                      2201.40892907

loop_
_atom_site_label
_atom_site_type_symbol
_atom_site_description
_atom_site_fract_x
_atom_site_fract_y
_atom_site_fract_z
_atom_type_partial_charge
O1    O     O_R   0.464160 0.506670 0.130070 -0.592436
O2    O     O_R   0.535840 0.006670 0.869930 -0.592766
O3    O     O_R   0.589710 0.179080 0.006710 -0.598824
O4    O     O_R   0.410290 0.679080 0.993290 -0.599111
C1    C     C_R   0.616276 0.344586 0.002069 0.922137
C2    C     C_R   0.383731 0.844611 0.997900 0.922598
O5    O     O_R   0.467940 0.177220 0.138010 -0.577852
O6    O     O_R   0.532060 0.677220 0.861990 -0.577778
O7    O     O_R   0.413200 0.002810 0.002170 -0.564668
O8    O     O_R   0.586800 0.502810 0.997830 -0.564053
C3    C     C_R   0.456070 0.345686 0.174530 0.933975
C4    C     C_R   0.543901 0.845450 0.825459 0.934708
O9    O     O_3   0.482180 0.337850 0.955280 -0.287982
O10   O     O_3   0.517820 0.837850 0.044720 -0.287648
V1    V     V_3+5 0.503310 0.064600 0.008300 1.197005
V2    V     V_3+5 0.496690 0.564600 0.991700 1.197149
C5    C     C_R   0.572074 0.853820 0.723605 -0.099448
C6    C     C_R   0.427785 0.355145 0.276347 -0.099026
C7    C     C_R   0.928705 0.864726 0.277402 -0.268461
C8    C     C_R   0.071044 0.363143 0.722579 -0.270123
C9    C     C_R   0.559867 0.859465 0.565140 -0.163484
C10   C     C_R   0.439874 0.377073 0.434557 -0.163419
C11   C     C_R   0.532442 0.851254 0.662078 -0.184857
C12   C     C_R   0.467410 0.364719 0.337750 -0.184576
C13   C     C_R   0.639235 0.864430 0.688401 -0.210458
C14   C     C_R   0.360521 0.358334 0.311533 -0.214079
C15   C     C_R   0.668588 0.871743 0.590091 0.154258
C16   C     C_R   0.331077 0.371172 0.409678 0.154636
C17   C     C_R   0.627311 0.868997 0.528742 0.167371
C18   C     C_R   0.372346 0.379918 0.470929 0.167980
C19   C     C_R   0.737194 0.878646 0.550828 -0.038739
C20   C     C_R   0.262424 0.373574 0.448893 -0.039357
C21   C     C_R   0.763319 0.878868 0.450575 0.074861
C22   C     C_R   0.236279 0.380012 0.549091 0.075276
C23   C     C_R   0.719850 0.878891 0.392958 -0.063279
C24   C     C_R   0.279713 0.390407 0.606594 -0.062180
C25   C     C_R   0.653431 0.874455 0.431475 -0.244564
C26   C     C_R   0.346153 0.390852 0.568069 -0.245006
C27   C     C_R   0.780491 0.884234 0.608516 -0.344806
C28   C     C_R   0.219111 0.369477 0.391208 -0.346118
C29   C     C_R   0.846917 0.882581 0.570434 0.831747
C30   C     C_R   0.152711 0.364802 0.429362 0.833455
C31   C     C_R   0.873225 0.876255 0.472905 -0.142770
C32   C     C_R   0.126438 0.364468 0.526952 -0.144013
C33   C     C_R   0.832028 0.876900 0.411436 0.048919
C34   C     C_R   0.167603 0.374250 0.588313 0.048003
C35   C     C_R   0.940640 0.866818 0.436441 -0.135937
C36   C     C_R   0.059109 0.351836 0.563615 -0.133947
C37   C     C_R   0.968701 0.856520 0.339313 0.338503
C38   C     C_R   0.031097 0.346658 0.660867 0.335981
C39   C     C_R   0.861486 0.873926 0.313129 -0.092157
C40   C     C_R   0.138170 0.375991 0.686630 -0.091242
H1    H     H_    0.622115 0.873444 0.384314 0.137259
H2    H     H_    0.377450 0.398460 0.615143 0.136748
H3    H     H_    0.833862 0.878514 0.261684 0.131764
H4    H     H_    0.165778 0.386023 0.737941 0.132027
H5    H     H_    0.528290 0.857271 0.518399 0.126108
H6    H     H_    0.471448 0.384168 0.481210 0.126120
H7    H     H_    0.480366 0.843181 0.689153 0.111641
H8    H     H_    0.519563 0.363060 0.310670 0.111643
H9    H     H_    0.666751 0.864297 0.740031 0.143729
H10   H     H_    0.333030 0.349343 0.260024 0.147494
H11   H     H_    0.735306 0.881542 0.317153 0.148571
H12   H     H_    0.264218 0.398375 0.682309 0.147078
H13   H     H_    0.764782 0.889671 0.684272 0.186213
H14   H     H_    0.234792 0.369860 0.315403 0.188600
H15   H     H_    0.971769 0.861732 0.483761 0.212490
H16   H     H_    0.028047 0.340044 0.516425 0.213444
C41   C     C_3   0.229171 0.773540 0.907375 0.290024
C42   C     C_3   0.770927 0.272280 0.092199 0.290999
H17   H     H_    0.214202 0.625949 0.908137 0.072612
H18   H     H_    0.785999 0.124659 0.090706 0.072682
C43   C     C_3   0.302497 0.775956 0.904714 -0.623185
C44   C     C_3   0.697600 0.274818 0.094909 -0.622133
H19   H     H_    0.330805 0.860252 0.844744 0.189828
H20   H     H_    0.669255 0.358488 0.155238 0.189493
H21   H     H_    0.321934 0.632890 0.892775 0.186021
H22   H     H_    0.678263 0.131651 0.106269 0.186554
H23   H     H_    0.178056 0.606881 0.083070 0.195336
H24   H     H_    0.822139 0.107762 0.915930 0.196635
H25   H     H_    0.286441 0.588765 0.072121 0.191420
H26   H     H_    0.713797 0.089693 0.926603 0.191619
C45   C     C_3   0.197994 0.748457 0.084214 -0.354280
C46   C     C_3   0.802137 0.249402 0.915283 -0.351539
C47   C     C_3   0.214132 0.061423 0.011485 -0.438227
C48   C     C_3   0.785693 0.561519 0.989400 -0.439084
C49   C     C_3   0.187590 0.864349 0.000412 -0.171747
C50   C     C_3   0.812421 0.364321 0.999588 -0.172994
H27   H     H_    0.185907 0.123073 0.079303 0.218353
H28   H     H_    0.813853 0.624005 0.921855 0.217326
H29   H     H_    0.207390 0.155636 0.955307 0.171241
H30   H     H_    0.792356 0.655017 0.045998 0.171192
C51   C     C_3   0.312586 0.853154 0.998541 -0.092680
C52   C     C_3   0.687431 0.353118 0.001419 -0.093370
C53   C     C_3   0.270914 0.735836 0.080886 -0.333233
C54   C     C_3   0.729217 0.236845 0.918531 -0.334499
C55   C     C_3   0.286426 0.055222 0.010120 0.689965
C56   C     C_3   0.713407 0.555320 0.990733 0.691161
H31   H     H_    0.314256 0.140827 0.950253 0.026561
H32   H     H_    0.685494 0.640198 0.050973 0.025537
H33   H     H_    0.171876 0.814141 0.151841 0.244753
H34   H     H_    0.828310 0.315640 0.847899 0.243248
H35   H     H_    0.278339 0.783904 0.149212 0.198755
H36   H     H_    0.721771 0.285847 0.850422 0.198713
O11   O     O_R   0.913210 0.208550 0.002110 -0.591773
O12   O     O_R   0.086790 0.708550 0.997890 -0.592636
O13   O     O_R   0.032060 0.539960 0.861980 -0.580125
O14   O     O_R   0.967940 0.039960 0.138020 -0.579858
C57   C     C_R   0.043969 0.372328 0.825160 1.000244
C58   C     C_R   0.955902 0.872612 0.174827 1.001604
O15   O     O_R   0.910290 0.538020 0.993280 -0.599698
O16   O     O_R   0.089710 0.038020 0.006720 -0.598977
O17   O     O_R   0.964160 0.712340 0.130090 -0.559386
O18   O     O_R   0.035840 0.212340 0.869910 -0.558058
C59   C     C_R   0.883983 0.370245 0.997864 0.982090
C60   C     C_R   0.116019 0.870230 0.002155 0.983235
O19   O     O_3   0.017820 0.379210 0.044690 -0.279750
O20   O     O_3   0.982180 0.879210 0.955310 -0.279176
V3    V     V_3+5 0.996690 0.652500 0.991710 1.261617
V4    V     V_3+5 0.003310 0.152500 0.008290 1.263336
N1    N     N_R   0.217866 0.859474 0.822603 0.232204
O21   O     O_R   0.239135 0.024476 0.796320 -0.450552
O22   O     O_R   0.188847 0.766318 0.769994 -0.422621
N2    N     N_R   0.782184 0.356895 0.177386 0.232476
O23   O     O_R   0.760927 0.521722 0.204373 -0.452732
O24   O     O_R   0.811065 0.262621 0.229703 -0.421496
F1    F     F_    0.294293 0.132403 0.092890 -0.713769
F2    F     F_    0.705485 0.633527 0.908298 -0.712552
N3    N     N_R   0.037350 0.831898 0.304827 0.228546
O25   O     O_R   0.076164 0.903903 0.349945 -0.364986
O26   O     O_R   0.060215 0.712585 0.238214 -0.414728
N4    N     N_R   0.962589 0.319223 0.695655 0.229984
O27   O     O_R   0.923409 0.384677 0.649382 -0.368948
O28   O     O_R   0.940344 0.203479 0.764073 -0.408928
F3    F     F_    0.885763 0.885600 0.630120 -0.651062
F4    F     F_    0.113869 0.358945 0.369709 -0.650913

loop_
_geom_bond_atom_site_label_1
_geom_bond_atom_site_label_2
_geom_bond_distance
_ccdc_geom_bond_type
C45   C49   1.555007 S    
C3    C6    1.460656 S    
O12   V3    1.999072 S    
C15   C17   1.419986 A    
C21   C33   1.433308 A    
C44   C52   1.554476 S    
O1    C3    1.326148 A    
C43   C51   1.554447 S    
H24   C46   1.112833 S    
O2    C4    1.326390 A    
C2    O7    1.317922 A    
C1    C52   1.524118 S    
C47   H29   1.110061 S    
O8    V2    2.007795 S    
C27   C29   1.386158 A    
C52   C56   1.560263 S    
C11   H7    1.083589 S    
C5    C11   1.394377 A    
C44   H20   1.112465 S    
C6    C12   1.394369 A    
O15   V3    2.024038 S    
C23   C25   1.387227 A    
C36   C38   1.397521 A    
H25   C53   1.113137 S    
C48   C50   1.560789 S    
C29   F3    1.359423 S    
C33   C39   1.416400 A    
C34   C40   1.416326 A    
C46   H34   1.110979 S    
C18   C26   1.391890 A    
C30   F4    1.359434 S    
C46   C54   1.553987 S    
C35   H15   1.083849 S    
C41   H17   1.115402 S    
O14   V4    2.029025 S    
O20   V3    1.780059 S    
C8    C38   1.406754 A    
O17   V3    2.015280 S    
C53   H35   1.112801 S    
N4    O27   1.301542 A    
C6    C14   1.398022 A    
C4    C5    1.460609 S    
C42   C44   1.562002 S    
C19   C21   1.431797 A    
O11   V4    1.998957 S    
C41   C43   1.562145 S    
C22   C34   1.433403 A    
C45   H33   1.110616 S    
C22   C24   1.414584 A    
C41   C49   1.566130 S    
C55   F1    1.388245 S    
C25   H1    1.084498 S    
C28   C30   1.386179 A    
C42   C50   1.566188 S    
C51   C53   1.554978 S    
C28   H14   1.075647 S    
C29   C31   1.396008 A    
C30   C32   1.396052 A    
O13   V3    2.027201 S    
C55   H31   1.113316 S    
C32   C34   1.419838 A    
C47   C49   1.560845 S    
H26   C54   1.113136 S    
C15   C19   1.432379 A    
C16   C20   1.432404 A    
C35   C37   1.397374 A    
C48   H28   1.113662 S    
O19   V4    1.779076 S    
O16   V4    2.023716 S    
C47   H27   1.113664 S    
O5    V1    2.027187 S    
C9    C17   1.405041 A    
C42   H18   1.115422 S    
O12   C60   1.337409 A    
C20   C22   1.431806 A    
O4    V2    2.023647 S    
O5    C3    1.329729 A    
C9    H5    1.084062 S    
C42   N2    1.469262 S    
C7    C37   1.406223 A    
C26   H2    1.084506 S    
C41   N1    1.469343 S    
O6    C4    1.329353 A    
C2    C51   1.523940 S    
C45   C53   1.553692 S    
C49   C60   1.528325 S    
O1    V2    2.013228 S    
C13   H9    1.076752 S    
C36   H16   1.083863 S    
C52   C54   1.555131 S    
O2    V1    2.012231 S    
C31   C33   1.419922 A    
C58   O17   1.322163 A    
N1    O21   1.301482 A    
C38   N4    1.436185 S    
C57   O18   1.321787 A    
N4    O28   1.300317 A    
O4    C2    1.321141 A    
C56   H32   1.113323 S    
C9    C11   1.392122 A    
C10   C12   1.392177 A    
C43   H19   1.112444 S    
C24   C26   1.387281 A    
C51   C55   1.560233 S    
O16   C60   1.333839 A    
O3    V1    2.023967 S    
N2    O24   1.300924 A    
N3    O25   1.301506 A    
C7    C58   1.467369 S    
C10   C18   1.405070 A    
O11   C59   1.337346 A    
C46   C50   1.555052 S    
O3    C1    1.321358 A    
C10   H6    1.084064 S    
C23   H11   1.075647 S    
C13   C15   1.416953 A    
C27   H13   1.075637 S    
C14   C16   1.416993 A    
C5    C13   1.397976 A    
C50   C59   1.528207 S    
C54   H36   1.112788 S    
C14   H10   1.076758 S    
C16   C18   1.419950 A    
C8    C40   1.399405 A    
C32   C36   1.404473 A    
C48   H30   1.110071 S    
H23   C45   1.112826 S    
O13   C57   1.325829 A    
C37   N3    1.435724 S    
C56   F2    1.388272 S    
C21   C23   1.414533 A    
O14   C58   1.325311 A    
C39   H3    1.076674 S    
C20   C28   1.412845 A    
O7    V1    2.007925 S    
C48   C56   1.545219 S    
N1    O22   1.300904 A    
C47   C55   1.545268 S    
C8    C57   1.467362 S    
C7    C39   1.399305 A    
C1    O8    1.317988 A    
O6    V2    2.029013 S    
C44   H22   1.113142 S    
O9    V2    1.779446 S    
C17   C25   1.391848 A    
C19   C27   1.412877 A    
C43   H21   1.113142 S    
O10   V1    1.780427 S    
O15   C59   1.334049 A    
C12   H8    1.083580 S    
C24   H12   1.075694 S    
C31   C35   1.404456 A    
O18   V4    2.016311 S    
C40   H4    1.076629 S    
N2    O23   1.301435 A    
N3    O26   1.300302 A    
