data_mof_unit_30738.cif
_audit_creation_date              2012-10-26T19:35:13-0400
_audit_creation_method            fapswitch 2.2
_symmetry_space_group_name_H-M    P1
_symmetry_Int_Tables_number       1
_space_group_crystal_system       triclinic
_cell_length_a                    10.846821
_cell_length_b                    10.750439
_cell_length_c                    9.551575
_cell_angle_alpha                 88.775736
_cell_angle_beta                  90.390416
_cell_angle_gamma                 89.896842
_cell_volume                      1113.50868193

loop_
_atom_site_label
_atom_site_type_symbol
_atom_type_description
_atom_site_fract_x
_atom_site_fract_y
_atom_site_fract_z
_atom_type_partial_charge
C1    C     C_R   0.499425 0.262576 0.501274 0.541411
C2    C     C_R   0.592086 0.933685 0.580225 -0.163949
C3    C     C_R   0.506133 0.870758 0.497216 0.006062
C4    C     C_R   0.262318 0.507286 0.499527 0.539431
C5    C     C_R   0.426306 0.938073 0.410241 0.009809
C6    C     C_3   0.289349 0.930266 0.400450 -0.278137
C7    C     C_3   0.287686 0.071399 0.399674 -0.273651
C8    C     C_R   0.521343 0.608200 0.070685 0.174059
C9    C     C_R   0.464215 0.398068 0.076370 -0.030784
C10   C     C_R   0.463676 0.398293 0.927812 -0.024921
C11   C     C_R   0.525146 0.605808 0.923320 0.144161
C12   C     C_R   0.061319 0.535345 0.621323 0.006544
C13   C     C_3   0.640540 0.678631 0.913385 -0.260145
C14   C     C_3   0.634934 0.689367 0.071736 -0.146750
C15   C     C_R   0.501386 0.737467 0.499105 0.544386
C16   C     C_R   0.737552 0.486076 0.501327 0.537123
C17   C     C_R   0.112442 0.600958 0.734848 -0.082144
C18   C     C_R   0.052380 0.602280 0.864220 0.012344
C19   C     C_R   0.946689 0.530114 0.882284 -0.129400
C20   C     C_R   0.890344 0.475977 0.767212 -0.120608
C21   C     C_R   0.939375 0.493004 0.631451 0.010684
C22   C     C_3   0.615329 0.826174 0.114621 -0.251792
C23   C     C_R   0.127779 0.508852 0.499182 -0.028548
C24   C     C_3   0.491994 0.884917 0.064211 -0.279889
C25   C     C_3   0.497869 0.026788 0.060650 -0.460639
C26   C     C_3   0.098065 0.681814 0.981689 -0.252559
C27   C     C_3   0.006389 0.788210 0.006075 -0.296633
C28   C     C_3   0.050222 0.873063 0.121780 -0.461718
C29   C     C_3   0.883677 0.379713 0.255391 -0.240702
C30   C     C_3   0.834109 0.249683 0.292983 -0.277272
C31   C     C_3   0.783315 0.185450 0.164045 -0.458128
C32   C     C_R   0.066884 0.460657 0.382765 -0.154350
C33   C     C_R   0.939906 0.441127 0.382913 -0.031094
C34   C     C_R   0.872890 0.467881 0.506102 -0.007129
C35   C     C_R   0.424979 0.066054 0.411566 0.010901
C36   C     C_R   0.502121 0.129401 0.502478 0.012136
C37   C     C_R   0.589745 0.063470 0.583379 -0.168857
Cu1   Cu    Cu3+1 0.499990 0.499980 0.640670 0.912659
Cu2   Cu    Cu3+1 0.500010 0.500020 0.359330 0.914952
H1    H     H_    0.119484 0.435008 0.291673 0.129555
H2    H     H_    0.196351 0.654237 0.722297 0.125844
H3    H     H_    0.903688 0.521892 0.983874 0.088461
H4    H     H_    0.809521 0.419853 0.786852 0.138950
H5    H     H_    0.654801 0.111975 0.649167 0.110734
H6    H     H_    0.659069 0.882797 0.643480 0.112083
H7    H     H_    0.259144 0.890181 0.300223 0.126185
H8    H     H_    0.531700 0.062021 0.161862 0.166414
H9    H     H_    0.561002 0.059373 0.976477 0.145541
H10   H     H_    0.404606 0.065788 0.039190 0.131427
H11   H     H_    0.466404 0.855635 0.957307 0.158652
H12   H     H_    0.247249 0.887111 0.495572 0.128391
H13   H     H_    0.417113 0.853312 0.134784 0.168548
H14   H     H_    0.622560 0.832392 0.229989 0.168682
H15   H     H_    0.693559 0.881331 0.071435 0.132483
H16   H     H_    0.060844 0.819041 0.221576 0.154929
H17   H     H_    0.139340 0.916766 0.092397 0.145232
H18   H     H_    0.981171 0.947846 0.137215 0.139801
H19   H     H_    0.994588 0.844530 0.907845 0.161339
H20   H     H_    0.915064 0.749662 0.035958 0.156261
H21   H     H_    0.108561 0.623406 0.078581 0.145632
H22   H     H_    0.190011 0.721673 0.956166 0.133434
H23   H     H_    0.256772 0.113282 0.297909 0.128571
H24   H     H_    0.703654 0.238520 0.119738 0.159649
H25   H     H_    0.855742 0.177757 0.083005 0.142216
H26   H     H_    0.752487 0.090279 0.194212 0.136357
H27   H     H_    0.909848 0.191750 0.338930 0.151957
H28   H     H_    0.759636 0.255776 0.371688 0.176998
H29   H     H_    0.811639 0.438793 0.205186 0.168775
H30   H     H_    0.954559 0.368480 0.172975 0.120737
H31   H     H_    0.243444 0.110797 0.493676 0.134783
H32   H     H_    0.436669 0.314598 0.132699 0.122682
H33   H     H_    0.435777 0.315149 0.874526 0.123106
H34   H     H_    0.718309 0.621565 0.877998 0.138006
H35   H     H_    0.628954 0.766790 0.852392 0.132614
H36   H     H_    0.714700 0.644128 0.126135 0.126198
N1    N     N_R   0.500790 0.500930 0.147930 -0.240029
N2    N     N_R   0.500790 0.500890 0.852020 -0.237949
O1    O     O_R   0.500000 0.319640 0.618810 -0.512520
O2    O     O_R   0.500010 0.319680 0.381230 -0.512432
O3    O     O_R   0.319640 0.499980 0.618820 -0.498493
O4    O     O_R   0.319650 0.500020 0.381230 -0.503709
O5    O     O_R   0.499990 0.680320 0.618770 -0.506271
O6    O     O_R   0.500000 0.680360 0.381190 -0.499411
O7    O     O_R   0.680350 0.499980 0.618770 -0.511568
O8    O     O_R   0.680360 0.500020 0.381180 -0.505712

loop_
_geom_bond_atom_site_label_1
_geom_bond_atom_site_label_2
_ccdc_geom_bond_type
C24   H13   S    
C19   C20   A    
C18   C26   S    
C8    N1    A    
C7    H31   S    
C28   H17   S    
C22   H15   S    
C28   H18   S    
C12   C23   A    
C26   C27   S    
C5    C6    S    
C36   C37   A    
C26   H22   S    
C4    O3    A    
Cu1   Cu2   S    
C29   C33   S    
C16   O7    A    
C18   C19   A    
C11   N2    A    
C16   C34   S    
C28   H16   S    
C4    O4    A    
C35   C36   A    
C25   H10   S    
C12   C17   A    
C9    N1    A    
C6    H12   S    
C15   O5    A    
C9    C10   A    
C25   H8    S    
C30   H28   S    
C19   H3    S    
C13   C14   S    
Cu1   O5    S    
C1    O1    A    
C10   N2    A    
C33   C34   A    
C22   H14   S    
C29   H30   S    
C2    H6    S    
C24   H11   S    
C31   H24   S    
C24   C25   S    
Cu2   O4    S    
C4    C23   S    
C15   O6    A    
C21   C34   A    
Cu1   O1    S    
C12   C21   A    
Cu2   O2    S    
C7    H23   S    
C29   C30   S    
C29   H29   S    
C17   C18   A    
Cu2   N1    S    
C13   H35   S    
C25   H9    S    
C30   H27   S    
C13   H34   S    
C16   O8    A    
C1    O2    A    
C22   C24   S    
Cu2   O8    S    
C20   H4    S    
C3    C15   S    
C31   H26   S    
C8    C14   S    
C6    H7    S    
Cu1   O7    S    
C7    C35   S    
C31   H25   S    
C9    H32   S    
C23   C32   A    
C3    C5    A    
C27   H19   S    
C6    C7    S    
Cu1   N2    S    
C32   C33   A    
C14   C22   S    
C37   H5    S    
C2    C3    A    
Cu2   O6    S    
C27   H20   S    
C14   H36   S    
C11   C13   S    
C2    C37   A    
C30   C31   S    
Cu1   O3    S    
C8    C11   A    
C5    C35   A    
C32   H1    S    
C17   H2    S    
C20   C21   A    
C27   C28   S    
C26   H21   S    
C1    C36   S    
C10   H33   S    
