data_mof_unit_26538.cif
_audit_creation_date              2012-12-10T20:28:00-0500
_audit_creation_method            fapswitch 2.2
_symmetry_space_group_name_H-M    P1
_symmetry_Int_Tables_number       1
_space_group_crystal_system       triclinic
_cell_length_a                    12.763163
_cell_length_b                    10.674236
_cell_length_c                    9.98657
_cell_angle_alpha                 91.578568
_cell_angle_beta                  97.547658
_cell_angle_gamma                 92.907517
_cell_volume                      1346.21206196

loop_
_atom_site_label
_atom_site_type_symbol
_atom_type_description
_atom_site_fract_x
_atom_site_fract_y
_atom_site_fract_z
_atom_type_partial_charge
C1    C     C_R   0.509374 0.261444 0.500912 0.903490
C2    C     C_R   0.549415 0.934462 0.394773 -0.188223
C3    C     C_R   0.518520 0.872617 0.506402 -0.103927
C4    C     C_R   0.298855 0.508159 0.472152 0.882766
C5    C     C_R   0.503771 0.939719 0.623085 0.088862
C6    C     C_3   0.572418 0.937364 0.756017 -0.462063
C7    C     C_3   0.581503 0.078344 0.754536 -0.408199
C8    C     C_R   0.414330 0.454095 0.053404 -0.022247
C9    C     C_R   0.581602 0.555338 0.087671 -0.169008
C10   C     C_R   0.582333 0.556743 0.942838 0.579294
C11   C     C_R   0.410336 0.461622 0.913358 -0.004089
C12   C     C_R   0.029518 0.568246 0.542578 0.157044
C13   C     C_3   0.335085 0.345181 0.887419 0.608857
C14   C     C_3   0.352183 0.329857 0.042323 0.145519
C15   C     C_R   0.505409 0.739737 0.502234 0.859947
C16   C     C_R   0.702038 0.501452 0.527081 0.837946
C17   C     C_R   0.815548 0.513894 0.542238 -0.078728
C18   C     C_R   0.186889 0.524938 0.448546 -0.142922
C19   C     C_R   0.018136 0.475261 0.313198 0.354706
C20   C     C_R   0.127781 0.480141 0.327115 -0.246640
C21   C     C_R   0.138307 0.582529 0.548599 -0.170462
C22   C     C_3   0.716072 0.715500 0.957262 -0.334866
C23   C     C_R   0.969424 0.506890 0.427475 0.021601
C24   C     C_3   0.303223 0.145786 0.773539 -0.108528
C25   C     C_R   0.864081 0.474395 0.432922 -0.179007
C26   C     C_R   0.873457 0.579209 0.653324 -0.150950
C27   C     C_R   0.980998 0.605803 0.653891 -0.078499
C28   C     C_R   0.509526 0.068972 0.623260 0.140270
C29   C     C_R   0.526983 0.130476 0.506460 -0.127951
C30   C     C_R   0.557000 0.063700 0.397200 -0.092448
H1    H     H_    0.818557 0.416267 0.353576 0.223030
H2    H     H_    0.185744 0.627397 0.636449 0.192134
H3    H     H_    0.584139 0.110265 0.313443 0.245707
H4    H     H_    0.568087 0.883487 0.306365 0.177634
H5    H     H_    0.528002 0.900990 0.836673 0.228891
H6    H     H_    0.657036 0.779331 0.989600 0.147471
H7    H     H_    0.772252 0.689483 0.045125 0.211695
H8    H     H_    0.763463 0.768409 0.890035 0.181786
H9    H     H_    0.215888 0.337254 0.626275 0.347960
H10   H     H_    0.263583 0.150038 0.668612 0.148754
H11   H     H_    0.244367 0.131727 0.845367 0.201562
H12   H     H_    0.648595 0.893633 0.748009 0.206966
H13   H     H_    0.347485 0.059353 0.773607 0.181776
H14   H     H_    0.579217 0.261305 0.046124 0.357627
H15   H     H_    0.011628 0.583156 0.044396 0.343313
H16   H     H_    0.545670 0.124574 0.836606 0.269921
H17   H     H_    0.662582 0.116481 0.743544 0.207546
H18   H     H_    0.647958 0.595500 0.156281 0.171836
H19   H     H_    0.280511 0.337043 0.093394 0.136541
H20   H     H_    0.835488 0.611483 0.737564 0.199289
H21   H     H_    0.026113 0.654477 0.741159 0.170302
H22   H     H_    0.166716 0.444798 0.244840 0.210914
N1    N     N_R   0.499290 0.499140 0.142710 -0.084800
N2    N     N_R   0.499290 0.499180 0.857070 -0.142904
O1    O     O_R   0.500010 0.316790 0.614690 -0.583991
O2    O     O_2   0.127812 0.312432 0.919165 -0.224502
O3    O     O_2   0.187534 0.521356 0.858184 -0.335785
O4    O     O_3   0.152899 0.342111 0.672899 -0.527961
O5    O     O_3   0.375538 0.251171 0.807453 -0.623340
O6    O     O_2   0.384041 0.159695 0.228497 -0.281792
O7    O     O_2   0.417816 0.087023 0.009900 -0.333635
O8    O     O_3   0.556323 0.247767 0.135851 -0.548621
O9    O     O_2   0.942479 0.289623 0.136166 -0.222347
O10   O     O_2   0.838084 0.475984 0.132427 -0.350158
O11   O     O_3   0.014131 0.491026 0.031849 -0.442226
O12   O     O_R   0.500000 0.316760 0.385350 -0.517514
O13   O     O_R   0.346360 0.499990 0.595720 -0.606071
O14   O     O_R   0.346350 0.499960 0.366370 -0.612556
O15   O     O_R   0.500000 0.683240 0.614650 -0.605308
O16   O     O_R   0.499990 0.683210 0.385310 -0.626051
O17   O     O_R   0.653650 0.500040 0.633630 -0.562347
O18   O     O_R   0.653640 0.500010 0.404280 -0.621696
O19   O     O_3   0.667811 0.607310 0.885326 -0.567377
S1    S     S_3+6 0.198138 0.383301 0.834488 0.023274
S2    S     S_3+6 0.427497 0.200347 0.103225 0.023309
S3    S     S_3+6 0.948243 0.430260 0.152013 0.039426
Zn1   Zn    Zn3+2 0.500010 0.500020 0.653130 1.036021
Zn2   Zn    Zn3+2 0.499990 0.499980 0.346870 1.024750

loop_
_geom_bond_atom_site_label_1
_geom_bond_atom_site_label_2
_ccdc_geom_bond_type
C25   H1    S    
O16   Zn2   S    
C18   C21   A    
O15   Zn1   S    
C19   C20   A    
O13   Zn1   S    
O7    S2    D    
C12   C23   A    
C26   C27   A    
O11   S3    S    
C17   C26   A    
C19   S3    S    
C24   O5    S    
C5    C6    S    
O1    Zn1   S    
C10   O19   S    
C14   H19   S    
O9    S3    D    
C22   H8    S    
C6    H5    S    
O18   Zn2   S    
C16   C17   S    
C16   O18   A    
C22   H7    S    
C9    C10   A    
N2    Zn1   S    
C4    C18   S    
C2    H4    S    
C13   C14   S    
C24   H11   S    
C16   O17   A    
O12   Zn2   S    
C27   H21   S    
O14   Zn2   S    
C15   O15   A    
C21   H2    S    
O2    S1    D    
C12   C27   A    
C7    H16   S    
C4    O14   A    
H14   O8    S    
H9    O4    S    
C12   C21   A    
C7    C28   S    
C7    H17   S    
O3    S1    D    
C19   C23   A    
C29   C30   A    
C5    C28   A    
C1    C29   S    
C1    O12   A    
O10   S3    D    
C11   N2    A    
H15   O11   S    
O8    S2    S    
C9    N1    A    
O17   Zn1   S    
C3    C15   S    
O4    S1    S    
C15   O16   A    
C28   C29   A    
C8    C14   S    
C30   H3    S    
C3    C5    A    
C8    N1    A    
C4    O13   A    
C6    C7    S    
C13   O5    S    
C22   H6    S    
O6    S2    D    
C2    C30   A    
C17   C25   A    
C14   S2    S    
C26   H20   S    
N1    Zn2   S    
C1    O1    A    
C20   H22   S    
C11   C13   S    
C8    C11   A    
C24   H10   S    
C2    C3    A    
C18   C20   A    
C23   C25   A    
C10   N2    A    
C13   S1    S    
C9    H18   S    
C6    H12   S    
C24   H13   S    
C22   O19   S    
