data_mof_unit_40900.cif
_audit_creation_date              2012-12-11T14:45:29-0500
_audit_creation_method            fapswitch 2.2
_symmetry_space_group_name_H-M    P1
_symmetry_Int_Tables_number       1
_space_group_crystal_system       triclinic
_cell_length_a                    24.648632
_cell_length_b                    7.17358
_cell_length_c                    14.830029
_cell_angle_alpha                 90.873582
_cell_angle_beta                  102.23496
_cell_angle_gamma                 88.859138
_cell_volume                      2561.99942889

loop_
_atom_site_label
_atom_site_type_symbol
_atom_type_description
_atom_site_fract_x
_atom_site_fract_y
_atom_site_fract_z
_atom_type_partial_charge
O1    O     O_R   0.319150 0.364170 0.330530 -0.540306
O2    O     O_R   0.680850 0.635830 0.669470 -0.516973
O3    O     O_R   0.180850 0.864170 0.169470 -0.538582
O4    O     O_R   0.819150 0.135830 0.830530 -0.548052
O5    O     O_R   0.210330 0.696850 0.354180 -0.509609
O6    O     O_R   0.789670 0.303150 0.645820 -0.534237
O7    O     O_R   0.289670 0.196850 0.145820 -0.500473
O8    O     O_R   0.710330 0.803150 0.854180 -0.547529
C1    C     C_R   0.197199 0.526931 0.377880 0.671247
C2    C     C_R   0.803374 0.473548 0.622736 0.665671
C3    C     C_R   0.302846 0.022781 0.122073 0.680393
C4    C     C_R   0.697986 0.976539 0.878527 0.768572
O9    O     O_R   0.320550 0.694110 0.341970 -0.545436
O10   O     O_R   0.679450 0.305890 0.658030 -0.542770
O11   O     O_R   0.179450 0.194110 0.158030 -0.547077
O12   O     O_R   0.820550 0.805890 0.841970 -0.540801
O13   O     O_R   0.291860 0.861000 0.157170 -0.536538
O14   O     O_R   0.708140 0.139000 0.842830 -0.535464
O15   O     O_R   0.208140 0.361000 0.342830 -0.540115
O16   O     O_R   0.791860 0.639000 0.657170 -0.508157
C5    C     C_R   0.341853 0.524125 0.361453 0.751530
C6    C     C_R   0.658322 0.476424 0.637486 0.743787
C7    C     C_R   0.157417 0.026689 0.141008 0.740425
C8    C     C_R   0.842632 0.973599 0.858692 0.757605
O17   O     O_3   0.240460 0.529330 0.189380 -0.376142
O18   O     O_3   0.759540 0.470670 0.810620 -0.401691
O19   O     O_3   0.259540 0.029330 0.310620 -0.377817
O20   O     O_3   0.740460 0.970670 0.689380 -0.359351
V1    V     V_3+5 0.251770 0.805510 0.261240 1.570402
V2    V     V_3+5 0.748230 0.194490 0.738760 1.560040
V3    V     V_3+5 0.248230 0.305510 0.238760 1.562027
V4    V     V_3+5 0.751770 0.694490 0.761240 1.559788
C9    C     C_R   0.102691 0.020094 0.077230 -0.161236
C10   C     C_R   0.897284 0.982726 0.922347 -0.157827
C11   C     C_R   0.396700 0.505788 0.424662 -0.152879
C12   C     C_R   0.603438 0.497100 0.573463 -0.135593
C13   C     C_R   0.950019 0.999059 0.080081 0.501801
C14   C     C_R   0.049627 0.009761 0.919511 0.495127
C15   C     C_R   0.542007 0.682177 0.455431 0.499255
C16   C     C_R   0.457678 0.326237 0.544101 0.500296
C17   C     C_R   0.899541 0.985133 0.016471 -0.246483
C18   C     C_R   0.100322 0.018883 0.982965 -0.234715
C19   C     C_R   0.594742 0.642106 0.509496 -0.204961
C20   C     C_R   0.405168 0.364257 0.489849 -0.226808
C21   C     C_R   0.946507 0.993498 0.889797 -0.070968
C22   C     C_R   0.053406 0.013510 0.109912 -0.090522
C23   C     C_R   0.558348 0.389871 0.583337 -0.066954
C24   C     C_R   0.441639 0.613325 0.414087 -0.043986
C25   C     C_R   0.998910 0.004083 0.951404 -0.059855
C26   C     C_R   0.000853 0.006657 0.048459 -0.053574
C27   C     C_R   0.504110 0.429237 0.531841 -0.026937
C28   C     C_R   0.495797 0.576717 0.466623 -0.008080
H1    H     H_    0.057337 0.012313 0.183433 0.246496
H2    H     H_    0.942869 0.991922 0.816236 0.249276
H3    H     H_    0.433887 0.719812 0.362014 0.197764
H4    H     H_    0.566067 0.280751 0.634024 0.224832
H5    H     H_    0.138915 0.020602 0.959124 0.166856
H6    H     H_    0.861051 0.975464 0.040242 0.161950
H7    H     H_    0.370150 0.282087 0.497871 0.174312
H8    H     H_    0.629721 0.725129 0.502183 0.155922
C29   C     C_R   0.664660 0.990537 0.949115 -0.151776
C30   C     C_R   0.334762 0.996456 0.049284 -0.106280
C31   C     C_R   0.836088 0.477432 0.550704 -0.106415
C32   C     C_R   0.165245 0.519857 0.450603 -0.105583
C33   C     C_R   0.657458 0.112729 0.098801 -0.121349
C34   C     C_R   0.353516 0.764148 0.939441 -0.066312
C35   C     C_R   0.844611 0.396008 0.394961 -0.135565
C36   C     C_R   0.158965 0.420350 0.603437 -0.127431
C37   C     C_R   0.688470 0.077659 0.032530 -0.224061
C38   C     C_R   0.316704 0.855076 0.984375 -0.147439
C39   C     C_R   0.813689 0.400331 0.463651 -0.168816
C40   C     C_R   0.189801 0.440053 0.535468 -0.174845
C41   C     C_R   0.608915 0.929895 0.931525 0.280284
C42   C     C_R   0.389319 0.063821 0.060725 0.272706
C43   C     C_R   0.890930 0.544393 0.569353 0.292409
C44   C     C_R   0.108764 0.574091 0.433028 0.297232
C45   C     C_R   0.578082 0.953594 0.003198 -0.026904
C46   C     C_R   0.429498 0.952838 0.025651 -0.009167
C47   C     C_R   0.925867 0.493913 0.508272 0.011810
C48   C     C_R   0.075204 0.510626 0.492421 0.010528
C49   C     C_R   0.602247 0.057446 0.083767 0.057198
C50   C     C_R   0.409945 0.803994 0.963169 0.087027
C51   C     C_R   0.900826 0.442828 0.416791 0.048861
C52   C     C_R   0.101567 0.455537 0.582431 0.048874
C53   C     C_R   0.522970 0.890121 0.996753 0.053278
C54   C     C_R   0.488126 0.979657 0.049836 0.057520
C55   C     C_R   0.984748 0.491245 0.534600 0.055420
C56   C     C_R   0.016511 0.498094 0.465784 0.053579
C57   C     C_R   0.514225 0.073214 0.130852 0.052187
C58   C     C_R   0.503247 0.728717 0.947149 -0.023076
C59   C     C_R   0.989468 0.469915 0.373041 0.065913
C60   C     C_R   0.012499 0.459470 0.626480 0.064764
C61   C     C_R   0.570745 0.107749 0.148623 -0.086993
C62   C     C_R   0.447152 0.689768 0.927779 -0.027836
C63   C     C_R   0.932670 0.436231 0.349342 -0.059264
C64   C     C_R   0.069973 0.433931 0.649291 -0.071107
H9    H     H_    0.589350 0.181310 0.211645 0.162883
H10   H     H_    0.432828 0.569244 0.884961 0.157823
H11   H     H_    0.913670 0.404972 0.278116 0.181583
H12   H     H_    0.089722 0.398419 0.719462 0.178381
H13   H     H_    0.274520 0.805499 0.973511 0.141754
H14   H     H_    0.730984 0.124542 0.045048 0.137686
H15   H     H_    0.233318 0.399257 0.550095 0.134922
H16   H     H_    0.771412 0.351121 0.447778 0.131076
H17   H     H_    0.676390 0.187418 0.161297 0.133725
H18   H     H_    0.338514 0.651458 0.891672 0.141322
H19   H     H_    0.825376 0.348241 0.326152 0.138201
H20   H     H_    0.179406 0.369790 0.670818 0.142413
H21   H     H_    0.491880 0.112973 0.183301 0.205001
H22   H     H_    0.531035 0.632712 0.922028 0.170517
H23   H     H_    0.012766 0.457697 0.319242 0.192955
H24   H     H_    0.989561 0.439332 0.679865 0.194306
S1    S     S_3+6 0.945194 0.992972 0.197165 0.018739
O21   O     O_2   0.954245 0.794580 0.228230 -0.286832
O22   O     O_2   0.987184 0.116419 0.256128 -0.331700
O23   O     O_3   0.881395 0.063312 0.208358 -0.541131
H25   H     H_    0.880229 0.037121 0.273313 0.363678
S2    S     S_3+6 0.053800 0.987090 0.802322 0.015252
O24   O     O_2   0.044049 0.786577 0.774379 -0.287934
O25   O     O_2   0.011216 0.109870 0.742811 -0.337516
O26   O     O_3   0.117180 0.045178 0.787826 -0.533970
H26   H     H_    0.116502 0.019498 0.721767 0.366823
S3    S     S_3+6 0.536037 0.863417 0.373780 -0.024890
O27   O     O_2   0.516725 0.780782 0.278966 -0.326656
O28   O     O_2   0.494124 0.007590 0.390845 -0.352988
O29   O     O_3   0.597353 0.966623 0.379059 -0.512348
H27   H     H_    0.601775 0.052183 0.433117 0.338911
S4    S     S_3+6 0.462864 0.150560 0.627415 0.064131
O30   O     O_2   0.500230 0.996551 0.604917 -0.278419
O31   O     O_2   0.487145 0.234339 0.720406 -0.289484
O32   O     O_3   0.400259 0.063041 0.629055 -0.516310
H28   H     H_    0.407719 0.964847 0.676555 0.382617
S5    S     S_3+6 0.400629 0.300684 0.098297 0.003891
O33   O     O_2   0.448010 0.380754 0.063352 -0.332350
O34   O     O_2   0.349433 0.415604 0.060764 -0.318267
O35   O     O_3   0.414234 0.316866 0.214290 -0.479549
H29   H     H_    0.403111 0.196358 0.235909 0.317962
S6    S     S_3+6 0.577762 0.857536 0.815390 0.061170
O36   O     O_2   0.516360 0.895148 0.793980 -0.265254
O37   O     O_2   0.601923 0.960857 0.746142 -0.300420
O38   O     O_3   0.589186 0.627761 0.801364 -0.488437
H30   H     H_    0.620827 0.593424 0.851852 0.304617
S7    S     S_3+6 0.084367 0.760315 0.356398 0.032773
O39   O     O_2   0.033684 0.847611 0.381680 -0.242793
O40   O     O_2   0.126884 0.910141 0.364108 -0.330444
O41   O     O_3   0.068880 0.678233 0.247276 -0.499637
H31   H     H_    0.104557 0.631675 0.234345 0.313034
S8    S     S_3+6 0.910754 0.731090 0.649490 0.026595
O42   O     O_2   0.959549 0.827503 0.626666 -0.246259
O43   O     O_2   0.864951 0.874640 0.643354 -0.327556
O44   O     O_3   0.927899 0.647913 0.757460 -0.500047
H32   H     H_    0.896380 0.570059 0.764417 0.310202

loop_
_geom_bond_atom_site_label_1
_geom_bond_atom_site_label_2
_ccdc_geom_bond_type
O17   V3    S    
C24   H3    S    
C55   C56   A    
O1    C5    A    
O29   H27   S    
C50   C62   A    
O19   V1    S    
C1    C32   S    
O13   V1    S    
O3    C7    A    
C2    C31   S    
S8    O44   S    
C60   C64   A    
C48   C52   A    
C3    C30   S    
O15   V3    S    
S4    O30   D    
C47   C55   A    
C38   H13   S    
S3    O27   D    
C14   C25   A    
C37   H14   S    
O7    C3    A    
C9    C18   A    
O9    V1    S    
O10   V2    S    
C17   H6    S    
C14   C18   A    
O4    C8    A    
C63   H11   S    
S3    O28   D    
C13   S1    S    
C41   S6    S    
C62   H10   S    
C20   H7    S    
S7    O39   D    
C16   S4    S    
C42   S5    S    
C57   H21   S    
O1    V3    S    
C15   S3    S    
O23   H25   S    
C30   C38   A    
C12   C23   A    
O2    V4    S    
C52   C64   A    
C59   H23   S    
O3    V1    S    
S2    O24   D    
S1    O21   D    
C1    O15   A    
C2    O16   A    
C7    C9    S    
C39   H16   S    
O2    C6    A    
S5    O35   S    
O44   H32   S    
O14   V2    S    
C45   C49   A    
C16   C20   A    
C36   C40   A    
S1    O23   S    
C46   C54   A    
O11   C7    A    
C15   C28   A    
C45   C53   A    
O12   C8    A    
C55   C60   A    
C57   C61   A    
C9    C22   A    
C10   C17   A    
C34   H18   S    
C11   C24   A    
C18   H5    S    
C33   H17   S    
C58   C62   A    
O5    V1    S    
O7    V3    S    
C27   C28   A    
C36   C52   A    
S8    O42   D    
S7    O41   S    
O18   V4    S    
C60   H24   S    
S3    O29   S    
C15   C19   A    
C29   C41   A    
C53   C54   A    
S6    O38   S    
C8    C10   S    
S2    O26   S    
O8    V4    S    
O5    C1    A    
C34   C50   A    
C49   C61   A    
C46   C50   A    
C33   C49   A    
C56   C59   A    
C21   C25   A    
O8    C4    A    
C51   C63   A    
C32   C44   A    
O9    C5    A    
C10   C21   A    
C35   C51   A    
C11   C20   A    
O26   H26   S    
S6    O37   D    
C19   H8    S    
O6    V2    S    
C31   C39   A    
C21   H2    S    
S5    O33   D    
C58   H22   S    
O32   H28   S    
S4    O32   S    
C61   H9    S    
O41   H31   S    
O16   V4    S    
C29   C37   A    
S7    O40   D    
C3    O13   A    
C44   C48   A    
S8    O43   D    
O35   H29   S    
C54   C57   A    
S4    O31   D    
O6    C2    A    
C23   C27   A    
C53   C58   A    
O11   V3    S    
C5    C11   S    
C40   H15   S    
C43   S8    S    
O12   V4    S    
C16   C27   A    
C6    C12   S    
C22   C26   A    
O10   C6    A    
O20   V2    S    
C48   C56   A    
O38   H30   S    
C47   C51   A    
C4    C29   S    
C35   H19   S    
C34   C38   A    
C31   C43   A    
C33   C37   A    
C64   H12   S    
C22   H1    S    
C13   C26   A    
C35   C39   A    
C32   C40   A    
C13   C17   A    
S2    O25   D    
S6    O36   D    
C59   C63   A    
C14   S2    S    
C44   S7    S    
C24   C28   A    
C25   C26   A    
C42   C46   A    
C4    O14   A    
S5    O34   D    
C41   C45   A    
C30   C42   A    
C12   C19   A    
C36   H20   S    
C43   C47   A    
O4    V2    S    
C23   H4    S    
S1    O22   D    
