data_mof_unit_14195.cif
_audit_creation_date              2012-12-11T15:44:46-0500
_audit_creation_method            fapswitch 2.2
_symmetry_space_group_name_H-M    P1
_symmetry_Int_Tables_number       1
_space_group_crystal_system       triclinic
_cell_length_a                    19.063748
_cell_length_b                    10.939597
_cell_length_c                    18.744989
_cell_angle_alpha                 90.439888
_cell_angle_beta                  90.154676
_cell_angle_gamma                 90.234879
_cell_volume                      3909.09957573

loop_
_atom_site_label
_atom_site_type_symbol
_atom_type_description
_atom_site_fract_x
_atom_site_fract_y
_atom_site_fract_z
_atom_type_partial_charge
C1    C     C_R   0.760352 0.536456 0.647503 0.540036
C2    C     C_R   0.236749 0.524403 0.356925 0.544793
C3    C     C_R   0.261149 0.035383 0.646939 0.537409
C4    C     C_R   0.737646 0.029859 0.355174 0.536986
C5    C     C_R   0.733077 0.982297 0.551059 -0.166303
C6    C     C_R   0.177910 0.107090 0.474824 -0.150389
C7    C     C_R   0.270109 0.470109 0.550030 -0.156036
C8    C     C_R   0.679055 0.569444 0.471839 -0.157730
C9    C     C_R   0.723209 0.962489 0.478055 -0.130098
C10   C     C_R   0.186646 0.100702 0.548249 -0.173587
C11   C     C_R   0.264338 0.450450 0.476816 -0.142526
C12   C     C_R   0.684203 0.568863 0.545351 -0.162037
C13   C     C_3   0.801330 0.267752 0.434561 -0.291998
C14   C     C_3   0.379031 0.140286 0.527394 -0.259705
C15   C     C_3   0.217580 0.776629 0.444898 -0.284256
C16   C     C_3   0.856166 0.724006 0.539784 -0.272876
C17   C     C_3   0.812864 0.287196 0.513951 -0.249983
C18   C     C_3   0.370698 0.142077 0.446693 -0.284565
C19   C     C_3   0.224161 0.798641 0.524475 -0.240254
C20   C     C_3   0.849654 0.731102 0.459271 -0.263712
C21   C     C_R   0.755406 0.097521 0.574210 0.033325
C22   C     C_R   0.236340 0.100684 0.428929 0.017270
C23   C     C_R   0.249099 0.582509 0.578171 0.019331
C24   C     C_R   0.737488 0.600416 0.429697 0.000060
C25   C     C_R   0.005375 0.344919 0.429947 -0.035802
C26   C     C_R   0.012322 0.330444 0.580205 -0.048205
C27   C     C_R   0.513725 0.849020 0.432830 -0.033396
C28   C     C_R   0.514431 0.827308 0.582360 -0.043618
C29   C     C_R   0.974097 0.125317 0.424870 -0.100056
C30   C     C_R   0.999151 0.105493 0.570571 -0.087383
C31   C     C_R   0.465393 0.638832 0.423942 -0.090624
C32   C     C_R   0.492134 0.605023 0.568254 -0.079240
C33   C     C_R   0.966891 0.012719 0.458218 -0.123794
C34   C     C_R   0.981042 0.002253 0.530605 -0.125116
C35   C     C_R   0.453085 0.525239 0.454775 -0.122306
C36   C     C_R   0.468662 0.507301 0.526334 -0.127592
C37   C     C_R   0.002758 0.222293 0.538819 -0.010135
C38   C     C_R   0.994796 0.230917 0.463813 -0.015746
C39   C     C_R   0.500614 0.723107 0.539024 0.009838
C40   C     C_R   0.493657 0.737192 0.464588 -0.002818
C41   C     C_R   0.031044 0.439435 0.546158 0.015533
C42   C     C_R   0.016239 0.452292 0.473151 0.026870
C43   C     C_R   0.542109 0.933119 0.551753 -0.000834
C44   C     C_R   0.534438 0.951481 0.477793 0.007370
C45   C     C_R   0.772646 0.124030 0.646867 0.544744
C46   C     C_R   0.225429 0.127543 0.354916 0.552763
C47   C     C_R   0.272593 0.624202 0.646880 0.551922
C48   C     C_R   0.724861 0.629452 0.355816 0.549757
C49   C     C_R   0.057135 0.540516 0.585747 -0.069714
C50   C     C_R   0.012847 0.573401 0.446505 -0.072476
C51   C     C_R   0.571742 0.025709 0.595716 -0.086095
C52   C     C_R   0.545847 0.073739 0.453430 -0.084816
C53   C     C_R   0.057152 0.657055 0.556929 -0.121828
C54   C     C_R   0.034284 0.673650 0.487476 -0.145044
C55   C     C_R   0.585336 0.141422 0.569248 -0.116524
C56   C     C_R   0.570885 0.166088 0.498526 -0.134504
C57   C     C_R   0.750707 0.090979 0.079485 0.051295
C58   C     C_R   0.237867 0.096866 0.917740 0.012708
C59   C     C_R   0.249991 0.587997 0.078796 0.045872
C60   C     C_R   0.737971 0.604782 0.915793 0.014648
C61   C     C_R   0.818722 0.107563 0.053450 -0.010775
C62   C     C_R   0.190200 0.033205 0.960015 0.009496
C63   C     C_R   0.318112 0.600285 0.051965 -0.011706
C64   C     C_R   0.679650 0.560657 0.953276 0.002965
C65   C     C_R   0.829948 0.128585 0.982253 0.001278
C66   C     C_R   0.180355 0.061338 0.030304 0.009999
C67   C     C_R   0.328783 0.617470 0.980068 0.004931
C68   C     C_R   0.671747 0.583575 0.024644 -0.009245
C69   C     C_R   0.705923 0.136320 0.960640 -0.159636
C70   C     C_R   0.252473 0.239369 0.017642 -0.133261
C71   C     C_R   0.204026 0.624201 0.959410 -0.155222
C72   C     C_R   0.765953 0.727779 0.021970 -0.106218
C73   C     C_R   0.693409 0.114160 0.032865 0.059044
C74   C     C_R   0.262084 0.210731 0.944090 0.044819
C75   C     C_R   0.192152 0.607759 0.032208 0.056102
C76   C     C_R   0.776697 0.701376 0.948495 0.058636
C77   C     C_3   0.884730 0.034636 0.060206 -0.264764
C78   C     C_3   0.184990 0.899978 0.973720 -0.254671
C79   C     C_3   0.380589 0.518290 0.058611 -0.270260
C80   C     C_3   0.650679 0.434095 0.961255 -0.269197
C81   C     C_3   0.895195 0.053441 0.980789 -0.259553
C82   C     C_3   0.173090 0.930787 0.051311 -0.246141
C83   C     C_3   0.388613 0.529126 0.978911 -0.262213
C84   C     C_3   0.642676 0.460032 0.040154 -0.269059
C85   C     C_R   0.774472 0.138754 0.934281 0.002962
C86   C     C_R   0.217457 0.155830 0.062840 -0.036025
C87   C     C_R   0.272399 0.626971 0.932998 0.009458
C88   C     C_R   0.717648 0.658782 0.062330 -0.022720
C89   C     C_R   0.974240 0.344264 0.648759 0.536068
C90   C     C_R   0.029515 0.347346 0.354478 0.527531
C91   C     C_R   0.474286 0.843821 0.649140 0.541799
C92   C     C_R   0.532856 0.848640 0.356153 0.531719
C93   C     C_R   0.001945 0.331756 0.076522 0.025849
C94   C     C_R   0.960185 0.343649 0.934132 0.022224
C95   C     C_R   0.492015 0.832251 0.080490 0.021449
C96   C     C_R   0.458989 0.846334 0.935259 0.026667
C97   C     C_R   0.933085 0.359147 0.059613 0.001770
C98   C     C_R   0.912582 0.364832 0.989191 -0.021254
C99   C     C_R   0.441615 0.914837 0.056785 0.015979
C100  C     C_R   0.425338 0.921059 0.984978 -0.008932
C101  C     C_R   0.027573 0.301948 0.950905 -0.152020
C102  C     C_R   0.048179 0.295984 0.022130 -0.162155
C103  C     C_R   0.505878 0.757814 0.959342 -0.158700
C104  C     C_R   0.519209 0.747097 0.031895 -0.174761
C105  C     C_3   0.888605 0.464367 0.081272 -0.262296
C106  C     C_3   0.866150 0.470602 0.003690 -0.272900
C107  C     C_3   0.435642 0.049742 0.067195 -0.276545
C108  C     C_3   0.421216 0.056995 0.987896 -0.280152
C109  C     C_R   0.758815 0.537229 0.850673 0.522125
C110  C     C_R   0.239079 0.531856 0.147742 0.554280
C111  C     C_R   0.258577 0.037028 0.850476 0.523589
C112  C     C_R   0.739177 0.032074 0.147727 0.557068
C113  C     C_R   0.788560 0.166786 0.860475 0.543416
C114  C     C_R   0.208842 0.173418 0.139969 0.558771
C115  C     C_R   0.286835 0.661694 0.860553 0.541693
C116  C     C_R   0.709150 0.672751 0.139890 0.564082
C117  C     C_R   0.937838 0.351691 0.861014 0.544842
C118  C     C_R   0.029003 0.345615 0.147395 0.538736
C119  C     C_R   0.438981 0.851747 0.861096 0.550490
C120  C     C_R   0.527808 0.845836 0.148023 0.545903
C121  C     C_R   0.738744 0.056627 0.429563 0.041805
C122  C     C_R   0.253703 0.086407 0.576810 0.007862
C123  C     C_R   0.239418 0.544215 0.432197 0.034191
C124  C     C_R   0.748800 0.591875 0.578789 -0.001593
C125  C     C_R   0.747640 0.174918 0.454310 0.000282
C126  C     C_R   0.310678 0.073373 0.530365 0.022811
C127  C     C_R   0.207728 0.645104 0.462227 0.025309
C128  C     C_R   0.807544 0.616914 0.536607 0.024369
C129  C     C_R   0.756988 0.194380 0.526111 0.034905
C130  C     C_R   0.302214 0.079666 0.457626 -0.008854
C131  C     C_R   0.213702 0.664805 0.534240 0.020766
C132  C     C_R   0.801672 0.623383 0.463231 -0.000230
Cr1   Cr    Cr6+3 0.885860 0.491680 0.749630 0.997237
Cr2   Cr    Cr6+3 0.114140 0.491680 0.250370 1.024895
Cr3   Cr    Cr6+3 0.385860 0.991680 0.749630 0.994846
Cr4   Cr    Cr6+3 0.614140 0.991680 0.250370 1.017441
Cr5   Cr    Cr6+3 0.730490 0.332970 0.748720 0.991072
Cr6   Cr    Cr6+3 0.269510 0.332970 0.251280 0.991612
Cr7   Cr    Cr6+3 0.230490 0.832970 0.748720 0.994071
Cr8   Cr    Cr6+3 0.769510 0.832970 0.251280 0.992710
Cr9   Cr    Cr6+3 0.887570 0.179310 0.750150 1.001286
Cr10  Cr    Cr6+3 0.112430 0.179310 0.249850 1.000821
Cr11  Cr    Cr6+3 0.387570 0.679310 0.750150 0.999764
Cr12  Cr    Cr6+3 0.612430 0.679310 0.249850 0.999915
H1    H     H_    0.725168 0.908560 0.588437 0.107843
H2    H     H_    0.125671 0.121227 0.454062 0.163895
H3    H     H_    0.295067 0.402330 0.583252 0.122947
H4    H     H_    0.627864 0.551808 0.448613 0.159224
H5    H     H_    0.074010 0.734656 0.588861 0.110858
H6    H     H_    0.032591 0.764513 0.465293 0.102857
H7    H     H_    0.605743 0.212674 0.603985 0.133640
H8    H     H_    0.578642 0.257708 0.478423 0.114026
H9    H     H_    0.661565 0.148194 0.925102 0.136449
H10   H     H_    0.273038 0.323668 0.039259 0.143765
H11   H     H_    0.159664 0.635533 0.923833 0.134911
H12   H     H_    0.797700 0.796482 0.048002 0.145471
H13   H     H_    0.876859 0.937580 0.074350 0.153141
H14   H     H_    0.236394 0.855914 0.964211 0.139653
H15   H     H_    0.369414 0.423260 0.075233 0.156046
H16   H     H_    0.691016 0.364809 0.949651 0.155516
H17   H     H_    0.924777 0.082926 0.093305 0.147067
H18   H     H_    0.138578 0.857955 0.947030 0.144245
H19   H     H_    0.423919 0.563075 0.088924 0.144078
H20   H     H_    0.599795 0.421488 0.932968 0.136226
H21   H     H_    0.943150 0.106137 0.968585 0.152999
H22   H     H_    0.119151 0.908928 0.069757 0.143978
H23   H     H_    0.439154 0.567089 0.962487 0.139718
H24   H     H_    0.587033 0.462834 0.057605 0.133190
H25   H     H_    0.889144 0.968367 0.948921 0.187326
H26   H     H_    0.216213 0.899307 0.086729 0.157808
H27   H     H_    0.376337 0.443267 0.950467 0.185479
H28   H     H_    0.678259 0.404158 0.073765 0.161752
H29   H     H_    0.064759 0.279330 0.909276 0.141818
H30   H     H_    0.101769 0.274041 0.034448 0.125612
H31   H     H_    0.531811 0.696284 0.922400 0.138585
H32   H     H_    0.555174 0.678524 0.049525 0.141022
H33   H     H_    0.919705 0.545203 0.099219 0.157107
H34   H     H_    0.810299 0.445421 0.995696 0.135734
H35   H     H_    0.485099 0.095826 0.083197 0.169251
H36   H     H_    0.368085 0.088493 0.975973 0.158217
H37   H     H_    0.845393 0.436603 0.117497 0.146443
H38   H     H_    0.885154 0.554078 0.976691 0.155415
H39   H     H_    0.389394 0.074445 0.100255 0.153428
H40   H     H_    0.463811 0.102588 0.957444 0.144294
H41   H     H_    0.707332 0.872671 0.459197 0.124740
H42   H     H_    0.141296 0.102585 0.582691 0.128756
H43   H     H_    0.281801 0.364620 0.454793 0.139327
H44   H     H_    0.638381 0.543174 0.575885 0.137982
H45   H     H_    0.169568 0.817529 0.421427 0.149873
H46   H     H_    0.909060 0.697130 0.558458 0.161250
H47   H     H_    0.777503 0.347787 0.407797 0.144737
H48   H     H_    0.422986 0.082725 0.545884 0.178802
H49   H     H_    0.846773 0.227517 0.406296 0.137727
H50   H     H_    0.376468 0.232451 0.552548 0.122494
H51   H     H_    0.266953 0.794836 0.415253 0.134515
H52   H     H_    0.833793 0.803696 0.568507 0.138915
H53   H     H_    0.864586 0.256381 0.533458 0.161452
H54   H     H_    0.366671 0.235102 0.424122 0.141633
H55   H     H_    0.277440 0.828822 0.541317 0.152391
H56   H     H_    0.824027 0.815249 0.440543 0.170857
H57   H     H_    0.796844 0.378001 0.533030 0.154995
H58   H     H_    0.407440 0.080812 0.418064 0.138788
H59   H     H_    0.179598 0.851311 0.546703 0.161834
H60   H     H_    0.898444 0.710047 0.430378 0.122664
H61   H     H_    0.950889 0.933234 0.427499 0.108819
H62   H     H_    0.977418 0.914108 0.556136 0.106252
H63   H     H_    0.432423 0.450510 0.422776 0.115560
H64   H     H_    0.461652 0.417921 0.549700 0.105138
H65   H     H_    0.960535 0.129502 0.368907 0.128786
H66   H     H_    0.012305 0.092191 0.626107 0.131337
H67   H     H_    0.451368 0.649245 0.368393 0.129866
H68   H     H_    0.505382 0.586397 0.623227 0.129010
H69   H     H_    0.990365 0.594104 0.395194 0.136525
H70   H     H_    0.074747 0.529964 0.640358 0.126733
H71   H     H_    0.530814 0.106514 0.401805 0.150403
H72   H     H_    0.582815 0.009125 0.651533 0.126768
O1    O     O_R   0.957020 0.451640 0.669920 -0.509852
O2    O     O_R   0.042980 0.451640 0.330080 -0.527824
O3    O     O_R   0.457020 0.951640 0.669920 -0.516629
O4    O     O_R   0.542980 0.951640 0.330080 -0.538869
O5    O     O_R   0.736470 0.210100 0.823360 -0.511799
O6    O     O_R   0.263530 0.210100 0.176640 -0.505263
O7    O     O_R   0.236470 0.710100 0.823360 -0.510396
O8    O     O_R   0.763530 0.710100 0.176640 -0.505664
O9    O     O_R   0.831960 0.093290 0.830130 -0.514120
O10   O     O_R   0.168040 0.093290 0.169870 -0.511088
O11   O     O_R   0.331960 0.593290 0.830130 -0.510907
O12   O     O_R   0.668040 0.593290 0.169870 -0.515523
O13   O     O_R   0.945600 0.250580 0.824860 -0.515345
O14   O     O_R   0.054400 0.250580 0.175140 -0.523674
O15   O     O_R   0.445600 0.750580 0.824860 -0.519698
O16   O     O_R   0.554400 0.750580 0.175140 -0.527188
O17   O     O_3   0.834640 0.334650 0.749500 -0.273996
O18   O     O_3   0.165360 0.334650 0.250500 -0.270531
O19   O     O_3   0.334640 0.834650 0.749500 -0.271572
O20   O     O_3   0.665360 0.834650 0.250500 -0.268771
O21   O     O_R   0.821450 0.543440 0.674610 -0.492771
O22   O     O_R   0.178550 0.543440 0.325390 -0.493686
O23   O     O_R   0.321450 0.043440 0.674610 -0.495975
O24   O     O_R   0.678550 0.043440 0.325390 -0.500152
O25   O     O_R   0.715320 0.458650 0.668100 -0.525593
O26   O     O_R   0.284680 0.458650 0.331900 -0.536104
O27   O     O_R   0.215320 0.958650 0.668100 -0.530842
O28   O     O_R   0.784680 0.958650 0.331900 -0.535461
O29   O     O_R   0.737170 0.209590 0.674530 -0.500832
O30   O     O_R   0.262830 0.209590 0.325470 -0.503465
O31   O     O_R   0.237170 0.709590 0.674530 -0.500713
O32   O     O_R   0.762830 0.709590 0.325470 -0.500548
O33   O     O_R   0.832710 0.092740 0.669580 -0.512318
O34   O     O_R   0.167290 0.092740 0.330420 -0.522161
O35   O     O_R   0.332710 0.592740 0.669580 -0.512944
O36   O     O_R   0.667290 0.592740 0.330420 -0.521780
O37   O     O_R   0.946290 0.250060 0.676040 -0.503285
O38   O     O_R   0.053710 0.250060 0.323960 -0.506853
O39   O     O_R   0.446290 0.750060 0.676040 -0.500572
O40   O     O_R   0.553710 0.750060 0.323960 -0.503710
O41   O     O_R   0.956270 0.452200 0.830470 -0.516516
O42   O     O_R   0.043730 0.452200 0.169530 -0.499129
O43   O     O_R   0.456270 0.952200 0.830470 -0.515697
O44   O     O_R   0.543730 0.952200 0.169530 -0.501408
O45   O     O_R   0.820760 0.543950 0.823440 -0.525528
O46   O     O_R   0.179240 0.543950 0.176560 -0.460116
O47   O     O_R   0.320760 0.043950 0.823440 -0.524439
O48   O     O_R   0.679240 0.043950 0.176560 -0.460019
O49   O     O_R   0.714570 0.459210 0.828640 -0.525125
O50   O     O_R   0.285430 0.459210 0.171360 -0.546413
O51   O     O_R   0.214570 0.959210 0.828640 -0.519276
O52   O     O_R   0.785430 0.959210 0.171360 -0.546181
N1    N     N_3   0.622280 0.105012 0.056445 -0.591151
H73   H     H_    0.597520 0.036267 0.026431 0.235478
H74   H     H_    0.597401 0.187732 0.045323 0.210225
N2    N     N_3   0.297794 0.294511 0.898684 -0.645559
H75   H     H_    0.265458 0.312471 0.854897 0.246671
H76   H     H_    0.343628 0.253279 0.880063 0.237651
N3    N     N_3   0.121165 0.603530 0.057048 -0.579775
H77   H     H_    0.094461 0.536062 0.027962 0.237286
H78   H     H_    0.097528 0.687087 0.045472 0.214134
N4    N     N_3   0.828283 0.769649 0.910174 -0.654558
H79   H     H_    0.804959 0.803251 0.863799 0.251991
H80   H     H_    0.869495 0.712248 0.895663 0.244500

loop_
_geom_bond_atom_site_label_1
_geom_bond_atom_site_label_2
_ccdc_geom_bond_type
C51   H72   S    
C58   C62   A    
C119  O43   A    
C55   C56   A    
C82   H26   S    
C67   C83   S    
C101  C102  A    
C72   H12   S    
C29   C33   A    
Cr4   O48   S    
Cr9   O33   S    
C41   C42   A    
C14   C18   S    
C96   C119  S    
C101  H29   S    
C35   C36   A    
Cr10  O38   S    
C80   C84   S    
C30   C34   A    
Cr7   O31   S    
Cr3   O43   S    
C120  O16   A    
C47   O31   A    
C97   C98   A    
N1    H74   S    
C54   H6    S    
C63   C79   S    
C53   C54   A    
C34   H62   S    
C26   C89   S    
Cr1   O45   S    
Cr12  O40   S    
C33   H61   S    
C25   C90   S    
C50   C54   A    
C95   C120  S    
Cr11  O35   S    
C116  O12   A    
Cr10  O34   S    
C64   C68   A    
C115  O7    A    
C16   C20   S    
N3    H78   S    
Cr3   O23   S    
C1    O25   A    
C9    H41   S    
C65   C81   S    
C79   H15   S    
C32   H68   S    
C94   C117  S    
C95   C99   A    
C80   H16   S    
C57   C112  S    
C66   C82   S    
C94   C98   A    
C113  O5    A    
Cr9   O13   S    
C12   H44   S    
Cr5   O5    S    
C17   H57   S    
C59   C110  S    
C117  O41   A    
C31   C40   A    
C108  H36   S    
Cr8   O32   S    
C51   C55   A    
C36   H64   S    
C32   C39   A    
C57   C73   A    
C92   O4    A    
C24   C132  A    
C46   O34   A    
Cr2   O42   S    
C60   C109  S    
C105  H37   S    
C45   O33   A    
C121  C125  A    
C52   C56   A    
Cr5   O49   S    
C27   C44   A    
C78   H14   S    
C80   H20   S    
N3    H77   S    
C94   C101  A    
C61   C77   S    
N2    H75   S    
C83   H27   S    
C29   C38   A    
C70   C74   A    
C9    C121  A    
C107  C108  S    
Cr8   O52   S    
C69   C73   A    
C81   H25   S    
C56   H8    S    
Cr7   O27   S    
C112  O52   A    
C22   C130  A    
C47   O35   A    
Cr6   O26   S    
C3    C122  S    
C72   C76   A    
C124  C128  A    
C8    C24   A    
C97   C105  S    
C122  C126  A    
C44   C52   A    
Cr1   O41   S    
C15   H45   S    
C71   H11   S    
Cr2   O46   S    
C15   C127  S    
N1    H73   S    
C11   H43   S    
C53   H5    S    
C64   C80   S    
C8    H4    S    
Cr1   O21   S    
C29   H65   S    
C20   C132  S    
Cr6   O18   S    
C128  C132  A    
C41   C49   A    
C72   C88   A    
Cr12  O16   S    
C7    C11   A    
C46   O30   A    
C21   C45   S    
C14   C126  S    
N2    H76   S    
C19   C131  S    
C63   C67   A    
C100  C108  S    
C5    H1    S    
C103  H31   S    
Cr12  O20   S    
C75   N3    S    
C58   C111  S    
C68   C84   S    
C23   C47   S    
C88   C116  S    
C20   H60   S    
Cr10  O14   S    
C109  O49   A    
C30   H66   S    
C45   O29   A    
C39   C40   A    
C126  C130  A    
C62   C66   A    
Cr8   O8    S    
Cr1   O17   S    
Cr6   O50   S    
C50   H69   S    
C1    O21   A    
C120  O44   A    
C83   H23   S    
C49   H70   S    
C60   C76   A    
C7    H3    S    
Cr1   O1    S    
C17   C129  S    
C30   C37   A    
C107  H39   S    
Cr8   O28   S    
C5    C21   A    
C24   C48   S    
C116  O8    A    
C15   C19   S    
C43   C44   A    
C115  O11   A    
C37   C38   A    
C84   H24   S    
Cr10  O10   S    
C61   C65   A    
C25   C38   A    
C114  O10   A    
Cr9   O9    S    
Cr5   O29   S    
C78   C82   S    
C93   C97   A    
C113  O9    A    
C99   C100  A    
C12   C124  A    
C77   C81   S    
C27   C40   A    
C8    C12   A    
Cr3   O3    S    
C19   H59   S    
C33   C34   A    
C4    O24   A    
C23   C131  A    
C27   C92   S    
C18   H58   S    
C3    O27   A    
Cr4   O44   S    
C114  O6    A    
C17   H53   S    
C104  H32   S    
C21   C129  A    
C16   H46   S    
C42   C50   A    
C71   C87   A    
C92   O40   A    
C35   H63   S    
C22   C46   S    
C112  O48   A    
C78   H18   S    
Cr4   O24   S    
Cr7   O19   S    
C91   O3    A    
C68   C88   A    
N4    H80   S    
C59   C63   A    
C79   H19   S    
C93   C118  S    
C109  O45   A    
C70   C86   A    
C59   C75   A    
C123  C127  A    
C110  O50   A    
C4    O28   A    
C69   C85   A    
C95   C104  A    
C58   C74   A    
C105  H33   S    
C82   H22   S    
Cr7   O7    S    
C55   H7    S    
C2    O26   A    
Cr7   O51   S    
C14   H50   S    
C81   H21   S    
C16   C128  S    
C107  H35   S    
C86   C114  S    
C70   H10   S    
C93   C102  A    
C67   C87   A    
C62   C78   S    
C2    O22   A    
C71   C75   A    
Cr3   O19   S    
Cr11  O11   S    
C74   N2    S    
C84   H28   S    
C13   H47   S    
C25   C42   A    
C66   C86   A    
Cr4   O20   S    
C32   C36   A    
C26   C37   A    
C57   C61   A    
Cr3   O47   S    
Cr4   O4    S    
C108  H40   S    
C119  O15   A    
C11   C123  A    
C102  H30   S    
C99   C107  S    
C105  C106  S    
C28   C39   A    
C28   C43   A    
C19   H55   S    
C98   C106  S    
C76   N4    S    
C60   C64   A    
Cr9   O37   S    
C127  C131  A    
C85   C113  S    
C73   N1    S    
C1    C124  S    
C15   H51   S    
C48   O32   A    
C65   C85   A    
Cr2   O2    S    
C110  O46   A    
C79   C83   S    
Cr11  O39   S    
C43   C51   A    
C96   C103  A    
C7    C23   A    
C91   O39   A    
Cr5   O25   S    
C118  O14   A    
C6    H2    S    
C96   C100  A    
C117  O13   A    
C16   H52   S    
C10   H42   S    
C77   H17   S    
C87   C115  S    
C4    C121  S    
C28   C91   S    
C31   C35   A    
C14   H48   S    
C52   H71   S    
C48   O36   A    
C90   O38   A    
C89   O37   A    
C69   H9    S    
C90   O2    A    
C49   C53   A    
C18   C130  S    
C6    C10   A    
Cr2   O22   S    
C111  O51   A    
C13   C17   S    
Cr11  O19   S    
C125  C129  A    
C10   C122  A    
Cr10  O18   S    
C31   H67   S    
Cr6   O30   S    
Cr9   O17   S    
C118  O42   A    
C89   O1    A    
C3    O23   A    
C103  C104  A    
Cr8   O20   S    
Cr6   O6    S    
N4    H79   S    
Cr12  O12   S    
C13   H49   S    
C5    C9    A    
Cr12  O36   S    
Cr11  O15   S    
C111  O47   A    
Cr5   O17   S    
C13   C125  S    
C106  H34   S    
C20   H56   S    
C2    C123  S    
C18   H54   S    
C106  H38   S    
C26   C41   A    
C77   H13   S    
Cr2   O18   S    
C6    C22   A    
