data_mof_unit_8822.cif
_audit_creation_date              2012-12-11T16:25:32-0500
_audit_creation_method            fapswitch 2.2
_symmetry_space_group_name_H-M    P1
_symmetry_Int_Tables_number       1
_space_group_crystal_system       triclinic
_cell_length_a                    20.363461
_cell_length_b                    7.267904
_cell_length_c                    13.335952
_cell_angle_alpha                 89.99733
_cell_angle_beta                  103.406345
_cell_angle_gamma                 90.00131
_cell_volume                      1919.93325463

loop_
_atom_site_label
_atom_site_type_symbol
_atom_type_description
_atom_site_fract_x
_atom_site_fract_y
_atom_site_fract_z
_atom_type_partial_charge
O1    O     O_R   0.449520 0.506760 0.599710 -0.535390
O2    O     O_R   0.550480 0.006760 0.400290 -0.535424
O3    O     O_R   0.587930 0.180200 0.595790 -0.544391
O4    O     O_R   0.412070 0.680200 0.404210 -0.544388
C1    C     C_R   0.614636 0.345139 0.617655 0.695196
C2    C     C_R   0.385364 0.845142 0.382346 0.695146
O5    O     O_R   0.452350 0.177380 0.611700 -0.535401
O6    O     O_R   0.547650 0.677380 0.388300 -0.535400
O7    O     O_R   0.413930 0.001760 0.416320 -0.521060
O8    O     O_R   0.586070 0.501760 0.583680 -0.521033
C3    C     C_R   0.435020 0.344802 0.637030 0.711099
C4    C     C_R   0.564979 0.844810 0.362967 0.711004
O9    O     O_3   0.487550 0.337460 0.435880 -0.369479
O10   O     O_3   0.512450 0.837460 0.564120 -0.369460
V1    V     V_3+5 0.502310 0.064670 0.511900 1.495923
V2    V     V_3+5 0.497690 0.564670 0.488100 1.495951
C5    C     C_R   0.613194 0.843641 0.105205 -0.262970
C6    C     C_R   0.386806 0.343270 0.894792 -0.262939
H1    H     H_    0.694838 0.886953 0.978844 0.147350
H2    H     H_    0.305168 0.386310 0.021178 0.147387
H3    H     H_    0.589015 0.832475 0.023950 0.128015
H4    H     H_    0.410984 0.331947 0.976041 0.128066
C7    C     C_R   0.604989 0.850308 0.283621 -0.045330
C8    C     C_R   0.395013 0.350266 0.716380 -0.045360
C9    C     C_R   0.930700 0.850924 0.320804 -0.173675
C10   C     C_R   0.069296 0.351281 0.679189 -0.173703
C11   C     C_R   0.895150 0.846835 0.398049 -0.126034
C12   C     C_R   0.104846 0.347325 0.601941 -0.126032
C13   C     C_R   0.824878 0.855425 0.373448 -0.166697
C14   C     C_R   0.175121 0.355772 0.626550 -0.166674
C15   C     C_R   0.788131 0.870966 0.269815 0.079540
C16   C     C_R   0.211873 0.371027 0.730194 0.079560
C17   C     C_R   0.825046 0.875044 0.190852 0.058309
C18   C     C_R   0.174958 0.374952 0.809160 0.058307
C19   C     C_R   0.715977 0.873868 0.241564 0.069206
C20   C     C_R   0.284028 0.373813 0.758448 0.069220
C21   C     C_R   0.682995 0.870201 0.135486 0.092335
C22   C     C_R   0.317009 0.369905 0.864525 0.092328
C23   C     C_R   0.720057 0.884620 0.059925 -0.164143
C24   C     C_R   0.279948 0.384167 0.940095 -0.164106
C25   C     C_R   0.789971 0.887905 0.087008 -0.197627
C26   C     C_R   0.210035 0.387545 0.913013 -0.197626
C27   C     C_R   0.675127 0.876200 0.314425 -0.308143
C28   C     C_R   0.324879 0.376262 0.685589 -0.308143
C29   C     C_R   0.574720 0.819849 0.178847 0.351818
C30   C     C_R   0.425278 0.319609 0.821139 0.351824
C31   C     C_R   0.896465 0.863450 0.217300 -0.069554
C32   C     C_R   0.103536 0.363504 0.782703 -0.069547
H5    H     H_    0.696417 0.894145 0.395762 0.120245
H6    H     H_    0.303593 0.394360 0.604260 0.120248
H7    H     H_    0.985221 0.844237 0.342029 0.097644
H8    H     H_    0.014772 0.344736 0.657961 0.097660
H9    H     H_    0.800771 0.846466 0.437171 0.125181
H10   H     H_    0.199226 0.346944 0.562820 0.125187
H11   H     H_    0.922292 0.835616 0.477873 0.123227
H12   H     H_    0.077701 0.336336 0.522108 0.123234
H13   H     H_    0.816292 0.894529 0.025271 0.130410
H14   H     H_    0.183715 0.394045 0.974753 0.130397
H15   H     H_    0.104406 0.733120 0.474879 0.117673
H16   H     H_    0.895579 0.232586 0.525183 0.117707
C33   C     C_R   0.230245 0.900269 0.033044 -0.141138
C34   C     C_R   0.769768 0.400662 0.966940 -0.141123
C35   C     C_R   0.284250 0.937695 0.989196 -0.185609
C36   C     C_R   0.715772 0.438226 0.010778 -0.185660
C37   C     C_R   0.347481 0.971379 0.051855 -0.121373
C38   C     C_R   0.652536 0.471803 0.948112 -0.121345
C39   C     C_R   0.358602 0.957512 0.158864 0.350991
C40   C     C_R   0.641400 0.457706 0.841112 0.350988
C41   C     C_R   0.305803 0.898774 0.205834 -0.009665
C42   C     C_R   0.694198 0.398895 0.794157 -0.009729
C43   C     C_R   0.239403 0.884157 0.141183 0.020858
C44   C     C_R   0.760601 0.384339 0.858809 0.020880
C45   C     C_R   0.316305 0.856738 0.313388 -0.161402
C46   C     C_R   0.683693 0.356721 0.686619 -0.161455
C47   C     C_R   0.259693 0.820495 0.355772 0.063725
C48   C     C_R   0.740302 0.320339 0.644252 0.063736
C49   C     C_R   0.193217 0.822039 0.291596 0.072133
C50   C     C_R   0.806777 0.321881 0.708428 0.072134
C51   C     C_R   0.183134 0.855020 0.184566 -0.153541
C52   C     C_R   0.816865 0.355031 0.815440 -0.153546
C53   C     C_R   0.267832 0.787071 0.462662 -0.153165
C54   C     C_R   0.732160 0.286785 0.537375 -0.153146
C55   C     C_R   0.212204 0.757043 0.504777 -0.124190
C56   C     C_R   0.787784 0.256625 0.495273 -0.124211
C57   C     C_R   0.147434 0.757482 0.441842 -0.122449
C58   C     C_R   0.852554 0.257049 0.558210 -0.122460
C59   C     C_R   0.137824 0.789218 0.336386 -0.142077
C60   C     C_R   0.862168 0.288912 0.663652 -0.142107
H17   H     H_    0.181274 0.882842 0.980991 0.122955
H18   H     H_    0.818740 0.383297 0.018998 0.122962
H19   H     H_    0.276393 0.948645 0.906279 0.147446
H20   H     H_    0.723638 0.449335 0.093689 0.147481
H21   H     H_    0.388434 0.010855 0.017159 0.140438
H22   H     H_    0.611584 0.511343 0.982796 0.140504
H23   H     H_    0.317079 0.785925 0.515198 0.109161
H24   H     H_    0.682914 0.285644 0.484836 0.109178
H25   H     H_    0.219461 0.733435 0.586770 0.130054
H26   H     H_    0.780525 0.232931 0.413289 0.130071
H27   H     H_    0.086646 0.787337 0.290206 0.086627
H28   H     H_    0.913347 0.287026 0.709830 0.086681
O11   O     O_R   0.913760 0.203480 0.916370 -0.535651
O12   O     O_R   0.086240 0.703480 0.083630 -0.535647
O13   O     O_R   0.047590 0.535230 0.888250 -0.539555
O14   O     O_R   0.952410 0.035230 0.111750 -0.539554
C61   C     C_R   0.063662 0.368745 0.861634 0.672086
C62   C     C_R   0.936339 0.868734 0.138368 0.672089
O15   O     O_R   0.912020 0.532880 0.904260 -0.536399
O16   O     O_R   0.087980 0.032880 0.095740 -0.536399
O17   O     O_R   0.949590 0.708460 0.099750 -0.536670
O18   O     O_R   0.050410 0.208460 0.900250 -0.536672
C63   C     C_R   0.886221 0.364366 0.882382 0.682473
C64   C     C_R   0.113779 0.864364 0.117618 0.682493
O19   O     O_3   0.012370 0.375360 0.064120 -0.376964
O20   O     O_3   0.987630 0.875360 0.935880 -0.376965
V3    V     V_3+5 0.997700 0.648160 0.988110 1.418207
V4    V     V_3+5 0.002300 0.148160 0.011890 1.418197
O21   O     O_3   0.508499 0.762363 0.149965 -0.665080
H29   H     H_    0.495592 0.745443 0.074122 0.287579
O22   O     O_3   0.491493 0.262068 0.849991 -0.665084
H30   H     H_    0.504392 0.244945 0.925821 0.287581
O23   O     O_3   0.419120 0.022061 0.214823 -0.629017
H31   H     H_    0.443643 0.912413 0.246555 0.305850
O24   O     O_3   0.580849 0.522017 0.785136 -0.629008
H32   H     H_    0.556371 0.412261 0.753469 0.305827

loop_
_geom_bond_atom_site_label_1
_geom_bond_atom_site_label_2
_ccdc_geom_bond_type
C38   C40   A    
C61   O18   A    
C35   C37   A    
C7    C29   A    
C11   C13   A    
O12   C64   A    
O1    C3    A    
O2    C4    A    
C26   H14   S    
C2    O7    A    
O14   C62   A    
O20   V3    S    
C12   H12   S    
O24   H32   S    
C23   C25   A    
O5    C3    A    
C14   H10   S    
C4    C7    S    
C46   C48   A    
C51   C64   S    
C16   C20   A    
C19   C21   A    
C48   C50   A    
H2    C24   S    
C58   C60   A    
C29   O21   S    
C6    C30   A    
C3    C8    S    
C44   C52   A    
C7    C27   A    
C41   C43   A    
C1    C46   S    
C33   C35   A    
C34   C36   A    
O12   V3    S    
O14   V4    S    
C37   C39   A    
C18   C26   A    
C42   C46   A    
C15   C17   A    
C41   C45   A    
C19   C27   A    
C9    C31   A    
C10   C32   A    
C38   H22   S    
O19   V4    S    
C33   C43   A    
C57   C59   A    
O6    V2    S    
C22   C24   A    
C45   C47   A    
C39   O23   S    
C40   O24   S    
C43   C51   A    
C53   C55   A    
C33   H17   S    
C59   H27   S    
C49   C51   A    
C5    C29   A    
C50   C60   A    
C54   H24   S    
O4    C2    A    
C48   C54   A    
H16   C58   S    
C27   H5    S    
O5    V1    S    
C5    H3    S    
O16   C64   A    
C39   C41   A    
C36   C38   A    
O4    V2    S    
O13   V3    S    
C9    H7    S    
C10   H8    S    
C32   C61   S    
O6    C4    A    
C31   C62   S    
C50   C52   A    
C34   C44   A    
O13   C61   A    
O1    V2    S    
C5    C21   A    
O2    V1    S    
C47   C49   A    
O15   V3    S    
O23   H31   S    
C60   H28   S    
H1    C23   S    
C40   C42   A    
C55   C57   A    
C8    C28   A    
C54   C56   A    
C17   C31   A    
C15   C19   A    
C20   C28   A    
C9    C11   A    
C36   H20   S    
C20   C22   A    
O18   V4    S    
O3    V1    S    
C2    C45   S    
C28   H6    S    
C6    H4    S    
O15   C63   A    
C47   C53   A    
C56   C58   A    
O3    C1    A    
O22   H30   S    
O11   C63   A    
C10   C12   A    
C17   C25   A    
O16   V4    S    
C12   C14   A    
C6    C22   A    
C56   H26   S    
C1    O8    A    
C13   C15   A    
O8    V2    S    
O21   H29   S    
C14   C16   A    
C13   H9    S    
C53   H23   S    
C34   H18   S    
C52   C63   S    
C24   C26   A    
C37   H21   S    
C30   O22   S    
C11   H11   S    
O7    V1    S    
O17   V3    S    
C25   H13   S    
C18   C32   A    
C49   C59   A    
C21   C23   A    
C55   H25   S    
O9    V2    S    
C35   H19   S    
O11   V4    S    
O10   V1    S    
C42   C44   A    
H15   C57   S    
C16   C18   A    
C8    C30   A    
C62   O17   A    
