data_mof_unit_59041.cif
_audit_creation_date              2012-12-11T15:26:36-0500
_audit_creation_method            fapswitch 2.2
_symmetry_space_group_name_H-M    P1
_symmetry_Int_Tables_number       1
_space_group_crystal_system       triclinic
_cell_length_a                    7.221057
_cell_length_b                    11.962545
_cell_length_c                    29.334187
_cell_angle_alpha                 90.000173
_cell_angle_beta                  90.536125
_cell_angle_gamma                 90.001142
_cell_volume                      2533.84124341

loop_
_atom_site_label
_atom_site_type_symbol
_atom_type_description
_atom_site_fract_x
_atom_site_fract_y
_atom_site_fract_z
_atom_type_partial_charge
O1    O     O_R   0.647170 0.849180 0.201220 -0.532228
O2    O     O_R   0.352830 0.150820 0.798780 -0.535895
O3    O     O_R   0.352830 0.150820 0.701220 -0.531958
O4    O     O_R   0.647170 0.849180 0.298780 -0.540431
O5    O     O_R   0.147170 0.650820 0.298780 -0.531963
O6    O     O_R   0.852830 0.349180 0.701220 -0.540428
O7    O     O_R   0.852830 0.349180 0.798780 -0.532225
O8    O     O_R   0.147170 0.650820 0.201220 -0.535898
O9    O     O_R   0.317430 0.862210 0.298450 -0.534274
O10   O     O_R   0.682570 0.137790 0.701550 -0.538945
O11   O     O_R   0.682570 0.137790 0.798450 -0.534487
O12   O     O_R   0.317430 0.862210 0.201550 -0.543096
O13   O     O_R   0.817430 0.637790 0.201550 -0.534487
O14   O     O_R   0.182570 0.362210 0.798450 -0.543103
O15   O     O_R   0.182570 0.362210 0.701550 -0.534279
O16   O     O_R   0.817430 0.637790 0.298450 -0.538937
H1    H     H_    0.099983 0.231221 0.459151 0.139935
H2    H     H_    0.936665 0.783434 0.545437 0.138513
H3    H     H_    0.034187 0.785955 0.954628 0.138335
H4    H     H_    0.926731 0.228175 0.040395 0.139371
H5    H     H_    0.465966 0.285948 0.045372 0.138347
H6    H     H_    0.573129 0.728167 0.959602 0.139362
H7    H     H_    0.400024 0.731216 0.540849 0.139934
H8    H     H_    0.563356 0.283435 0.454565 0.138514
C1    C     C_R   0.486527 0.888759 0.313333 0.655369
C2    C     C_R   0.513908 0.114113 0.685449 0.657022
C3    C     C_R   0.515209 0.114206 0.814597 0.657813
C4    C     C_R   0.485014 0.889055 0.186717 0.653947
C5    C     C_R   0.984788 0.614207 0.185402 0.657813
C6    C     C_R   0.014989 0.389059 0.813282 0.653941
C7    C     C_R   0.013475 0.388759 0.686667 0.655360
C8    C     C_R   0.986089 0.614112 0.314551 0.657018
H9    H     H_    0.042294 0.260411 0.380537 0.157538
H10   H     H_    0.905535 0.743439 0.624902 0.153044
H11   H     H_    0.074785 0.747634 0.875411 0.153908
H12   H     H_    0.974015 0.259391 0.119306 0.156654
H13   H     H_    0.425352 0.247635 0.124590 0.153919
H14   H     H_    0.525883 0.759393 0.880691 0.156650
H15   H     H_    0.457749 0.760409 0.619462 0.157539
H16   H     H_    0.594532 0.243436 0.375101 0.153043
H17   H     H_    0.085872 0.348627 0.601496 0.104638
H18   H     H_    0.009971 0.670594 0.401701 0.102477
H19   H     H_    0.967073 0.670023 0.098080 0.102491
H20   H     H_    0.937164 0.346276 0.898038 0.105065
H21   H     H_    0.532930 0.170008 0.901918 0.102491
H22   H     H_    0.562757 0.846257 0.101958 0.105060
H23   H     H_    0.414070 0.848638 0.398501 0.104640
H24   H     H_    0.489957 0.170595 0.598299 0.102479
O17   O     O_3   0.480630 0.680630 0.250000 -0.369591
O18   O     O_3   0.519370 0.319370 0.750000 -0.373192
O19   O     O_3   0.980630 0.819370 0.250000 -0.373190
O20   O     O_3   0.019370 0.180630 0.750000 -0.369588
V1    V     V_3+5 0.205800 0.762860 0.250000 1.456506
V2    V     V_3+5 0.794200 0.237140 0.750000 1.457617
V3    V     V_3+5 0.705800 0.737140 0.250000 1.457626
V4    V     V_3+5 0.294200 0.262860 0.750000 1.456500
H25   H     H_    0.104676 0.293810 0.535389 0.127030
H26   H     H_    0.974295 0.725195 0.468577 0.129125
H27   H     H_    0.999151 0.726075 0.031326 0.129081
H28   H     H_    0.920398 0.290651 0.964119 0.126643
H29   H     H_    0.500952 0.226063 0.968673 0.129081
H30   H     H_    0.579476 0.790636 0.035878 0.126647
H31   H     H_    0.395330 0.793808 0.464611 0.127034
H32   H     H_    0.525683 0.225196 0.531424 0.129125
C9    C     C_R   0.996840 0.536753 0.354189 -0.113063
C10   C     C_R   0.002569 0.470662 0.648970 -0.114338
C11   C     C_R   0.010116 0.471569 0.850866 -0.114750
C12   C     C_R   0.988956 0.536861 0.145707 -0.113959
C13   C     C_R   0.489897 0.971563 0.149133 -0.114742
C14   C     C_R   0.511029 0.036857 0.854291 -0.113964
C15   C     C_R   0.503151 0.036755 0.645810 -0.113063
C16   C     C_R   0.497438 0.970664 0.351029 -0.114332
C17   C     C_R   0.035059 0.350220 0.385479 -0.147033
C18   C     C_R   0.944934 0.657010 0.619370 -0.136340
C19   C     C_R   0.044696 0.659765 0.880740 -0.136609
C20   C     C_R   0.972593 0.349295 0.114325 -0.147366
C21   C     C_R   0.455392 0.159761 0.119260 -0.136620
C22   C     C_R   0.527332 0.849293 0.885671 -0.147376
C23   C     C_R   0.464957 0.850220 0.614521 -0.147019
C24   C     C_R   0.555111 0.157009 0.380632 -0.136347
C25   C     C_R   0.999707 0.419938 0.348215 -0.066751
C26   C     C_R   0.947862 0.582349 0.656229 -0.054225
C27   C     C_R   0.053124 0.585340 0.843882 -0.057188
C28   C     C_R   0.996574 0.420177 0.151745 -0.063262
C29   C     C_R   0.446933 0.085338 0.156118 -0.057197
C30   C     C_R   0.503387 0.920177 0.848252 -0.063239
C31   C     C_R   0.500327 0.919940 0.651784 -0.066742
C32   C     C_R   0.552183 0.082349 0.343772 -0.054225
C33   C     C_R   0.012885 0.580827 0.398611 -0.205627
C34   C     C_R   0.044907 0.434757 0.604788 -0.203035
C35   C     C_R   0.968300 0.433932 0.894871 -0.202394
C36   C     C_R   0.973048 0.580315 0.101181 -0.206420
C37   C     C_R   0.531671 0.933917 0.105126 -0.202406
C38   C     C_R   0.526940 0.080304 0.898817 -0.206421
C39   C     C_R   0.487070 0.080828 0.601390 -0.205632
C40   C     C_R   0.455070 0.934764 0.395211 -0.203039
C41   C     C_R   0.031830 0.509751 0.437372 0.082534
C42   C     C_R   0.028979 0.507410 0.566653 0.079788
C43   C     C_R   0.973913 0.506897 0.933085 0.080077
C44   C     C_R   0.963999 0.508711 0.062371 0.082527
C45   C     C_R   0.526079 0.006883 0.066912 0.080086
C46   C     C_R   0.535969 0.008700 0.937626 0.082531
C47   C     C_R   0.468137 0.009752 0.562628 0.082535
C48   C     C_R   0.471008 0.007414 0.433346 0.079785
C49   C     C_R   0.051301 0.393607 0.429421 0.091159
C50   C     C_R   0.983102 0.620563 0.575047 0.085935
C51   C     C_R   0.007693 0.621671 0.924875 0.086802
C52   C     C_R   0.955987 0.392040 0.070279 0.090849
C53   C     C_R   0.492365 0.121661 0.075124 0.086799
C54   C     C_R   0.543941 0.892032 0.929718 0.090843
C55   C     C_R   0.448685 0.893606 0.570580 0.091156
C56   C     C_R   0.516910 0.120566 0.424954 0.085943
C57   C     C_R   0.027395 0.548706 0.483617 0.055040
C58   C     C_R   0.049629 0.470674 0.520506 0.058818
C59   C     C_R   0.955038 0.469241 0.979175 0.058643
C60   C     C_R   0.966790 0.547862 0.016137 0.055443
C61   C     C_R   0.544919 0.969226 0.020823 0.058647
C62   C     C_R   0.533201 0.047849 0.983861 0.055456
C63   C     C_R   0.472574 0.048708 0.516383 0.055039
C64   C     C_R   0.450347 0.970677 0.479494 0.058816
C65   C     C_R   0.082916 0.357386 0.509972 -0.191838
C66   C     C_R   0.992022 0.661688 0.494266 -0.194218
C67   C     C_R   0.989984 0.662053 0.005602 -0.193447
C68   C     C_R   0.933724 0.354850 0.989610 -0.193024
C69   C     C_R   0.510078 0.162040 0.994397 -0.193463
C70   C     C_R   0.566178 0.854836 0.010387 -0.193027
C71   C     C_R   0.417071 0.857386 0.490028 -0.191840
C72   C     C_R   0.507958 0.161690 0.505736 -0.194222
C73   C     C_R   0.081213 0.319859 0.465421 -0.189607
C74   C     C_R   0.969491 0.696403 0.539035 -0.190656
C75   C     C_R   0.010828 0.697758 0.960919 -0.190064
C76   C     C_R   0.936627 0.317364 0.034174 -0.188888
C77   C     C_R   0.489265 0.197748 0.039080 -0.190091
C78   C     C_R   0.563266 0.817354 0.965822 -0.188884
C79   C     C_R   0.418778 0.819857 0.534579 -0.189606
C80   C     C_R   0.530515 0.196405 0.460966 -0.190654
C81   C     C_2   0.891284 0.622033 0.701782 0.490132
H33   H     H_    0.856421 0.562969 0.728377 0.010234
O21   O     O_2   0.883497 0.721785 0.710257 -0.492200
C82   C     C_2   0.958952 0.368267 0.303846 0.492066
H34   H     H_    0.883019 0.414827 0.278100 0.031366
O22   O     O_2   0.005498 0.272004 0.296109 -0.484948
C83   C     C_2   0.036918 0.370196 0.196440 0.496035
H35   H     H_    0.106677 0.419239 0.222467 0.022504
O23   O     O_2   0.996891 0.272853 0.204149 -0.485820
C84   C     C_2   0.109259 0.627752 0.798669 0.495177
H36   H     H_    0.150068 0.570531 0.771950 0.016738
O24   O     O_2   0.110352 0.727866 0.790625 -0.492709
C85   C     C_2   0.463050 0.870204 0.803556 0.496029
H37   H     H_    0.393309 0.919254 0.777527 0.022484
O25   O     O_2   0.503070 0.772854 0.795847 -0.485820
C86   C     C_2   0.390810 0.127752 0.201331 0.495223
H38   H     H_    0.350048 0.070525 0.228054 0.016685
O26   O     O_2   0.389665 0.227867 0.209373 -0.492725
C87   C     C_2   0.608794 0.122029 0.298221 0.490110
H39   H     H_    0.643587 0.062957 0.271622 0.010211
O27   O     O_2   0.616692 0.221782 0.289748 -0.492231
C88   C     C_2   0.541165 0.868276 0.696152 0.491988
H40   H     H_    0.617065 0.914857 0.721898 0.031371
O28   O     O_2   0.494723 0.771987 0.703886 -0.484948

loop_
_geom_bond_atom_site_label_1
_geom_bond_atom_site_label_2
_ccdc_geom_bond_type
C7    C10   S    
O14   V4    S    
C11   C27   A    
C60   C67   A    
C87   O27   D    
C4    C13   S    
C44   C60   A    
C19   C27   A    
C20   C28   A    
C23   C31   A    
O4    C1    A    
C64   C71   A    
O9    C1    A    
C10   C34   A    
C9    C33   A    
C81   O21   D    
H11   C19   S    
H6    C78   S    
O8    C5    A    
O5    V1    S    
C14   C38   A    
C56   C80   A    
C57   C58   A    
C26   C81   S    
C13   C37   A    
C72   C80   A    
C43   C59   A    
C42   C58   A    
C10   C26   A    
C45   C53   A    
C59   C60   A    
C27   C84   S    
C83   O23   D    
C68   C76   A    
C47   C55   A    
H5    C77   S    
H28   C68   S    
H12   C20   S    
C58   C65   A    
C9    C25   A    
C88   O28   D    
C57   C66   A    
C39   C47   A    
H32   C72   S    
O1    C4    A    
H2    C74   S    
H23   C40   S    
H16   C24   S    
O2    C3    A    
C62   C69   A    
C61   C70   A    
C25   C82   S    
C6    C11   S    
C46   C62   A    
O5    C8    A    
C41   C49   A    
C63   C72   A    
H8    C80   S    
H17   C34   S    
C21   C29   A    
C20   C52   A    
O7    C6    A    
H3    C75   S    
C2    C15   S    
H4    C76   S    
O10   V2    S    
H21   C38   S    
C17   C25   A    
C16   C32   A    
O20   V2    S    
C84   O24   D    
H27   C67   S    
H26   C66   S    
C44   C52   A    
C53   C77   A    
C12   C28   A    
C32   C87   S    
C19   C51   A    
C82   H34   S    
C51   C75   A    
C30   C85   S    
C37   C45   A    
C48   C56   A    
C49   C73   A    
H14   C22   S    
C28   C83   S    
O17   V3    S    
H1    C73   S    
O18   V4    S    
C33   C41   A    
O19   V1    S    
H15   C23   S    
C18   C50   A    
C5    C12   S    
O3    V4    S    
C17   C49   A    
O11   C3    A    
C69   C77   A    
C24   C56   A    
C11   C35   A    
O10   C2    A    
C22   C54   A    
C1    C16   S    
C21   C53   A    
C3    C14   S    
C38   C46   A    
H20   C35   S    
H10   C18   S    
C15   C31   A    
H9    C17   S    
C86   O26   D    
O6    V2    S    
C40   C48   A    
O4    V3    S    
C88   H40   S    
C46   C54   A    
O9    V1    S    
C41   C57   A    
C14   C30   A    
C13   C29   A    
C36   C44   A    
H30   C70   S    
C84   H36   S    
C18   C26   A    
O13   C5    A    
C50   C74   A    
C54   C78   A    
C65   C73   A    
C52   C76   A    
C59   C68   A    
C67   C75   A    
O3    C2    A    
C47   C63   A    
O12   V1    S    
C82   O22   D    
O8    V1    S    
C63   C64   A    
O15   C7    A    
H7    C79   S    
O16   C8    A    
C43   C51   A    
C81   H33   S    
H19   C36   S    
C42   C50   A    
C31   C88   S    
C23   C55   A    
H18   C33   S    
C45   C61   A    
O15   V4    S    
C85   O25   D    
O1    V3    S    
C29   C86   S    
O14   C6    A    
C24   C32   A    
O2    V4    S    
C61   C62   A    
C55   C79   A    
H22   C37   S    
H13   C21   S    
C12   C36   A    
C34   C42   A    
O6    C7    A    
C71   C79   A    
O13   V3    S    
O16   V3    S    
H24   C39   S    
H25   C65   S    
C16   C40   A    
C15   C39   A    
C86   H38   S    
C70   C78   A    
C22   C30   A    
O11   V2    S    
C87   H39   S    
H29   C69   S    
O7    V2    S    
O12   C4    A    
C35   C43   A    
C85   H37   S    
C66   C74   A    
H31   C71   S    
C83   H35   S    
C8    C9    S    
C48   C64   A    
