data_mof_unit_60998.cif
_audit_creation_date              2012-12-10T17:51:40-0500
_audit_creation_method            fapswitch 2.2
_symmetry_space_group_name_H-M    P1
_symmetry_Int_Tables_number       1
_space_group_crystal_system       triclinic
_cell_length_a                    18.631713
_cell_length_b                    18.683667
_cell_length_c                    18.789441
_cell_angle_alpha                 109.201056
_cell_angle_beta                  109.46814
_cell_angle_gamma                 109.297532
_cell_volume                      5062.64645486

loop_
_atom_site_label
_atom_site_type_symbol
_atom_type_description
_atom_site_fract_x
_atom_site_fract_y
_atom_site_fract_z
_atom_type_partial_charge
C1    C     C_R   0.620259 0.120236 0.999955 0.857034
C2    C     C_R   0.495330 0.755320 0.677597 -0.270845
C3    C     C_R   0.495656 0.820710 0.740086 0.117567
C4    C     C_R   0.497492 0.117652 0.119329 0.930113
C5    C     C_R   0.502835 0.816804 0.815391 -0.084776
C6    C     C_R   0.322025 0.820517 0.078905 -0.184660
C7    C     C_R   0.257407 0.757151 0.078862 -0.184331
C8    C     C_R   0.186467 0.686083 0.999776 -0.009195
C9    C     C_R   0.178816 0.678306 0.920724 -0.187634
C10   C     C_R   0.242090 0.743035 0.920771 -0.183334
C11   C     C_R   0.313661 0.813479 0.999865 -0.005587
C12   C     C_R   0.823533 0.243686 0.002665 -0.181929
C13   C     C_R   0.620392 0.502385 0.622772 0.873003
C14   C     C_R   0.502437 0.383811 0.385431 0.933246
C15   C     C_R   0.379733 0.503684 0.383310 0.862226
C16   C     C_R   0.379758 0.879710 0.999950 0.856873
C17   C     C_R   0.501133 0.622412 0.623703 0.892793
C18   C     C_R   0.879369 0.500410 0.880889 0.868707
C19   C     C_R   0.879738 0.379867 0.000080 0.848982
C20   C     C_R   0.119926 0.498833 0.119287 0.859195
C21   C     C_R   0.120200 0.620155 0.999816 0.858091
C22   C     C_R   0.770576 0.573510 0.741351 -0.180970
C23   C     C_R   0.813703 0.313911 0.000215 -0.005020
C24   C     C_R   0.833169 0.572580 0.805389 -0.241468
C25   C     C_R   0.811650 0.499280 0.815985 0.000173
C26   C     C_R   0.726851 0.426239 0.763914 0.192303
C27   C     C_R   0.664412 0.428165 0.700041 -0.188653
C28   C     C_R   0.501182 0.881541 0.880701 0.885468
C29   C     C_R   0.686288 0.501339 0.688773 -0.070463
C30   C     C_R   0.323541 0.503020 0.245519 -0.182438
C31   C     C_R   0.258413 0.499429 0.179203 -0.187576
C32   C     C_R   0.185186 0.497692 0.185160 -0.009870
C33   C     C_R   0.175471 0.497528 0.255719 -0.182083
C34   C     C_R   0.740530 0.320738 0.997414 -0.188960
C35   C     C_R   0.239237 0.498394 0.320639 -0.184681
C36   C     C_R   0.313440 0.502122 0.315742 -0.009989
C37   C     C_2   0.493919 0.242959 0.320616 -0.152422
C38   C     C_2   0.510793 0.320138 0.325085 -0.334803
C39   C     C_2   0.505344 0.181523 0.259221 -0.154308
C40   C     C_2   0.488922 0.177890 0.182820 -0.334142
C41   C     C_R   0.760168 0.180287 0.003847 -0.189021
C42   C     C_3   0.523528 0.614968 0.783541 -0.882370
C43   C     C_3   0.699782 0.346774 0.774983 -0.923198
C44   C     C_R   0.675883 0.255981 0.995976 -0.179891
C45   C     C_R   0.686379 0.186448 0.999936 -0.009549
C46   C     C_R   0.511819 0.750434 0.829156 -0.220849
C47   C     C_R   0.511471 0.684976 0.766754 0.187977
C48   C     C_R   0.502150 0.687905 0.690469 -0.050809
H1    H     H_    0.475468 0.226406 0.364503 0.163531
H2    H     H_    0.598818 0.372355 0.658995 0.161810
H3    H     H_    0.380905 0.505212 0.241629 0.143109
H4    H     H_    0.265886 0.500065 0.124596 0.143133
H5    H     H_    0.118414 0.495968 0.259953 0.144553
H6    H     H_    0.231642 0.497753 0.375195 0.144976
H7    H     H_    0.523515 0.136973 0.275192 0.162805
H8    H     H_    0.461038 0.215244 0.162766 0.156695
H9    H     H_    0.767824 0.125999 0.006402 0.145072
H10   H     H_    0.880590 0.238880 0.005004 0.143502
H11   H     H_    0.733029 0.375112 0.994908 0.144264
H12   H     H_    0.489303 0.756465 0.618587 0.149005
H13   H     H_    0.618664 0.260656 0.993210 0.143500
H14   H     H_    0.517876 0.749270 0.888165 0.159688
H15   H     H_    0.537498 0.628005 0.850155 0.231535
H16   H     H_    0.463079 0.550834 0.737089 0.256803
H17   H     H_    0.579402 0.611829 0.776377 0.232628
H18   H     H_    0.550911 0.948050 0.774291 0.174834
H19   H     H_    0.481564 0.881920 0.667429 0.178455
H20   H     H_    0.752302 0.352990 0.830593 0.241766
H21   H     H_    0.643087 0.335545 0.786124 0.237759
H22   H     H_    0.680097 0.288837 0.715139 0.247304
H23   H     H_    0.377509 0.875485 0.140095 0.140862
H24   H     H_    0.263205 0.762686 0.140021 0.143945
H25   H     H_    0.123432 0.623224 0.859547 0.144561
H26   H     H_    0.236126 0.737690 0.859620 0.145455
H27   H     H_    0.787730 0.630641 0.733455 0.163342
H28   H     H_    0.898708 0.628473 0.846071 0.143983
H29   H     H_    0.538914 0.340691 0.288342 0.156674
N1    N     N_3   0.490463 0.891577 0.728490 -0.426812
O1    O     O_R   0.539900 0.091920 0.948590 -0.623602
O2    O     O_R   0.908310 0.551980 0.960300 -0.620879
O3    O     O_R   0.908280 0.357000 0.948510 -0.623045
O4    O     O_R   0.643340 0.091290 0.051390 -0.620676
O5    O     O_R   0.908310 0.459790 0.051330 -0.620990
O6    O     O_R   0.091510 0.448020 0.039520 -0.621974
O7    O     O_R   0.091540 0.550800 0.142340 -0.622298
O8    O     O_R   0.091520 0.540220 0.948490 -0.623092
O9    O     O_R   0.091540 0.643000 0.051310 -0.621841
O10   O     O_R   0.448270 0.091350 0.039630 -0.623978
O11   O     O_R   0.551710 0.090720 0.142430 -0.615398
O12   O     O_R   0.643360 0.554400 0.594170 -0.624458
O13   O     O_R   0.356660 0.908710 0.948610 -0.622150
O14   O     O_R   0.460100 0.908080 0.051410 -0.627486
O15   O     O_R   0.448290 0.909280 0.857570 -0.596785
O16   O     O_R   0.551730 0.908650 0.960370 -0.632267
O17   O     O_R   0.539910 0.450960 0.594180 -0.632834
O18   O     O_R   0.448310 0.360490 0.412110 -0.615178
O19   O     O_R   0.551750 0.463920 0.412090 -0.623477
O20   O     O_R   0.356690 0.452080 0.412090 -0.619630
O21   O     O_R   0.460130 0.555510 0.412070 -0.625185
O22   O     O_R   0.448290 0.542560 0.594160 -0.620817
O23   O     O_R   0.551730 0.645990 0.594150 -0.625468
O24   O     O_R   0.908290 0.449200 0.857490 -0.615868
Zn1   Zn    Zn3+2 0.430930 0.000420 0.931360 0.965604
Zn2   Zn    Zn3+2 0.569070 0.999580 0.068640 0.951809
Zn3   Zn    Zn3+2 0.430950 0.434180 0.503140 0.948551
Zn4   Zn    Zn3+2 0.569090 0.572300 0.503120 0.951975
Zn5   Zn    Zn3+2 0.999890 0.431370 0.931260 0.957350
Zn6   Zn    Zn3+2 0.999930 0.568630 0.068560 0.957424

loop_
_geom_bond_atom_site_label_1
_geom_bond_atom_site_label_2
_ccdc_geom_bond_type
O18   Zn3   S    
C21   O9    A    
C22   C29   A    
C13   O12   A    
C27   C29   A    
O8    Zn5   S    
C17   C48   S    
C31   H4    S    
C30   H3    S    
O15   Zn1   S    
O3    Zn5   S    
C7    C8    A    
H19   N1    S    
C12   C23   A    
O22   Zn3   S    
C12   C41   A    
O20   Zn3   S    
C13   O17   A    
C13   C29   S    
C30   C31   A    
C2    H12   S    
O6    Zn5   S    
O5    Zn6   S    
C28   O16   A    
C18   O24   A    
C17   O23   A    
O17   Zn3   S    
C46   C47   A    
C39   H7    S    
O9    Zn6   S    
C4    C40   S    
C43   H20   S    
C40   H8    S    
C42   H17   S    
O7    Zn6   S    
C9    C10   A    
C27   H2    S    
C12   H10   S    
O16   Zn2   S    
C43   H21   S    
C35   H6    S    
O1    Zn1   S    
C18   C25   S    
C9    H25   S    
C22   H27   S    
C19   O5    A    
C14   O18   A    
C26   C43   S    
C33   H5    S    
C6    H23   S    
H18   N1    S    
C34   C44   A    
C24   C25   A    
O12   Zn4   S    
O13   Zn1   S    
C6    C11   A    
C8    C9    A    
C2    C48   A    
C1    O4    A    
C28   O15   A    
C35   C36   A    
C19   C23   S    
C37   C38   D    
C14   C38   S    
C5    C28   S    
C37   H1    S    
C11   C16   S    
C47   C48   A    
C23   C34   A    
C20   O7    A    
C8    C21   S    
C26   C27   A    
O24   Zn5   S    
O19   Zn4   S    
C46   H14   S    
C16   O14   A    
C43   H22   S    
C20   O6    A    
O11   Zn2   S    
C34   H11   S    
C1    O1    A    
C22   C24   A    
C15   O20   A    
C42   H16   S    
C15   C36   S    
C7    H24   S    
O10   Zn1   S    
C44   C45   A    
C14   O19   A    
C4    O11   A    
C20   C32   S    
O23   Zn4   S    
O21   Zn4   S    
C21   O8    A    
C41   C45   A    
C31   C32   A    
C24   H28   S    
C15   O21   A    
C3    C5    A    
C6    C7    A    
C4    O10   A    
C38   H29   S    
C44   H13   S    
C5    C46   A    
O2    Zn6   S    
C30   C36   A    
C32   C33   A    
C2    C3    A    
C25   C26   A    
C41   H9    S    
C37   C39   S    
C10   H26   S    
C1    C45   S    
C33   C35   A    
C42   C47   S    
C17   O22   A    
C10   C11   A    
O14   Zn2   S    
C39   C40   D    
C16   O13   A    
C18   O2    A    
O4    Zn2   S    
C19   O3    A    
C3    N1    S    
C42   H15   S    
