data_mof_unit_20061.cif
_audit_creation_date              2013-03-05T15:43:49-0500
_audit_creation_method            fapswitch 2.2
_symmetry_space_group_name_H-M    P1
_symmetry_Int_Tables_number       1
_space_group_crystal_system       triclinic
_cell_length_a                    10.625498
_cell_length_b                    10.923107
_cell_length_c                    9.719678
_cell_angle_alpha                 89.709816
_cell_angle_beta                  89.930913
_cell_angle_gamma                 90.715458
_cell_volume                      1127.99605152

loop_
_atom_site_label
_atom_site_type_symbol
_atom_site_description
_atom_site_fract_x
_atom_site_fract_y
_atom_site_fract_z
_atom_type_partial_charge
O1    O     O_R   0.500020 0.321960 0.617040 -0.531608
O2    O     O_R   0.499980 0.321920 0.382900 -0.581417
C1    C     C_R   0.497387 0.265407 0.500329 0.860259
O3    O     O_R   0.316870 0.499990 0.617050 -0.539303
O4    O     O_R   0.316830 0.499950 0.382910 -0.587744
C2    C     C_R   0.259488 0.499177 0.499880 0.805175
Cu1   Cu    Cu3+1 0.500030 0.500020 0.638630 0.990003
Cu2   Cu    Cu3+1 0.499970 0.499980 0.361370 0.943248
O5    O     O_R   0.500020 0.678080 0.617100 -0.583251
O6    O     O_R   0.499980 0.678040 0.382960 -0.579890
O7    O     O_R   0.683170 0.500050 0.617090 -0.591199
O8    O     O_R   0.683130 0.500010 0.382950 -0.575358
C3    C     C_R   0.500442 0.734566 0.499880 0.848311
C4    C     C_R   0.740634 0.501590 0.500089 0.786493
C5    C     C_3   0.039808 0.410423 0.581872 -0.139167
C6    C     C_3   0.955830 0.393909 0.453176 -0.184194
H1    H     H_    0.916490 0.305799 0.414996 0.139159
H2    H     H_    0.075269 0.335263 0.648010 0.191913
C7    C     C_3   0.877591 0.502807 0.500590 0.003212
C8    C     C_3   0.959335 0.519585 0.629781 -0.149286
C9    C     C_3   0.043783 0.608420 0.546109 0.029120
C10   C     C_3   0.959933 0.593149 0.417633 -0.197781
C11   C     C_3   0.040599 0.483931 0.370557 -0.142792
C12   C     C_3   0.122662 0.500293 0.499391 -0.026330
H3    H     H_    0.923739 0.534854 0.735688 0.153589
H4    H     H_    0.922476 0.666342 0.350078 0.130185
H5    H     H_    0.076476 0.468895 0.264717 0.164837
C13   C     C_2   0.487567 0.933261 0.387597 -0.156341
C14   C     C_2   0.504718 0.866656 0.501902 -0.297140
H6    H     H_    0.471767 0.888648 0.289368 0.167542
H7    H     H_    0.524518 0.907574 0.600748 0.146732
C15   C     C_2   0.493017 0.067358 0.387355 -0.173508
C16   C     C_2   0.489067 0.133311 0.503149 -0.311615
H8    H     H_    0.499573 0.112498 0.287705 0.175464
H9    H     H_    0.476795 0.091928 0.603661 0.161237
C17   C     C_2   0.415009 0.442257 0.923685 0.419065
N1    N     N_2   0.498620 0.498660 0.846910 -0.341398
H10   H     H_    0.575823 0.537470 0.893632 0.156269
C18   C     C_2   0.421159 0.435928 0.078815 -0.134231
N2    N     N_2   0.498590 0.498630 0.153040 -0.308035
H11   H     H_    0.353992 0.376173 0.131106 0.184154
H12   H     H_    0.557556 0.560675 0.105259 0.186425
N3    N     N_R   0.310480 0.380301 0.861319 0.142345
O9    O     O_R   0.197057 0.413296 0.893584 -0.433868
O10   O     O_R   0.326528 0.272587 0.808376 -0.398005
C19   C     C_R   0.101096 0.725999 0.598764 0.075978
C20   C     C_R   0.098529 0.833680 0.519092 -0.153850
C21   C     C_R   0.157459 0.940688 0.566368 -0.117249
C22   C     C_R   0.219194 0.940998 0.693221 -0.106134
C23   C     C_R   0.222055 0.834343 0.773097 -0.137503
C24   C     C_R   0.163187 0.727250 0.726228 -0.120298
H13   H     H_    0.052753 0.834935 0.419760 0.122929
H14   H     H_    0.155915 0.023233 0.504279 0.136886
H15   H     H_    0.265084 0.023728 0.729412 0.167829
H16   H     H_    0.270285 0.834499 0.871133 0.134232
H17   H     H_    0.166786 0.645127 0.788787 0.175902

loop_
_geom_bond_atom_site_label_1
_geom_bond_atom_site_label_2
_geom_bond_distance
_ccdc_geom_bond_type
C5    H2    1.110038 S    
C11   C12   1.536661 S    
N1    H10   1.026174 S    
C11   H5    1.110371 S    
O4    Cu2   1.956929 S    
C22   H15   1.082016 S    
C23   H16   1.082489 S    
Cu2   O8    1.957684 S    
C2    C12   1.454065 S    
C15   C16   1.340265 D    
C13   H6    1.086405 S    
C23   C24   1.398213 A    
Cu1   N1    2.024431 S    
Cu1   Cu2   2.694881 S    
C14   H7    1.081468 S    
C5    C12   1.533022 S    
C9    C10   1.543391 S    
Cu1   O7    1.956929 S    
N3    O10   1.299666 A    
C21   H14   1.082735 S    
C6    C7    1.532225 S    
C21   C22   1.397306 A    
O4    C2    1.289171 A    
C4    C7    1.455150 S    
N2    H12   1.026181 S    
C13   C14   1.338827 D    
C16   H9    1.081435 S    
O8    C4    1.292879 A    
C22   C23   1.397384 A    
C6    C11   1.546349 S    
O2    C1    1.294957 A    
O3    Cu1   1.957684 S    
N3    O9    1.300684 A    
C5    C8    1.549157 S    
O7    C4    1.290051 A    
O3    C2    1.292463 A    
C8    H3    1.110344 S    
C1    C16   1.444625 S    
C5    C6    1.547387 S    
C9    C19   1.506699 S    
C20   C21   1.399038 A    
C13   C15   1.465165 S    
C7    C10   1.535607 S    
C8    C9    1.541635 S    
C18   H11   1.085282 S    
Cu2   O6    1.957311 S    
C24   H17   1.082248 S    
C10   H4    1.109955 S    
C9    C12   1.527364 S    
C3    C14   1.443207 S    
C18   N2    1.287954 D    
Cu1   O5    1.955142 S    
C20   H13   1.081689 S    
O5    C3    1.292911 A    
C19   C20   1.405541 A    
C17   N1    1.306052 D    
C17   N3    1.430399 S    
Cu2   N2    2.025097 S    
O1    Cu1   1.957311 S    
C10   C11   1.548348 S    
C19   C24   1.404378 A    
C17   C18   1.510584 S    
O2    Cu2   1.955140 S    
C7    C8    1.538100 S    
C6    H1    1.110265 S    
O1    C1    1.294590 A    
O6    C3    1.296056 A    
C15   H8    1.086387 S    
