data_mof_unit_64864.cif
_audit_creation_date              2012-12-10T20:17:18-0500
_audit_creation_method            fapswitch 2.2
_symmetry_space_group_name_H-M    P1
_symmetry_Int_Tables_number       1
_space_group_crystal_system       triclinic
_cell_length_a                    35.543937
_cell_length_b                    35.543929
_cell_length_c                    23.53437
_cell_angle_alpha                 90.000103
_cell_angle_beta                  89.999588
_cell_angle_gamma                 90.0
_cell_volume                      29732.6446345

loop_
_atom_site_label
_atom_site_type_symbol
_atom_type_description
_atom_site_fract_x
_atom_site_fract_y
_atom_site_fract_z
_atom_type_partial_charge
C1    C     C_R   0.000000 0.426585 0.500000 0.866477
C2    C     C_1   0.267053 1.000000 0.499999 -0.071167
C3    C     C_R   0.826349 0.000019 0.447939 0.184673
C4    C     C_R   0.999977 0.173650 0.552063 0.184678
C5    C     C_R   0.826349 0.999980 0.552063 0.184675
C6    C     C_R   0.999982 0.826349 0.552061 0.184673
C7    C     C_R   0.173651 0.000039 0.552061 0.184677
C8    C     C_R   0.499796 0.673651 0.947939 0.184686
C9    C     C_R   0.673651 0.499997 0.947937 0.184669
C10   C     C_R   0.499976 0.326350 0.947937 0.184673
C11   C     C_R   0.326350 0.500021 0.947939 0.184681
C12   C     C_R   0.500204 0.673651 0.052062 0.184683
C13   C     C_1   0.000000 0.732946 0.499999 -0.071167
C14   C     C_R   0.326349 0.499976 0.052063 0.184668
C15   C     C_R   0.500023 0.326349 0.052061 0.184676
C16   C     C_R   0.673650 0.500001 0.052061 0.184681
C17   C     C_R   0.000021 0.134367 0.448462 -0.203192
C18   C     C_R   0.134367 0.999960 0.448461 -0.203195
C19   C     C_R   0.000017 0.865633 0.448462 -0.203192
C20   C     C_R   0.865633 0.000019 0.448463 -0.203188
C21   C     C_R   0.999978 0.134367 0.551539 -0.203194
C22   C     C_R   0.865633 0.999981 0.551539 -0.203193
C23   C     C_R   0.999983 0.865633 0.551538 -0.203189
C24   C     C_1   0.732946 1.000000 0.500001 -0.071167
C25   C     C_R   0.134367 0.000039 0.551537 -0.203190
C26   C     C_R   0.499802 0.634367 0.948463 -0.203197
C27   C     C_R   0.634367 0.499997 0.948461 -0.203176
C28   C     C_R   0.499976 0.365633 0.948461 -0.203189
C29   C     C_R   0.365633 0.500021 0.948462 -0.203207
C30   C     C_R   0.500198 0.634367 0.051537 -0.203194
C31   C     C_R   0.365633 0.499977 0.051539 -0.203176
C32   C     C_R   0.500023 0.365633 0.051538 -0.203192
C33   C     C_R   0.634367 0.500002 0.051537 -0.203206
C34   C     C_R   1.000000 0.114633 0.500000 -0.138961
C35   C     C_1   0.500000 0.767054 0.000001 -0.071168
C36   C     C_R   0.114633 1.000000 0.499999 -0.138962
C37   C     C_R   0.000000 0.885367 0.500000 -0.138959
C38   C     C_R   0.885367 1.000000 0.500001 -0.138960
C39   C     C_R   0.500000 0.614633 0.000000 -0.138963
C40   C     C_R   0.614632 0.499999 0.999999 -0.138960
C41   C     C_R   0.500000 0.385368 1.000000 -0.138959
C42   C     C_R   0.385368 0.499999 0.000000 -0.138960
C43   C     C_R   0.999999 0.193249 0.500001 0.112513
C44   C     C_R   0.193249 1.000000 0.499999 0.112511
C45   C     C_R   0.000000 0.806751 0.499999 0.112515
C46   C     C_1   0.767053 0.500000 0.999999 -0.071167
C47   C     C_R   0.806751 1.000000 0.500001 0.112514
C48   C     C_R   0.500000 0.693249 0.000001 0.112507
C49   C     C_R   0.693249 0.499999 0.999999 0.112514
C50   C     C_R   0.500000 0.306751 0.999999 0.112514
C51   C     C_R   0.306751 0.499999 0.000001 0.112514
C52   C     C_1   0.999999 0.233455 0.500001 -0.027431
C53   C     C_1   0.233455 1.000000 0.499999 -0.027429
C54   C     C_1   0.000000 0.766545 0.499999 -0.027433
C55   C     C_1   0.766545 1.000000 0.500001 -0.027433
C56   C     C_1   0.500000 0.733456 0.000001 -0.027423
C57   C     C_1   0.500000 0.232946 0.999999 -0.071168
C58   C     C_1   0.733455 0.499999 0.999999 -0.027433
C59   C     C_1   0.500000 0.266545 0.999999 -0.027433
C60   C     C_1   0.266545 0.499999 0.000001 -0.027432
C61   C     C_3   0.000045 0.194232 0.391890 -0.913101
C62   C     C_3   0.194232 0.999916 0.391888 -0.913103
C63   C     C_3   0.000039 0.805768 0.391889 -0.913105
C64   C     C_3   0.805768 0.000040 0.391891 -0.913102
C65   C     C_3   0.999953 0.194232 0.608111 -0.913104
C66   C     C_3   0.805768 0.999960 0.608111 -0.913104
C67   C     C_3   0.999961 0.805768 0.608109 -0.913101
C68   C     C_1   0.232947 0.499999 0.000001 -0.071168
C69   C     C_3   0.194231 0.000082 0.608109 -0.913100
C70   C     C_3   0.499571 0.694232 0.891891 -0.913101
C71   C     C_3   0.694232 0.499996 0.891889 -0.913091
C72   C     C_3   0.499951 0.305768 0.891889 -0.913100
C73   C     C_3   0.305768 0.500044 0.891891 -0.913113
C74   C     C_3   0.500429 0.694231 0.108111 -0.913098
C75   C     C_3   0.305768 0.499952 0.108111 -0.913092
C76   C     C_3   0.500049 0.305768 0.108109 -0.913104
C77   C     C_3   0.694231 0.500001 0.108109 -0.913113
C78   C     C_R   0.965866 0.326415 0.499876 -0.163866
C79   C     C_R   0.326414 0.034134 0.499891 -0.163863
C80   C     C_R   0.034134 0.673585 0.500048 -0.163864
C81   C     C_R   0.426585 0.000000 0.500000 0.866477
C82   C     C_R   0.673585 0.965866 0.500052 -0.163864
C83   C     C_R   0.034134 0.326414 0.500126 -0.163865
C84   C     C_R   0.673585 0.034134 0.499950 -0.163865
C85   C     C_R   0.965866 0.673585 0.499951 -0.163863
C86   C     C_R   0.326414 0.965866 0.500107 -0.163862
C87   C     C_R   0.465866 0.826414 0.000016 -0.163862
C88   C     C_R   0.826414 0.534134 0.000043 -0.163864
C89   C     C_R   0.534134 0.173586 0.999951 -0.163863
C90   C     C_R   0.173585 0.465865 0.999926 -0.163863
C91   C     C_R   0.534134 0.826414 0.999986 -0.163862
C92   C     C_R   1.000000 0.573415 0.500000 0.866476
C93   C     C_R   0.173586 0.534133 0.000076 -0.163863
C94   C     C_R   0.465866 0.173585 0.000048 -0.163864
C95   C     C_R   0.826415 0.465866 0.999955 -0.163864
C96   C     C_R   0.965817 0.365548 0.499877 -0.196472
C97   C     C_R   0.365548 0.034183 0.499893 -0.196471
C98   C     C_R   0.034183 0.634452 0.500048 -0.196472
C99   C     C_R   0.634452 0.965817 0.500051 -0.196471
C100  C     C_R   0.034183 0.365548 0.500124 -0.196472
C101  C     C_R   0.634452 0.034183 0.499950 -0.196472
C102  C     C_R   0.965817 0.634452 0.499951 -0.196473
C103  C     C_R   0.573415 1.000000 0.500000 0.866476
C104  C     C_R   0.365548 0.965817 0.500106 -0.196471
C105  C     C_R   0.465817 0.865548 0.000016 -0.196470
C106  C     C_R   0.865548 0.534183 0.000043 -0.196472
C107  C     C_R   0.534183 0.134452 0.999952 -0.196471
C108  C     C_R   0.134452 0.465817 0.999927 -0.196471
C109  C     C_R   0.534183 0.865548 0.999986 -0.196470
C110  C     C_R   0.134452 0.534183 0.000074 -0.196471
C111  C     C_R   0.465817 0.134452 0.000047 -0.196470
C112  C     C_R   0.865548 0.465817 0.999956 -0.196472
C113  C     C_R   1.000000 0.385400 0.500000 -0.038050
C114  C     C_R   0.500000 0.926586 0.000000 0.866479
C115  C     C_R   0.385400 1.000000 0.499999 -0.038053
C116  C     C_R   1.000000 0.614599 0.500000 -0.038052
C117  C     C_R   0.614599 1.000000 0.500000 -0.038052
C118  C     C_R   0.500000 0.885400 0.000000 -0.038054
C119  C     C_R   0.885400 0.500000 1.000000 -0.038051
C120  C     C_R   0.500000 0.114599 1.000000 -0.038054
C121  C     C_R   0.114599 0.500000 0.000000 -0.038054
C122  C     C_R   1.000000 0.307002 0.500001 0.159133
C123  C     C_R   0.307002 1.000000 0.499999 0.159130
C124  C     C_R   0.000000 0.692998 0.499999 0.159132
C125  C     C_R   0.926585 0.500000 1.000000 0.866477
C126  C     C_R   0.692998 1.000000 0.500001 0.159132
C127  C     C_R   0.500000 0.807002 0.000001 0.159128
C128  C     C_R   0.807002 0.500000 0.999999 0.159132
C129  C     C_R   0.500000 0.192998 0.999999 0.159130
C130  C     C_R   0.192998 0.499999 0.000001 0.159130
C131  C     C_R   0.926571 0.000000 0.500000 0.906786
C132  C     C_R   1.000000 0.073429 0.500000 0.906782
C133  C     C_R   0.073429 1.000000 0.500000 0.906784
C134  C     C_R   0.000000 0.926571 0.500000 0.906786
C135  C     C_R   0.426571 0.500000 0.000000 0.906787
C136  C     C_R   0.500000 0.073414 0.000000 0.866478
C137  C     C_R   0.500000 0.573430 0.000000 0.906779
C138  C     C_R   0.573429 0.500000 1.000000 0.906786
C139  C     C_R   0.500000 0.426571 1.000000 0.906787
C140  C     C_R   1.000000 0.500000 0.609437 0.912334
C141  C     C_R   0.500000 0.000000 0.609437 0.912334
C142  C     C_R   0.000000 0.500000 0.390562 0.912334
C143  C     C_R   0.500000 1.000000 0.390562 0.912334
C144  C     C_R   0.500000 0.000000 0.109437 0.912334
C145  C     C_R   0.000000 0.500000 0.109437 0.912334
C146  C     C_R   0.500000 1.000000 0.890562 0.912334
C147  C     C_R   0.073414 0.500000 0.000000 0.866478
C148  C     C_R   1.000000 0.500000 0.890562 0.912334
C149  C     C_1   1.000000 0.500000 0.669620 -0.191562
C150  C     C_1   0.500000 0.000000 0.669620 -0.191562
C151  C     C_1   0.000000 0.500000 0.330380 -0.191562
C152  C     C_1   0.500000 1.000000 0.330380 -0.191562
C153  C     C_1   0.500000 0.000000 0.169620 -0.191562
C154  C     C_1   0.000000 0.500000 0.169620 -0.191562
C155  C     C_1   0.500000 1.000000 0.830380 -0.191562
C156  C     C_1   1.000000 0.500000 0.830380 -0.191562
C157  C     C_1   0.999999 0.500000 0.720380 0.006766
C158  C     C_1   0.999999 0.267054 0.500001 -0.071167
C159  C     C_1   0.500000 0.000000 0.720380 0.006766
C160  C     C_1   0.000000 0.500000 0.279620 0.006766
C161  C     C_1   0.500000 1.000000 0.279620 0.006766
C162  C     C_1   0.499999 1.000000 0.220380 0.006766
C163  C     C_1   0.000000 0.500000 0.220380 0.006766
C164  C     C_1   0.500000 0.000000 0.779620 0.006766
C165  C     C_1   1.000000 0.500000 0.779620 0.006766
C166  C     C_R   0.000021 0.173651 0.447938 0.184676
C167  C     C_R   0.173651 0.999960 0.447937 0.184680
C168  C     C_R   0.000018 0.826349 0.447937 0.184675
H1    H     H_    0.000037 0.119161 0.408556 0.167097
H2    H     H_    0.619161 0.499995 0.908555 0.167102
H3    H     H_    0.499958 0.380839 0.908555 0.167097
H4    H     H_    0.380839 0.500038 0.908556 0.167091
H5    H     H_    0.500358 0.619161 0.091442 0.167097
H6    H     H_    0.380839 0.499960 0.091445 0.167101
H7    H     H_    0.500041 0.380839 0.091444 0.167096
H8    H     H_    0.619161 0.500003 0.091444 0.167092
H9    H     H_    0.939373 0.311321 0.499777 0.135098
H10   H     H_    0.311321 0.060626 0.499805 0.135098
H11   H     H_    0.060627 0.688679 0.500086 0.135098
H12   H     H_    0.119161 0.999929 0.408555 0.167096
H13   H     H_    0.688679 0.939373 0.500092 0.135098
H14   H     H_    0.060626 0.311321 0.500225 0.135098
H15   H     H_    0.688679 0.060627 0.499910 0.135098
H16   H     H_    0.939373 0.688679 0.499912 0.135097
H17   H     H_    0.311321 0.939373 0.500193 0.135097
H18   H     H_    0.439373 0.811320 0.000027 0.135097
H19   H     H_    0.811321 0.560626 0.000077 0.135098
H20   H     H_    0.560626 0.188679 0.999912 0.135098
H21   H     H_    0.188679 0.439373 0.999866 0.135098
H22   H     H_    0.560626 0.811320 0.999975 0.135097
H23   H     H_    0.000031 0.880839 0.408555 0.167096
H24   H     H_    0.188680 0.560626 0.000135 0.135098
H25   H     H_    0.439373 0.188679 0.000086 0.135098
H26   H     H_    0.811321 0.439373 0.999921 0.135098
H27   H     H_    0.939100 0.380194 0.499776 0.158941
H28   H     H_    0.380194 0.060900 0.499806 0.158941
H29   H     H_    0.060900 0.619805 0.500087 0.158941
H30   H     H_    0.619806 0.939100 0.500091 0.158941
H31   H     H_    0.060900 0.380194 0.500225 0.158940
H32   H     H_    0.619806 0.060900 0.499910 0.158941
H33   H     H_    0.939100 0.619806 0.499913 0.158941
H34   H     H_    0.880839 0.000034 0.408556 0.167097
H35   H     H_    0.380195 0.939100 0.500193 0.158941
H36   H     H_    0.439100 0.880195 0.000027 0.158941
H37   H     H_    0.880194 0.560900 0.000078 0.158941
H38   H     H_    0.560900 0.119805 0.999913 0.158941
H39   H     H_    0.119805 0.439100 0.999866 0.158942
H40   H     H_    0.560900 0.880195 0.999974 0.158941
H41   H     H_    0.119805 0.560899 0.000135 0.158941
H42   H     H_    0.439100 0.119805 0.000087 0.158941
H43   H     H_    0.880194 0.439100 0.999921 0.158942
H44   H     H_    0.000061 0.174512 0.355273 0.237160
H45   H     H_    0.999962 0.119161 0.591445 0.167096
H46   H     H_    0.974581 0.212208 0.388717 0.245985
H47   H     H_    0.025511 0.212209 0.388767 0.245996
H48   H     H_    0.174512 0.999888 0.355271 0.237160
H49   H     H_    0.212209 0.025379 0.388695 0.245987
H50   H     H_    0.212208 0.974449 0.388784 0.245993
H51   H     H_    0.000052 0.825488 0.355272 0.237161
H52   H     H_    0.025506 0.787792 0.388763 0.245991
H53   H     H_    0.974575 0.787791 0.388720 0.245991
H54   H     H_    0.825488 0.000053 0.355273 0.237162
H55   H     H_    0.787791 0.974576 0.388723 0.245995
H56   H     H_    0.880839 0.999966 0.591445 0.167095
H57   H     H_    0.787792 0.025506 0.388765 0.245987
H58   H     H_    0.999937 0.174512 0.644729 0.237160
H59   H     H_    0.025417 0.212208 0.611285 0.245984
H60   H     H_    0.974487 0.212209 0.611235 0.245996
H61   H     H_    0.825487 0.999947 0.644729 0.237161
H62   H     H_    0.787790 0.025424 0.611280 0.245995
H63   H     H_    0.787791 0.974493 0.611238 0.245987
H64   H     H_    0.999948 0.825487 0.644727 0.237162
H65   H     H_    0.974495 0.787791 0.611235 0.245991
H66   H     H_    0.025425 0.787791 0.611278 0.245990
H67   H     H_    0.999969 0.880839 0.591444 0.167097
H68   H     H_    0.174511 0.000110 0.644727 0.237160
H69   H     H_    0.212209 0.974620 0.611302 0.245987
H70   H     H_    0.212208 0.025550 0.611214 0.245993
H71   H     H_    0.499428 0.674511 0.855274 0.237157
H72   H     H_    0.474091 0.712205 0.888972 0.245969
H73   H     H_    0.525020 0.712212 0.888510 0.246008
H74   H     H_    0.674513 0.499996 0.855271 0.237163
H75   H     H_    0.712209 0.525462 0.888740 0.245993
H76   H     H_    0.712209 0.474531 0.888742 0.245987
H77   H     H_    0.499934 0.325488 0.855271 0.237161
H78   H     H_    0.119161 0.000070 0.591443 0.167098
H79   H     H_    0.525415 0.287792 0.888715 0.245990
H80   H     H_    0.474484 0.287791 0.888768 0.245992
H81   H     H_    0.325488 0.500060 0.855273 0.237158
H82   H     H_    0.287792 0.474580 0.888719 0.245989
H83   H     H_    0.287791 0.525511 0.888768 0.245992
H84   H     H_    0.500574 0.674511 0.144727 0.237158
H85   H     H_    0.525908 0.712205 0.111029 0.245970
H86   H     H_    0.474979 0.712211 0.111493 0.246009
H87   H     H_    0.325487 0.499936 0.144729 0.237164
H88   H     H_    0.287791 0.525416 0.111284 0.245989
H89   H     H_    0.499642 0.619161 0.908558 0.167096
H90   H     H_    0.287791 0.474485 0.111234 0.245991
H91   H     H_    0.500065 0.325487 0.144727 0.237161
H92   H     H_    0.474585 0.287791 0.111283 0.245990
H93   H     H_    0.525515 0.287791 0.111230 0.245991
H94   H     H_    0.674512 0.500001 0.144727 0.237159
H95   H     H_    0.712209 0.474536 0.111257 0.245993
H96   H     H_    0.712208 0.525467 0.111257 0.245988
O1    O     O_R   0.031300 0.444560 0.499980 -0.624423
O2    O     O_R   0.944560 0.468700 0.999980 -0.624423
O3    O     O_R   0.468700 0.055440 0.999980 -0.624423
O4    O     O_R   0.055440 0.531300 0.999980 -0.624423
O5    O     O_R   0.468700 0.944560 0.000020 -0.624424
O6    O     O_R   0.055440 0.468700 0.000020 -0.624424
O7    O     O_R   0.531300 0.055440 0.000020 -0.624424
O8    O     O_R   0.944560 0.531300 0.000020 -0.624424
O9    O     O_R   0.031300 0.500000 0.582760 -0.613209
O10   O     O_R   0.500000 0.968700 0.582760 -0.613207
O11   O     O_R   0.968700 0.500000 0.582760 -0.613183
O12   O     O_R   0.444560 0.968700 0.499980 -0.624423
O13   O     O_R   0.500000 0.031300 0.582760 -0.613184
O14   O     O_R   0.968700 0.500000 0.417240 -0.613208
O15   O     O_R   0.500000 0.968700 0.417240 -0.613184
O16   O     O_R   0.031300 0.500000 0.417240 -0.613182
O17   O     O_R   0.500000 0.031300 0.417240 -0.613207
O18   O     O_R   0.531300 0.000000 0.082760 -0.613191
O19   O     O_R   1.000000 0.468700 0.082760 -0.613186
O20   O     O_R   0.468700 0.000000 0.082760 -0.613201
O21   O     O_R   1.000000 0.531300 0.082760 -0.613205
O22   O     O_R   0.468700 0.000000 0.917240 -0.613190
O23   O     O_R   0.968700 0.555440 0.499980 -0.624422
O24   O     O_R   0.000000 0.468700 0.917240 -0.613205
O25   O     O_R   0.531300 0.000000 0.917240 -0.613201
O26   O     O_R   1.000000 0.531300 0.917240 -0.613186
O27   O     O_R   0.944690 0.999980 0.546690 -0.624274
O28   O     O_R   0.999980 0.055310 0.546690 -0.624271
O29   O     O_R   0.055310 0.000020 0.546690 -0.624266
O30   O     O_R   0.000020 0.944690 0.546690 -0.624269
O31   O     O_R   0.055310 0.999980 0.453310 -0.624274
O32   O     O_R   0.000020 0.055310 0.453310 -0.624267
O33   O     O_R   0.944690 0.000020 0.453310 -0.624267
O34   O     O_R   0.555440 0.031300 0.499980 -0.624423
O35   O     O_R   0.999980 0.944690 0.453310 -0.624273
O36   O     O_R   0.444690 0.499980 0.046690 -0.624249
O37   O     O_R   0.499980 0.555310 0.046690 -0.624266
O38   O     O_R   0.555310 0.500020 0.046690 -0.624293
O39   O     O_R   0.500020 0.444690 0.046690 -0.624274
O40   O     O_R   0.555310 0.499980 0.953310 -0.624249
O41   O     O_R   0.500020 0.555310 0.953310 -0.624270
O42   O     O_R   0.444690 0.500020 0.953310 -0.624292
O43   O     O_R   0.499980 0.444690 0.953310 -0.624270
O44   O     O_R   0.968700 0.444560 0.500020 -0.624423
O45   O     O_R   0.555440 0.968700 0.500020 -0.624422
O46   O     O_R   0.031300 0.555440 0.500020 -0.624423
O47   O     O_R   0.444560 0.031300 0.500020 -0.624424
O48   O     O_R   0.531300 0.944560 0.999980 -0.624425
Zn1   Zn    Zn3+2 0.041800 0.500000 0.500000 0.958224
Zn2   Zn    Zn3+2 1.000000 0.000000 0.437610 0.944150
Zn3   Zn    Zn3+2 0.500000 0.500000 0.062390 0.944150
Zn4   Zn    Zn3+2 0.500000 0.500000 0.937610 0.944150
Zn5   Zn    Zn3+2 0.500000 0.958200 0.500000 0.958224
Zn6   Zn    Zn3+2 0.958200 0.500000 0.500000 0.958224
Zn7   Zn    Zn3+2 0.500000 0.041800 0.500000 0.958224
Zn8   Zn    Zn3+2 0.541800 0.000000 0.000000 0.958223
Zn9   Zn    Zn3+2 0.000000 0.458200 0.000000 0.958224
Zn10  Zn    Zn3+2 0.458200 0.000000 0.000000 0.958224
Zn11  Zn    Zn3+2 0.000000 0.541800 0.000000 0.958224
Zn12  Zn    Zn3+2 1.000000 0.000000 0.562390 0.944150

loop_
_geom_bond_atom_site_label_1
_geom_bond_atom_site_label_2
_ccdc_geom_bond_type
C31   C42   A    
O38   Zn3   S    
C93   H24   S    
C8    C26   A    
C36   C133  S    
C101  H32   S    
C15   C32   A    
C2    C123  S    
C76   H92   S    
C82   H13   S    
C9    C27   A    
C91   C127  A    
C136  O3    A    
C50   C59   S    
C69   H68   S    
C29   C42   A    
C57   C59   T    
C22   C38   A    
C94   C111  A    
C89   C129  A    
C61   C166  S    
C63   H51   S    
C19   C37   A    
C44   C53   S    
C78   C96   A    
C40   C138  S    
C121  C147  S    
C97   C115  A    
O3    Zn10  S    
C93   C110  A    
C12   C30   A    
C103  C117  S    
C1    C113  S    
C109  C118  A    
O40   Zn4   S    
C87   H18   S    
C84   C126  A    
C1    O44   A    
C150  C159  T    
C160  C163  S    
C16   C49   A    
C13   C124  S    
C105  H36   S    
C23   C37   A    
C132  O32   A    
C64   H55   S    
C142  C151  S    
C109  H40   S    
C62   H49   S    
O19   Zn9   S    
O14   Zn6   S    
C75   H90   S    
C122  C158  S    
C35   C127  S    
C92   C116  S    
C74   H86   S    
C85   H16   S    
C83   C100  A    
C89   H20   S    
C105  C118  A    
C110  H41   S    
C17   C34   A    
C157  C165  S    
C93   C130  A    
C114  O5    A    
C107  C120  A    
C13   C54   T    
C43   C166  A    
C77   H95   S    
C79   C97   A    
C2    C53   T    
O26   Zn11  S    
C4    C43   A    
C131  O27   A    
C72   H80   S    
C26   H89   S    
C25   C36   A    
C65   H60   S    
C86   H17   S    
C148  O24   A    
O34   Zn7   S    
O9    Zn1   S    
C103  O34   A    
C78   H9    S    
C14   C31   A    
C86   C104  A    
C3    C64   S    
O41   Zn4   S    
C114  O48   A    
C102  H33   S    
C71   H76   S    
C147  O6    A    
C75   H87   S    
C17   C166  A    
C110  C121  A    
C43   C52   S    
O11   Zn6   S    
O29   Zn12  S    
C20   C38   A    
C65   H59   S    
O17   Zn7   S    
O18   Zn8   S    
C95   C128  A    
C96   H27   S    
C32   C41   A    
C139  O39   A    
C152  C161  T    
C23   H67   S    
C25   H78   S    
C18   H12   S    
C46   C58   T    
C24   C126  S    
O23   Zn6   S    
C70   H72   S    
C92   O23   A    
C64   H57   S    
C141  C150  S    
C73   H81   S    
C32   H7    S    
C143  O17   A    
C33   C40   A    
O32   Zn2   S    
C80   H11   S    
C9    C49   A    
C142  O16   A    
C103  O45   A    
C22   H56   S    
C66   H63   S    
C61   H44   S    
C140  O9    A    
C134  O30   A    
C99   C117  A    
C87   C105  A    
C27   C40   A    
C148  O26   A    
C64   H54   S    
C68   C130  S    
C145  C154  S    
C6    C67   S    
C95   H26   S    
C21   H45   S    
C145  O19   A    
C137  O41   A    
O2    Zn9   S    
C98   H29   S    
C35   C56   T    
C71   H74   S    
C5    C66   S    
C18   C167  A    
O10   Zn5   S    
C8    C70   S    
C81   O12   A    
C111  H42   S    
C90   C108  A    
C149  C157  T    
O27   Zn12  S    
O25   Zn8   S    
C99   H30   S    
C3    C47   A    
C30   C39   A    
O1    Zn1   S    
C83   C122  A    
C138  O40   A    
C45   C168  A    
O39   Zn3   S    
C61   H46   S    
C19   H23   S    
C37   C134  S    
C51   C60   S    
C61   H47   S    
C140  C149  S    
C85   C102  A    
C135  O42   A    
O24   Zn9   S    
C73   H83   S    
C31   H6    S    
C10   C72   S    
C67   H66   S    
C6    C45   A    
C12   C74   S    
C106  C119  A    
C82   C99   A    
C63   H53   S    
C108  C121  A    
C12   C48   A    
C142  O14   A    
C161  C162  S    
C66   H61   S    
C140  O11   A    
O33   Zn2   S    
C95   C112  A    
C70   H73   S    
C146  O25   A    
C26   C39   A    
C28   C41   A    
C16   C77   S    
O12   Zn5   S    
C33   H8    S    
C82   C126  A    
O35   Zn2   S    
C88   H19   S    
C146  C155  S    
O47   Zn7   S    
O48   Zn8   S    
C137  O37   A    
C145  O21   A    
C69   H70   S    
C15   C76   S    
C52   C158  T    
O4    Zn11  S    
O5    Zn10  S    
C76   H91   S    
C77   H94   S    
C125  O8    A    
C104  H35   S    
C11   C73   S    
C147  O4    A    
C21   C34   A    
O31   Zn2   S    
C42   C135  S    
C120  C136  S    
C44   C167  A    
C63   H52   S    
C138  O38   A    
O20   Zn10  S    
C8    C48   A    
C104  C115  A    
C14   C51   A    
C89   C107  A    
C3    C20   A    
C27   H2    S    
C119  C125  S    
C143  C152  S    
C67   H64   S    
C144  O18   A    
C96   C113  A    
C19   C168  A    
C10   C50   A    
C97   H28   S    
C80   C124  A    
C10   C28   A    
O37   Zn3   S    
C80   C98   A    
C9    C71   S    
C112  C119  A    
C74   H84   S    
O28   Zn12  S    
C7    C25   A    
C153  C162  T    
C101  C117  A    
C14   C75   S    
C71   H75   S    
C38   C131  S    
C156  C165  T    
O6    Zn9   S    
C65   H58   S    
C136  O7    A    
C134  O35   A    
C41   C139  S    
C74   H85   S    
C81   O47   A    
C20   H34   S    
C90   C130  A    
C60   C68   T    
C46   C128  S    
C131  O33   A    
C148  C156  S    
C18   C36   A    
O46   Zn1   S    
C72   H77   S    
C76   H93   S    
C39   C137  S    
C77   H96   S    
C125  O2    A    
C94   H25   S    
C106  H37   S    
C87   C127  A    
C92   O46   A    
C24   C55   T    
C5    C47   A    
C62   H50   S    
C72   H79   S    
C57   C129  S    
C4    C65   S    
C17   H1    S    
C139  O43   A    
O36   Zn3   S    
C85   C124  A    
C15   C50   A    
C144  C153  S    
C107  H38   S    
O21   Zn11  S    
O45   Zn5   S    
C5    C22   A    
O16   Zn1   S    
C144  O20   A    
O7    Zn8   S    
C132  O28   A    
C133  O29   A    
C30   H5    S    
C62   C167  S    
C34   C132  S    
C84   C101  A    
C141  O10   A    
C108  H39   S    
C91   H22   S    
C94   C129  A    
C154  C163  T    
C11   C51   A    
C75   H88   S    
C112  H43   S    
C79   C123  A    
C49   C58   S    
C83   H14   S    
C111  C120  A    
C146  O22   A    
C16   C33   A    
C88   C106  A    
C28   H3    S    
C98   C116  A    
C81   C115  S    
C143  O15   A    
C79   H10   S    
O8    Zn11  S    
O22   Zn10  S    
C7    C44   A    
C114  C118  S    
C63   C168  S    
O30   Zn12  S    
C45   C54   S    
C70   H71   S    
C47   C55   S    
C73   H82   S    
C48   C56   S    
C67   H65   S    
C159  C164  S    
C62   H48   S    
C84   H15   S    
C100  C113  A    
C7    C69   S    
C155  C164  T    
C66   H62   S    
O42   Zn4   S    
C151  C160  T    
C91   C109  A    
C141  O13   A    
C88   C128  A    
O44   Zn6   S    
C135  O36   A    
C4    C21   A    
C6    C23   A    
C133  O31   A    
C29   H4    S    
C78   C122  A    
O13   Zn7   S    
C102  C116  A    
C100  H31   S    
O15   Zn5   S    
C1    O1    A    
C11   C29   A    
C86   C123  A    
O43   Zn4   S    
C69   H69   S    
C90   H21   S    
