data_mof_unit_32855.cif
_audit_creation_date              2012-12-11T15:39:10-0500
_audit_creation_method            fapswitch 2.2
_symmetry_space_group_name_H-M    P1
_symmetry_Int_Tables_number       1
_space_group_crystal_system       triclinic
_cell_length_a                    17.453035
_cell_length_b                    24.521826
_cell_length_c                    14.976146
_cell_angle_alpha                 90.211696
_cell_angle_beta                  125.578279
_cell_angle_gamma                 89.809176
_cell_volume                      5212.93850724

loop_
_atom_site_label
_atom_site_type_symbol
_atom_type_description
_atom_site_fract_x
_atom_site_fract_y
_atom_site_fract_z
_atom_type_partial_charge
C1    C     C_R   0.356368 0.347553 0.909103 -0.062820
C2    C     C_R   0.689966 0.376817 0.092852 -0.166046
C3    C     C_R   0.856057 0.847707 0.909082 -0.047215
C4    C     C_R   0.188860 0.875392 0.091940 -0.176047
C5    C     C_R   0.386963 0.683901 0.000583 -0.208231
C6    C     C_R   0.641702 0.673190 0.998841 -0.219188
C7    C     C_R   0.886831 0.183933 0.001254 -0.204835
C8    C     C_R   0.143228 0.172614 0.998941 -0.223138
C9    C     C_R   0.459022 0.502873 0.283075 0.082613
C10   C     C_R   0.423474 0.502189 0.629918 0.093865
C11   C     C_R   0.949469 0.000522 0.274669 0.014417
C12   C     C_R   0.934396 0.998939 0.631436 0.028208
C13   C     C_R   0.176015 0.501923 0.724597 0.012795
C14   C     C_R   0.797255 0.501538 0.371325 -0.032108
C15   C     C_R   0.676747 0.002161 0.727609 0.014446
C16   C     C_R   0.300491 0.001936 0.368026 -0.008268
C17   C     C_R   0.037059 0.547033 0.575622 -0.201719
C18   C     C_R   0.942713 0.550236 0.495138 -0.179939
C19   C     C_R   0.541730 0.045517 0.570968 -0.165679
C20   C     C_R   0.448645 0.048265 0.487351 -0.179517
C21   C     C_R   0.074711 0.506853 0.654615 -0.054456
C22   C     C_R   0.883878 0.507635 0.481939 -0.087835
C23   C     C_R   0.576068 0.007408 0.653586 -0.055207
C24   C     C_R   0.387607 0.007994 0.476705 -0.086455
C25   C     C_R   0.013405 0.473322 0.662317 0.409535
C26   C     C_R   0.915831 0.471087 0.571014 0.454365
C27   C     C_R   0.512034 0.976791 0.661613 0.399528
C28   C     C_R   0.415100 0.975101 0.568823 0.461686
C29   C     C_3   0.960116 0.573895 0.414625 0.320593
C30   C     C_3   0.065367 0.566221 0.503709 0.409781
C31   C     C_3   0.469464 0.068719 0.407977 0.316736
C32   C     C_3   0.574466 0.062978 0.502315 0.393602
C33   C     C_R   0.340403 0.779401 0.957504 -0.255585
C34   C     C_R   0.692247 0.764825 0.005391 -0.272416
C35   C     C_R   0.841212 0.279784 0.957627 -0.256424
C36   C     C_R   0.200952 0.263717 0.017072 -0.272672
C37   C     C_R   0.793954 0.324688 0.959920 0.540024
C38   C     C_R   0.260743 0.299495 0.015961 0.525721
C39   C     C_R   0.291685 0.823696 0.958782 0.534651
C40   C     C_R   0.750598 0.800647 0.001865 0.544937
C41   C     C_R   0.745508 0.319153 0.008055 -0.048923
C42   C     C_R   0.328143 0.278889 0.001075 -0.049867
C43   C     C_R   0.241739 0.817180 0.004812 -0.054318
C44   C     C_R   0.824205 0.779748 0.998571 -0.049335
C45   C     C_R   0.447952 0.652406 0.091817 0.596808
C46   C     C_R   0.569923 0.645865 0.907316 0.601914
C47   C     C_R   0.948140 0.152346 0.092147 0.597092
C48   C     C_R   0.070593 0.145677 0.907406 0.614382
C49   C     C_R   0.743512 0.269860 0.052886 -0.356536
C50   C     C_R   0.335839 0.223516 0.987495 -0.321352
C51   C     C_R   0.238607 0.767468 0.047414 -0.344377
C52   C     C_R   0.838805 0.724130 0.997044 -0.315003
C53   C     C_R   0.284069 0.722966 0.042741 0.630841
C54   C     C_R   0.779376 0.688070 0.999701 0.608306
C55   C     C_R   0.787718 0.224838 0.047610 0.616170
C56   C     C_R   0.275874 0.187525 0.989381 0.637637
C57   C     C_R   0.336833 0.729766 0.000247 -0.078299
C58   C     C_R   0.705507 0.709373 0.001336 -0.028274
C59   C     C_R   0.838068 0.230493 0.001803 -0.071954
C60   C     C_R   0.207489 0.208642 0.001349 -0.045961
C61   C     C_R   0.513969 0.521034 0.558413 0.420274
C62   C     C_R   0.523663 0.519891 0.472994 0.406263
C63   C     C_R   0.872372 0.045814 0.452188 0.373856
C64   C     C_R   0.882967 0.049788 0.365695 0.399307
C65   C     C_R   0.445588 0.505751 0.367752 -0.288298
C66   C     C_R   0.428057 0.504309 0.537832 -0.319806
C67   C     C_R   0.898991 0.001279 0.327326 -0.240316
C68   C     C_R   0.903211 0.997640 0.515830 -0.270387
C69   C     C_R   0.358412 0.492201 0.345623 0.408003
C70   C     C_R   0.349370 0.491712 0.431753 0.428984
C71   C     C_R   0.885124 0.951825 0.361808 0.363729
C72   C     C_R   0.908907 0.949345 0.467398 0.404566
C73   C     C_R   0.485936 0.456169 0.256428 0.500371
C74   C     C_R   0.439552 0.456126 0.690602 0.562592
C75   C     C_R   0.991355 0.955025 0.261366 0.540958
C76   C     C_R   0.939056 0.954963 0.691687 0.576992
C77   C     C_R   0.233876 0.546413 0.755723 -0.175091
C78   C     C_R   0.750318 0.545635 0.305292 -0.138083
C79   C     C_R   0.734538 0.046501 0.757946 -0.181613
C80   C     C_R   0.252653 0.045989 0.303234 -0.131202
C81   C     C_R   0.484558 0.547270 0.251509 -0.094175
C82   C     C_R   0.445150 0.546212 0.695534 -0.063184
C83   C     C_R   0.975771 0.045602 0.242604 -0.148625
C84   C     C_R   0.955016 0.044553 0.697299 -0.068159
C85   C     C_R   0.229615 0.455537 0.745470 0.557945
C86   C     C_R   0.752550 0.455532 0.307470 0.453444
C87   C     C_R   0.729803 0.955696 0.747589 0.575548
C88   C     C_R   0.254400 0.955686 0.306308 0.460015
C89   C     C_R   0.355113 0.652490 0.909552 0.369963
C90   C     C_R   0.660925 0.646948 0.090375 0.430232
C91   C     C_R   0.855067 0.152603 0.909921 0.368701
C92   C     C_R   0.161778 0.146637 0.090434 0.425931
C93   C     C_R   0.451483 0.346105 0.089277 0.615565
C94   C     C_R   0.598319 0.373124 0.910414 0.496594
C95   C     C_R   0.947030 0.847165 0.089874 0.572327
C96   C     C_R   0.095483 0.871532 0.908987 0.498327
C97   C     C_R   0.389574 0.315625 0.998767 -0.098982
C98   C     C_R   0.687047 0.361615 0.002972 0.002913
C99   C     C_R   0.886467 0.816547 0.998843 -0.093074
C100  C     C_R   0.184127 0.859521 0.000961 -0.004003
H1    H     H_    0.321271 0.332034 0.826766 0.208628
H2    H     H_    0.747738 0.369941 0.176821 0.198851
H3    H     H_    0.821447 0.831984 0.826928 0.207712
H4    H     H_    0.246685 0.868006 0.175694 0.199321
H5    H     H_    0.930604 0.548280 0.340256 0.064057
H6    H     H_    0.105602 0.604988 0.533930 0.121208
H7    H     H_    0.442181 0.040743 0.337299 0.064743
H8    H     H_    0.612850 0.102338 0.531116 0.106124
H9    H     H_    0.381003 0.783480 0.924129 0.200353
H10   H     H_    0.634897 0.779929 0.007618 0.187915
H11   H     H_    0.880377 0.283149 0.922327 0.200002
H12   H     H_    0.147996 0.278711 0.027377 0.196095
H13   H     H_    0.704659 0.265787 0.088538 0.199941
H14   H     H_    0.387578 0.208534 0.975185 0.177465
H15   H     H_    0.198285 0.762788 0.081105 0.196804
H16   H     H_    0.895249 0.709065 0.993116 0.177352
H17   H     H_    0.212947 0.588409 0.747992 0.177201
H18   H     H_    0.757726 0.586723 0.334572 0.212453
H19   H     H_    0.713575 0.088526 0.749448 0.178774
H20   H     H_    0.261279 0.087064 0.332794 0.208546
H21   H     H_    0.479433 0.589363 0.268246 0.206869
H22   H     H_    0.428842 0.587935 0.668100 0.189568
H23   H     H_    0.958383 0.087339 0.243150 0.230314
H24   H     H_    0.943633 0.086278 0.671157 0.241705
N1    N     N_R   0.394180 0.396910 0.943210 -0.084367
N2    N     N_R   0.605820 0.396910 0.056790 -0.065707
N3    N     N_R   0.894180 0.896910 0.943210 -0.084191
N4    N     N_R   0.105820 0.896910 0.056790 -0.068254
N5    N     N_R   0.450950 0.603070 0.056740 -0.127985
N6    N     N_R   0.549050 0.603070 0.943260 -0.120221
N7    N     N_R   0.950950 0.103070 0.056740 -0.129183
N8    N     N_R   0.049050 0.103070 0.943260 -0.124386
N9    N     N_R   0.525650 0.471570 0.206150 -0.107055
N10   N     N_R   0.474350 0.471570 0.793850 -0.123214
N11   N     N_R   0.025650 0.971570 0.206150 -0.102951
N12   N     N_R   0.974350 0.971570 0.793850 -0.125276
N13   N     N_R   0.319480 0.528420 0.793810 -0.061033
N14   N     N_R   0.680520 0.528420 0.206190 -0.073889
N15   N     N_R   0.819480 0.028420 0.793810 -0.055861
N16   N     N_R   0.180520 0.028420 0.206190 -0.076201
N17   N     N_R   0.525640 0.528390 0.206120 -0.083977
N18   N     N_R   0.474360 0.528390 0.793880 -0.079450
N19   N     N_R   0.025640 0.028390 0.206120 -0.078459
N20   N     N_R   0.974360 0.028390 0.793880 -0.087741
N21   N     N_R   0.319490 0.471590 0.793840 -0.098971
N22   N     N_R   0.680510 0.471590 0.206160 -0.097549
N23   N     N_R   0.819490 0.971590 0.793840 -0.094549
N24   N     N_R   0.180510 0.971590 0.206160 -0.099150
N25   N     N_R   0.394130 0.603080 0.943110 -0.128321
N26   N     N_R   0.605870 0.603080 0.056890 -0.127909
N27   N     N_R   0.894130 0.103080 0.943110 -0.128066
N28   N     N_R   0.105870 0.103080 0.056890 -0.128012
N29   N     N_R   0.450990 0.396900 0.056840 -0.100765
N30   N     N_R   0.549010 0.396900 0.943160 -0.112125
N31   N     N_R   0.950990 0.896900 0.056840 -0.111480
N32   N     N_R   0.049010 0.896900 0.943160 -0.113071
Ni1   Ni    Ni4+2 0.434860 0.434850 0.869700 0.301220
Ni2   Ni    Ni4+2 0.565140 0.434850 0.130300 0.319303
Ni3   Ni    Ni4+2 0.934860 0.934850 0.869700 0.301932
Ni4   Ni    Ni4+2 0.065140 0.934850 0.130300 0.324098
Ni5   Ni    Ni4+2 0.565130 0.565140 0.130240 0.259053
Ni6   Ni    Ni4+2 0.434870 0.565140 0.869760 0.268215
Ni7   Ni    Ni4+2 0.065130 0.065140 0.130240 0.255267
Ni8   Ni    Ni4+2 0.934870 0.065140 0.869760 0.271837
O1    O     O_3   0.934520 0.629657 0.383880 -0.615767
C101  C     C_3   0.937154 0.662448 0.463737 0.112671
H25   H     H_    0.006727 0.661122 0.544653 0.081998
H26   H     H_    0.880259 0.650818 0.472280 0.122515
H27   H     H_    0.924452 0.705429 0.435636 0.213697
O2    O     O_3   0.114764 0.526448 0.485043 -0.586312
C102  C     C_3   0.064385 0.477784 0.432188 0.053070
H28   H     H_    0.016459 0.464482 0.453667 0.068330
H29   H     H_    0.115732 0.444135 0.458028 0.234122
H30   H     H_    0.024867 0.482136 0.341861 0.121128
O3    O     O_3   0.442168 0.123526 0.369901 -0.626471
C103  C     C_3   0.443610 0.159562 0.445133 0.068372
H31   H     H_    0.513074 0.160772 0.526046 0.087434
H32   H     H_    0.387470 0.149247 0.455743 0.138409
H33   H     H_    0.429162 0.201419 0.411045 0.208262
O4    O     O_3   0.629851 0.023211 0.493550 -0.622631
C104  C     C_3   0.582260 0.974626 0.437669 -0.121312
H34   H     H_    0.534419 0.959478 0.458213 0.138832
H35   H     H_    0.635723 0.942361 0.462288 0.232426
H36   H     H_    0.543800 0.980155 0.347735 0.107198
Cl1   Cl    Cl    0.796666 0.386763 0.903064 -0.602777
Cl2   Cl    Cl    0.246838 0.369624 0.029867 -0.581004
Cl3   Cl    Cl    0.294706 0.886290 0.903661 -0.602861
Cl4   Cl    Cl    0.727300 0.871027 0.997802 -0.610658
O5    O     O_3   0.281320 0.673559 0.085169 -0.613708
C105  C     C_3   0.198444 0.645861 0.003769 -0.193088
H37   H     H_    0.195772 0.638721 0.928523 0.123565
H38   H     H_    0.134486 0.668325 0.982914 0.150576
H39   H     H_    0.198038 0.605369 0.036298 0.193072
O6    O     O_3   0.788216 0.632413 0.992368 -0.643159
C106  C     C_3   0.865687 0.613335 0.094827 -0.139053
H40   H     H_    0.858317 0.623697 0.161915 0.188335
H41   H     H_    0.933244 0.629470 0.114051 0.156028
H42   H     H_    0.868273 0.568232 0.091120 0.174690
O7    O     O_3   0.786373 0.176098 0.092966 -0.604323
C107  C     C_3   0.703114 0.147876 0.014305 -0.176814
H43   H     H_    0.698945 0.139401 0.938484 0.118266
H44   H     H_    0.639548 0.170658 0.993865 0.143341
H45   H     H_    0.703635 0.108015 0.049464 0.181081
O8    O     O_3   0.279384 0.132359 0.972371 -0.616568
C108  C     C_3   0.354940 0.109021 0.071274 -0.186938
H46   H     H_    0.347170 0.115620 0.139229 0.182829
H47   H     H_    0.423864 0.125101 0.094572 0.142008
H48   H     H_    0.354840 0.064355 0.059220 0.178016
O9    O     O_3   0.590321 0.533559 0.664488 -0.600534
C109  C     C_3   0.609585 0.590023 0.673164 -0.045085
H49   H     H_    0.544577 0.615564 0.627257 0.111458
H50   H     H_    0.654950 0.599364 0.645659 0.166303
H51   H     H_    0.649378 0.601871 0.760917 0.196407
O10   O     O_3   0.606671 0.536935 0.489674 -0.643448
C110  C     C_3   0.673183 0.494301 0.537296 -0.017094
H52   H     H_    0.654024 0.461492 0.476375 0.180564
H53   H     H_    0.682519 0.477046 0.611664 0.179199
H54   H     H_    0.742080 0.511283 0.563445 0.172068
O11   O     O_3   0.839003 0.089452 0.478934 -0.623509
C111  C     C_3   0.740446 0.092512 0.401364 -0.059714
H55   H     H_    0.705699 0.052594 0.390558 0.147288
H56   H     H_    0.721757 0.107434 0.320967 0.151225
H57   H     H_    0.712098 0.122198 0.431379 0.178815
O12   O     O_3   0.868237 0.098779 0.311931 -0.603055
C112  C     C_3   0.935061 0.137940 0.385468 -0.050047
H58   H     H_    0.007130 0.120395 0.441822 0.103809
H59   H     H_    0.912426 0.158167 0.432912 0.179018
H60   H     H_    0.939389 0.170186 0.336807 0.182272
Cl5   Cl    Cl    0.261066 0.476672 0.210328 -0.507238
Cl6   Cl    Cl    0.239154 0.477710 0.405253 -0.507623
Cl7   Cl    Cl    0.840900 0.893392 0.276458 -0.464128
Cl8   Cl    Cl    0.967980 0.889238 0.539571 -0.376392
O13   O     O_3   0.511299 0.668345 0.200857 -0.630849
C113  C     C_3   0.533292 0.724392 0.212515 -0.033774
H61   H     H_    0.545396 0.738942 0.151295 0.132613
H62   H     H_    0.599782 0.731053 0.294949 0.197248
H63   H     H_    0.478027 0.748838 0.209080 0.118001
O14   O     O_3   0.524832 0.657492 0.796975 -0.651430
C114  C     C_3   0.511357 0.713967 0.776098 -0.141518
H64   H     H_    0.574222 0.732343 0.786777 0.140854
H65   H     H_    0.492774 0.735476 0.826796 0.149005
H66   H     H_    0.451467 0.719926 0.688953 0.194669
O15   O     O_3   0.011152 0.167883 0.201540 -0.640007
C115  C     C_3   0.033888 0.223834 0.214164 -0.066724
H67   H     H_    0.045659 0.238673 0.152831 0.145498
H68   H     H_    0.100731 0.230023 0.296480 0.199742
H69   H     H_    0.979258 0.248373 0.211870 0.118011
O16   O     O_3   0.022678 0.158915 0.797288 -0.629519
C116  C     C_3   0.011387 0.215749 0.780140 -0.093932
H70   H     H_    0.074407 0.233764 0.790621 0.135666
H71   H     H_    0.995052 0.236593 0.833511 0.131712
H72   H     H_    0.950847 0.223216 0.693903 0.185446
Cl9   Cl    Cl    0.490091 0.391601 0.308859 -0.520843
Cl10  Cl    Cl    0.364117 0.399695 0.628046 -0.494401
Cl11  Cl    Cl    0.051411 0.904301 0.362408 -0.432676
Cl12  Cl    Cl    0.850880 0.904257 0.631351 -0.537044
Cl13  Cl    Cl    0.182060 0.392149 0.682814 -0.644212
Cl14  Cl    Cl    0.763947 0.388961 0.355923 -0.622951
Cl15  Cl    Cl    0.680822 0.892272 0.686134 -0.635351
Cl16  Cl    Cl    0.268063 0.889472 0.357531 -0.605483
Cl17  Cl    Cl    0.306548 0.678844 0.777751 -0.661118
Cl18  Cl    Cl    0.724493 0.675522 0.221928 -0.666733
Cl19  Cl    Cl    0.806081 0.179138 0.778139 -0.671100
Cl20  Cl    Cl    0.224185 0.175896 0.221323 -0.686033
Cl21  Cl    Cl    0.554078 0.314862 0.199985 -0.540556
Cl22  Cl    Cl    0.552608 0.342791 0.782625 -0.549474
Cl23  Cl    Cl    0.042184 0.815827 0.208232 -0.501124
Cl24  Cl    Cl    0.043355 0.838735 0.782234 -0.509487
O17   O     O_3   0.049585 0.441333 0.754441 -0.610700
C117  C     C_3   0.055734 0.473534 0.836594 -0.077300
H73   H     H_    0.985893 0.490873 0.808108 0.110936
H74   H     H_    0.108553 0.506679 0.864630 0.119177
H75   H     H_    0.079280 0.447288 0.908427 0.233015
O18   O     O_3   0.849070 0.439125 0.569269 -0.643726
C118  C     C_3   0.883055 0.387188 0.617356 0.077918
H76   H     H_    0.934691 0.369986 0.603764 0.150164
H77   H     H_    0.822586 0.358628 0.578658 0.181650
H78   H     H_    0.912310 0.388597 0.705860 0.147131
O19   O     O_3   0.544785 0.947140 0.755697 -0.595165
C119  C     C_3   0.551105 0.982458 0.834264 -0.106320
H79   H     H_    0.481881 0.001771 0.802756 0.121486
H80   H     H_    0.605856 0.014249 0.860997 0.111338
H81   H     H_    0.572062 0.958262 0.907661 0.214766
O20   O     O_3   0.344722 0.947916 0.568161 -0.599653
C120  C     C_3   0.373331 0.896206 0.618942 0.171332
H82   H     H_    0.424091 0.875354 0.607810 0.123174
H83   H     H_    0.310184 0.869756 0.580570 0.191082
H84   H     H_    0.401882 0.899670 0.707054 0.137563

loop_
_geom_bond_atom_site_label_1
_geom_bond_atom_site_label_2
_ccdc_geom_bond_type
C96   Cl24  S    
C49   H13   S    
C102  H28   S    
C80   H20   S    
N17   Ni5   S    
O1    C101  S    
C54   O6    S    
C55   C59   A    
C6    C58   S    
N7    N27   A    
C114  H64   S    
N32   Ni3   S    
C119  H81   S    
C82   N18   A    
N23   Ni3   S    
O12   C112  S    
N16   N24   A    
C111  H56   S    
C76   N12   A    
C35   H11   S    
C94   C98   A    
C31   O3    S    
C104  H34   S    
O16   C116  S    
N16   Ni7   S    
C45   N5    A    
C102  H29   S    
C74   N10   A    
N15   N23   A    
C116  H70   S    
C105  H37   S    
C10   C66   S    
C87   N23   A    
C34   C40   A    
N13   N21   A    
O20   C120  S    
C35   C37   A    
C45   O13   S    
C46   N6    A    
C38   C42   A    
C120  H84   S    
C75   Cl11  S    
C110  H53   S    
N13   Ni6   S    
N12   N20   A    
C44   C99   S    
C3    N3    A    
C104  H36   S    
C93   Cl21  S    
O2    C102  S    
C84   N20   A    
C63   O11   S    
O15   C115  S    
C1    C97   A    
C112  H60   S    
C115  H67   S    
C64   O12   S    
C120  H82   S    
C35   C59   A    
O18   C118  S    
N24   Ni4   S    
C29   O1    S    
N29   Ni2   S    
C13   C85   A    
C86   Cl14  S    
C21   C25   A    
C105  H39   S    
C112  H59   S    
O14   C114  S    
N12   Ni3   S    
C61   C66   A    
C41   C49   A    
C103  H33   S    
C15   C79   A    
C20   C24   A    
N1    N29   A    
C107  H43   S    
C79   H19   S    
C17   C18   A    
C92   N28   A    
C33   C57   A    
O19   C119  S    
C8    C92   A    
C23   C27   A    
N14   Ni5   S    
C33   H9    S    
C72   Cl8   S    
O13   C113  S    
C40   C44   A    
C67   C71   A    
C61   C62   A    
C68   C72   A    
C106  H42   S    
C39   Cl3   S    
N6    Ni6   S    
C95   N31   A    
C15   C23   S    
O6    C106  S    
O7    C107  S    
C16   C24   S    
O17   C117  S    
N20   Ni8   S    
C101  H26   S    
C17   C30   S    
C62   O10   S    
C117  H75   S    
C29   H5    S    
C119  H80   S    
O5    C105  S    
C113  H62   S    
C7    C59   S    
C76   Cl12  S    
C19   C32   S    
C78   N14   A    
N19   Ni7   S    
C111  H55   S    
C11   C67   S    
N14   N22   A    
C112  H58   S    
C77   N13   A    
C52   H16   S    
C94   Cl22  S    
C102  H30   S    
C37   Cl1   S    
C89   N25   A    
C116  H71   S    
C4    N4    A    
C13   C21   S    
C64   C67   A    
C83   H23   S    
C55   O7    S    
C118  H78   S    
C43   C100  S    
C14   C86   A    
N30   Ni1   S    
C117  H73   S    
C79   N15   A    
C104  H35   S    
C87   Cl15  S    
O11   C111  S    
C26   O18   S    
C53   C57   A    
O10   C110  S    
C120  H83   S    
C27   O19   S    
C12   C84   A    
C11   C83   A    
C25   C26   A    
C80   N16   A    
C78   H18   S    
C5    C45   A    
C10   C82   A    
C51   H15   S    
C56   C60   A    
C47   N7    A    
C16   C80   A    
C113  H63   S    
C7    C47   A    
C36   H12   S    
C19   C23   A    
C8    C48   A    
N8    Ni8   S    
N6    N26   A    
C29   C30   S    
O8    C108  S    
C69   Cl5   S    
N10   N18   A    
N21   Ni1   S    
N2    Ni2   S    
C95   Cl23  S    
O3    C103  S    
N7    Ni7   S    
C94   N30   A    
N5    Ni5   S    
C7    C91   A    
C9    C65   S    
C117  H74   S    
O9    C109  S    
C88   N24   A    
C52   C54   A    
C114  H65   S    
C18   C29   S    
C33   C39   A    
C61   O9    S    
C34   C58   A    
C14   C22   S    
N22   Ni2   S    
C92   Cl20  S    
C90   Cl18  S    
C42   C50   A    
C30   O2    S    
C2    N2    A    
C103  H31   S    
N2    N30   A    
C118  H76   S    
C73   N9    A    
N27   Ni8   S    
C1    H1    S    
C109  H50   S    
C4    C100  A    
C13   C77   A    
C32   H8    S    
C101  H25   S    
N8    N28   A    
C73   Cl9   S    
C110  H54   S    
C89   Cl17  S    
C113  H61   S    
N3    N31   A    
C36   C38   A    
N3    Ni3   S    
C12   C76   A    
C86   N22   A    
C42   C97   S    
C91   Cl19  S    
O4    C104  S    
N4    Ni4   S    
C15   C87   A    
C54   C58   A    
C108  H48   S    
C3    H3    S    
C77   H17   S    
C28   O20   S    
N26   Ni5   S    
C108  H46   S    
C63   C68   A    
N15   Ni8   S    
C116  H72   S    
C105  H38   S    
N11   Ni4   S    
C6    C46   A    
C62   C65   A    
C118  H77   S    
N31   Ni4   S    
C18   C22   A    
N1    Ni1   S    
C31   H7    S    
C9    C73   A    
C31   C32   S    
C32   O4    S    
C24   C28   A    
C85   N21   A    
C63   C64   A    
C36   C60   A    
C49   C55   A    
N18   Ni6   S    
C39   C43   A    
C90   N26   A    
C30   H6    S    
C40   Cl4   S    
C84   H24   S    
C109  H51   S    
C96   C100  A    
N9    N17   A    
C115  H69   S    
C5    C57   S    
C1    N1    A    
C85   Cl13  S    
C91   N27   A    
C12   C68   S    
C19   C20   A    
C93   N29   A    
C119  H79   S    
C48   O16   S    
C71   Cl7   S    
C38   Cl2   S    
C50   C56   A    
C8    C60   S    
C83   N19   A    
C10   C74   A    
C44   C52   A    
C96   N32   A    
C75   N11   A    
C43   C51   A    
C107  H45   S    
C65   C69   A    
C4    H4    S    
C81   N17   A    
N11   N19   A    
C47   O15   S    
C93   C97   A    
C115  H68   S    
C114  H66   S    
C95   C99   A    
C46   O14   S    
C14   C78   A    
C110  H52   S    
C37   C41   A    
C69   C70   A    
N9    Ni2   S    
C5    C89   A    
C74   Cl10  S    
N28   Ni7   S    
C56   O8    S    
N4    N32   A    
C51   C53   A    
C106  H40   S    
C3    C99   A    
C70   Cl6   S    
C71   C72   A    
N10   Ni1   S    
C6    C90   A    
C66   C70   A    
C2    C98   A    
C101  H27   S    
C107  H44   S    
C109  H49   S    
C22   C26   A    
C81   H21   S    
C27   C28   A    
C16   C88   A    
C2    H2    S    
C41   C98   S    
C48   N8    A    
C11   C75   A    
N25   Ni6   S    
C34   H10   S    
C50   H14   S    
N5    N25   A    
C108  H47   S    
C53   O5    S    
C82   H22   S    
C111  H57   S    
C25   O17   S    
C88   Cl16  S    
C9    C81   A    
C103  H32   S    
C106  H41   S    
C20   C31   S    
C17   C21   A    
