data_mof_unit_47681.cif
_audit_creation_date              2012-12-10T20:47:09-0500
_audit_creation_method            fapswitch 2.2
_symmetry_space_group_name_H-M    P1
_symmetry_Int_Tables_number       1
_space_group_crystal_system       triclinic
_cell_length_a                    10.637219
_cell_length_b                    8.92125
_cell_length_c                    8.126949
_cell_angle_alpha                 90.116
_cell_angle_beta                  89.999762
_cell_angle_gamma                 89.999963
_cell_volume                      771.223855492

loop_
_atom_site_label
_atom_site_type_symbol
_atom_type_description
_atom_site_fract_x
_atom_site_fract_y
_atom_site_fract_z
_atom_type_partial_charge
C1    C     C_R   0.500000 0.218096 0.499858 0.901469
C2    C     C_R   0.065718 0.356804 0.546477 0.053711
C3    C     C_R   0.127966 0.489610 0.499724 -0.053641
C4    C     C_R   0.872034 0.489611 0.499721 -0.053643
C5    C     C_R   0.064263 0.617723 0.449893 -0.142438
C6    C     C_R   0.935738 0.617724 0.449894 -0.142442
C7    C     C_1   0.500000 0.065243 0.499834 -0.206087
C8    C     C_1   0.500000 0.934779 0.500148 -0.194641
C9    C     C_R   0.500000 0.781909 0.500086 0.939183
C10   C     C_R   0.259908 0.498167 0.499995 0.871661
C11   C     C_R   0.740092 0.498168 0.499994 0.871662
C12   C     C_R   0.131026 0.224579 0.589237 -0.396538
C13   C     C_R   0.868972 0.224575 0.589221 -0.396529
C14   C     C_R   0.065746 0.092941 0.631259 0.495449
C15   C     C_R   0.934252 0.092937 0.631250 0.495449
C16   C     C_R   0.934281 0.356803 0.546471 0.053714
H1    H     H_    0.114365 0.718131 0.413080 0.166575
H2    H     H_    0.885637 0.718134 0.413088 0.166578
H3    H     H_    0.232638 0.222070 0.588483 0.154149
H4    H     H_    0.767359 0.222062 0.588453 0.154144
H5    H     H_    0.219998 0.979973 0.664919 0.322931
H6    H     H_    0.780001 0.979959 0.664880 0.322929
N1    N     N_1   0.500000 0.500000 0.073640 -0.021620
N2    N     N_1   0.500000 0.500000 0.926360 -0.020419
O1    O     O_R   0.500000 0.285350 0.636850 -0.625542
O2    O     O_3   0.871907 0.962381 0.671805 -0.728331
O3    O     O_R   0.500000 0.714650 0.636850 -0.609316
O4    O     O_R   0.500000 0.285360 0.363100 -0.606311
O5    O     O_R   0.500000 0.714640 0.363100 -0.612762
O6    O     O_R   0.316770 0.500000 0.636900 -0.606090
O7    O     O_R   0.683230 0.500000 0.636900 -0.606087
O8    O     O_R   0.316780 0.500000 0.363150 -0.618737
O9    O     O_R   0.683220 0.500000 0.363150 -0.618738
O10   O     O_3   0.128091 0.962387 0.671823 -0.728326
Zn1   Zn    Zn3+2 0.500000 0.500000 0.682780 1.011372
Zn2   Zn    Zn3+2 0.500000 0.500000 0.317220 1.007260

loop_
_geom_bond_atom_site_label_1
_geom_bond_atom_site_label_2
_ccdc_geom_bond_type
C4    C16   A    
C1    O4    A    
N1    N2    T    
C14   O10   S    
C2    C16   A    
C10   O6    A    
C9    O5    A    
C2    C12   A    
C2    C3    A    
C11   O7    A    
C7    C8    T    
C3    C10   S    
C4    C11   S    
C1    O1    A    
O5    Zn2   S    
O4    Zn2   S    
O6    Zn1   S    
O1    Zn1   S    
O8    Zn2   S    
C12   H3    S    
C12   C14   A    
C13   C15   A    
C5    C6    A    
C6    H2    S    
O7    Zn1   S    
N2    Zn1   S    
C5    H1    S    
C10   O8    A    
C11   O9    A    
O9    Zn2   S    
C9    O3    A    
C4    C6    A    
N1    Zn2   S    
H6    O2    S    
C13   C16   A    
C14   C15   A    
C15   O2    S    
H5    O10   S    
C13   H4    S    
O3    Zn1   S    
C1    C7    S    
C8    C9    S    
C3    C5    A    
