data_mof_unit_55088.cif
_audit_creation_date              2012-12-11T15:07:37-0500
_audit_creation_method            fapswitch 2.2
_symmetry_space_group_name_H-M    P1
_symmetry_Int_Tables_number       1
_space_group_crystal_system       triclinic
_cell_length_a                    21.649243
_cell_length_b                    7.201246
_cell_length_c                    18.59267
_cell_angle_alpha                 89.66247
_cell_angle_beta                  96.126524
_cell_angle_gamma                 90.034715
_cell_volume                      2882.02050744

loop_
_atom_site_label
_atom_site_type_symbol
_atom_type_description
_atom_site_fract_x
_atom_site_fract_y
_atom_site_fract_z
_atom_type_partial_charge
O1    O     O_R   0.449650 0.506500 0.414480 -0.532419
O2    O     O_R   0.550350 0.006500 0.585520 -0.532881
O3    O     O_R   0.432010 0.173150 0.560250 -0.540979
O4    O     O_R   0.567990 0.673150 0.439750 -0.535415
C1    C     C_R   0.416286 0.344256 0.581107 0.683465
C2    C     C_R   0.584334 0.844997 0.419735 0.685118
O5    O     O_R   0.442320 0.176650 0.413480 -0.534211
O6    O     O_R   0.557680 0.676650 0.586520 -0.535203
O7    O     O_R   0.560730 0.008380 0.437700 -0.539504
O8    O     O_R   0.439270 0.508380 0.562300 -0.536466
C3    C     C_R   0.428405 0.345646 0.387542 0.687433
C4    C     C_R   0.571571 0.844745 0.612513 0.683906
O9    O     O_3   0.538840 0.339860 0.508120 -0.371643
O10   O     O_3   0.461160 0.839860 0.491880 -0.371258
V1    V     V_3+5 0.492800 0.064220 0.498490 1.424442
V2    V     V_3+5 0.507200 0.564220 0.501510 1.430536
C5    C     C_R   0.869749 0.018642 0.689002 0.180740
C6    C     C_R   0.127775 0.483045 0.312981 0.180587
H1    H     H_    0.784591 0.013519 0.573270 0.171208
H2    H     H_    0.212203 0.459958 0.429212 0.171157
C7    C     C_R   0.888041 0.946520 0.817644 -0.175692
C8    C     C_R   0.111569 0.442114 0.182448 -0.177745
C9    C     C_R   0.586073 0.815352 0.744884 -0.199890
C10   C     C_R   0.414880 0.342341 0.254781 -0.200938
C11   C     C_R   0.620776 0.831026 0.811700 -0.169700
C12   C     C_R   0.380328 0.369593 0.188370 -0.170081
C13   C     C_R   0.684095 0.876302 0.817378 0.202821
C14   C     C_R   0.316382 0.405677 0.183380 0.202813
C15   C     C_R   0.715393 0.894536 0.753705 0.102954
C16   C     C_R   0.284417 0.401212 0.246860 0.102905
C17   C     C_R   0.677586 0.891933 0.685212 0.023349
C18   C     C_R   0.321781 0.386102 0.315397 0.022991
C19   C     C_R   0.781670 0.923304 0.754638 0.042256
C20   C     C_R   0.217774 0.419925 0.245943 0.042163
C21   C     C_R   0.806100 0.974337 0.689174 0.052526
C22   C     C_R   0.192099 0.449155 0.312340 0.052626
C23   C     C_R   0.766946 0.978381 0.623990 -0.139544
C24   C     C_R   0.230732 0.441595 0.377871 -0.138238
C25   C     C_R   0.704607 0.932942 0.621765 -0.197848
C26   C     C_R   0.293724 0.405621 0.379469 -0.198280
C27   C     C_R   0.825029 0.898511 0.817173 -0.231420
C28   C     C_R   0.175291 0.404847 0.182326 -0.230876
C29   C     C_R   0.910481 0.008256 0.752994 0.312772
C30   C     C_R   0.087643 0.483370 0.248343 0.309707
C31   C     C_R   0.612951 0.851052 0.681409 -0.076352
C32   C     C_R   0.387033 0.355832 0.318706 -0.076800
H3    H     H_    0.811999 0.838051 0.866335 0.172620
H4    H     H_    0.189601 0.358563 0.131803 0.173536
H5    H     H_    0.537027 0.782716 0.742828 0.113499
H6    H     H_    0.464480 0.319128 0.256445 0.116184
H7    H     H_    0.597618 0.814055 0.860175 0.126263
H8    H     H_    0.404059 0.370117 0.139936 0.126160
H9    H     H_    0.677293 0.934147 0.569453 0.111783
H10   H     H_    0.320678 0.397024 0.431912 0.111729
C33   C     C_R   0.640759 0.719286 0.319471 -0.200287
C34   C     C_R   0.366632 0.508865 0.678106 -0.187379
C35   C     C_R   0.634362 0.857375 0.371033 -0.102132
C36   C     C_R   0.367758 0.355712 0.631760 -0.103573
C37   C     C_R   0.674533 0.011601 0.374211 -0.177569
C38   C     C_R   0.322318 0.216893 0.633895 -0.182657
C39   C     C_R   0.720753 0.029673 0.326415 0.069493
C40   C     C_R   0.275315 0.231398 0.680839 0.044600
C41   C     C_R   0.725693 0.891880 0.273564 0.004367
C42   C     C_R   0.274963 0.386074 0.727367 0.003293
C43   C     C_R   0.685402 0.736654 0.270305 0.111455
C44   C     C_R   0.321146 0.524222 0.725955 0.119098
C45   C     C_R   0.761942 0.182346 0.330591 0.130061
C46   C     C_R   0.228409 0.095713 0.681499 0.192651
C47   C     C_R   0.807534 0.198187 0.281442 0.148014
C48   C     C_R   0.181782 0.113108 0.728584 0.147276
C49   C     C_R   0.811837 0.061607 0.227877 0.066384
C50   C     C_R   0.181704 0.267302 0.775885 0.012255
C51   C     C_R   0.770873 0.908290 0.224018 -0.062811
C52   C     C_R   0.228459 0.403812 0.775104 -0.032868
C53   C     C_R   0.774988 0.770369 0.170753 0.124456
C54   C     C_R   0.228997 0.558693 0.821982 0.137500
C55   C     C_R   0.733953 0.617883 0.168269 -0.156190
C56   C     C_R   0.275797 0.693941 0.819609 -0.155330
C57   C     C_R   0.690083 0.600947 0.217632 -0.226271
C58   C     C_R   0.321132 0.676884 0.772179 -0.221907
C59   C     C_R   0.857227 0.073838 0.178895 -0.189577
C60   C     C_R   0.135717 0.288493 0.823457 -0.210692
C61   C     C_R   0.862941 0.936284 0.126672 -0.144311
C62   C     C_R   0.135286 0.441050 0.870499 -0.120907
C63   C     C_R   0.820376 0.784951 0.121682 0.154612
C64   C     C_R   0.183070 0.576422 0.870255 0.132278
H11   H     H_    0.609804 0.600474 0.316294 0.127776
H12   H     H_    0.401764 0.616148 0.677575 0.124027
H13   H     H_    0.669724 0.116964 0.414585 0.168741
H14   H     H_    0.323129 0.099565 0.597826 0.169353
H15   H     H_    0.889625 0.188964 0.182210 0.175978
H16   H     H_    0.099238 0.186145 0.824018 0.141537
H17   H     H_    0.736000 0.508859 0.128746 0.168549
H18   H     H_    0.277465 0.815026 0.854009 0.165758
H19   H     H_    0.659730 0.480865 0.214604 0.132550
H20   H     H_    0.356149 0.784317 0.771402 0.130453
O11   O     O_R   0.060820 0.290050 0.937800 -0.539327
O12   O     O_R   0.939180 0.790050 0.062200 -0.540218
O13   O     O_R   0.057690 0.616620 0.086540 -0.530423
O14   O     O_R   0.942310 0.116620 0.913460 -0.528906
C65   C     C_R   0.071342 0.448440 0.112799 0.692854
C66   C     C_R   0.928511 0.949278 0.887243 0.692268
O15   O     O_R   0.068010 0.619890 0.939770 -0.543631
O16   O     O_R   0.931990 0.119890 0.060230 -0.540324
O17   O     O_R   0.949640 0.787940 0.914460 -0.534156
O18   O     O_R   0.050360 0.287940 0.085540 -0.532348
C67   C     C_R   0.084976 0.451628 0.919688 0.707050
C68   C     C_R   0.914500 0.950134 0.079425 0.710891
O19   O     O_3   0.961210 0.453080 0.991940 -0.376379
O20   O     O_3   0.038790 0.953080 0.008060 -0.374814
V3    V     V_3+5 0.007200 0.728820 0.001500 1.410056
V4    V     V_3+5 0.992800 0.228820 0.998500 1.425796
O21   O     O_3   0.971897 0.057118 0.749208 -0.658924
H21   H     H_    0.997547 0.021047 0.794305 0.269292
O22   O     O_3   0.025428 0.520931 0.252833 -0.645121
H22   H     H_    0.000994 0.504365 0.205280 0.285114
N1    N     N_3   0.757829 0.319495 0.385637 -0.685316
H23   H     H_    0.749813 0.449195 0.361022 0.244339
H24   H     H_    0.800063 0.323737 0.418534 0.239605
N2    N     N_3   0.227397 0.941037 0.633005 -0.669307
H25   H     H_    0.185575 0.944717 0.599238 0.257305
H26   H     H_    0.228355 0.818380 0.663411 0.265132
N3    N     N_3   0.850194 0.351568 0.286245 -0.669316
H27   H     H_    0.875739 0.349183 0.337203 0.244000
H28   H     H_    0.825067 0.475479 0.280571 0.244214
N4    N     N_3   0.134658 0.972430 0.726571 -0.672658
H29   H     H_    0.091447 0.034493 0.712285 0.262271
H30   H     H_    0.135336 0.912221 0.777894 0.232471
N5    N     N_3   0.821199 0.647556 0.066043 -0.684377
H31   H     H_    0.822471 0.713485 0.015958 0.228826
H32   H     H_    0.860167 0.562731 0.077491 0.259580
N6    N     N_3   0.187437 0.728288 0.920322 -0.689473
H33   H     H_    0.186448 0.676516 0.972851 0.242321
H34   H     H_    0.150238 0.818959 0.907308 0.244419
N7    N     N_3   0.893300 0.075646 0.622981 -0.674334
H35   H     H_    0.928596 0.983862 0.612420 0.258277
H36   H     H_    0.912615 0.208163 0.630448 0.260916
N8    N     N_3   0.102911 0.518220 0.380176 -0.670265
H37   H     H_    0.068892 0.418432 0.387042 0.259390
H38   H     H_    0.081706 0.648858 0.376916 0.262310
N9    N     N_3   0.713527 0.921057 0.887774 -0.702587
H39   H     H_    0.709761 0.806145 0.921712 0.229113
H40   H     H_    0.689466 0.031513 0.908157 0.237915
N10   N     N_3   0.286763 0.465199 0.114578 -0.703447
H41   H     H_    0.292510 0.361295 0.076785 0.225628
H42   H     H_    0.309279 0.584754 0.098658 0.239373

loop_
_geom_bond_atom_site_label_1
_geom_bond_atom_site_label_2
_ccdc_geom_bond_type
C24   C26   A    
C41   C43   A    
N4    H29   S    
C9    C31   A    
C13   C15   A    
O1    C3    A    
O2    C4    A    
C2    O7    A    
C5    C29   A    
O12   C68   A    
N3    H27   S    
O18   V4    S    
O5    C3    A    
C8    C65   S    
C52   C54   A    
C1    C36   S    
C43   C57   A    
C13   N9    S    
O15   V3    S    
C21   C23   A    
C54   C56   A    
O21   H21   S    
C12   H8    S    
N1    H24   S    
C56   C58   A    
C9    H5    S    
C47   N3    S    
C36   C38   A    
O22   H22   S    
C15   C19   A    
C62   C67   S    
C60   H16   S    
C61   C68   S    
C66   O17   A    
C38   C40   A    
C37   H13   S    
C55   H17   S    
C47   C49   A    
O20   V3    S    
C60   C62   A    
C40   C42   A    
H1    C23   S    
C33   C43   A    
C7    C29   A    
C53   C63   A    
C8    C30   A    
C30   O22   S    
C17   C25   A    
N6    H33   S    
C20   C28   A    
C5    N7    S    
C14   N10   S    
C58   H20   S    
C63   N5    S    
C48   N4    S    
O5    V1    S    
O17   V3    S    
O6    V2    S    
C51   C53   A    
C2    C35   S    
C45   N1    S    
O14   C66   A    
C59   C61   A    
N2    H26   S    
C55   C57   A    
C10   H6    S    
C23   C25   A    
C37   C39   A    
C16   C20   A    
N7    H35   S    
N10   H42   S    
O19   V4    S    
C49   C51   A    
O11   V4    S    
C4    C31   S    
C41   C51   A    
C45   C47   A    
C42   C44   A    
O4    V2    S    
C11   H7    S    
C57   H19   S    
C6    C30   A    
H2    C24   S    
C39   C45   A    
O6    C4    A    
O13   V3    S    
C39   C41   A    
C27   H3    S    
O1    V2    S    
C28   H4    S    
C59   H15   S    
O2    V1    S    
C53   C55   A    
N8    H38   S    
N6    H34   S    
C7    C27   A    
C7    C66   S    
C50   C52   A    
O13   C65   A    
C6    N8    S    
O14   V4    S    
C26   H10   S    
C33   C35   A    
O4    C2    A    
C22   C24   A    
C54   C64   A    
O16   C68   A    
C18   C26   A    
O3    V1    S    
N2    H25   S    
O16   V4    S    
N5    H31   S    
C65   O18   A    
N7    H36   S    
N4    H30   S    
O12   V3    S    
C61   C63   A    
C18   C32   A    
C10   C12   A    
N10   H41   S    
O3    C1    A    
C35   C37   A    
C48   C50   A    
C38   H14   S    
C11   C13   A    
C44   C58   A    
C12   C14   A    
C40   C46   A    
C19   C27   A    
N9    H40   S    
O7    V1    S    
C10   C32   A    
C1    O8    A    
C15   C17   A    
O8    V2    S    
N1    H23   S    
C46   N2    S    
C16   C18   A    
C64   N6    S    
C25   H9    S    
C56   H18   S    
C34   C44   A    
C14   C16   A    
C19   C21   A    
C34   C36   A    
C20   C22   A    
C9    C11   A    
C33   H11   S    
C50   C60   A    
N3    H28   S    
N8    H37   S    
O11   C67   A    
C34   H12   S    
C46   C48   A    
C17   C31   A    
O9    V2    S    
C8    C28   A    
C42   C52   A    
O10   V1    S    
C62   C64   A    
C3    C32   S    
O15   C67   A    
C5    C21   A    
N5    H32   S    
N9    H39   S    
C6    C22   A    
C29   O21   S    
C49   C59   A    
