data_mof_unit_8452.cif
_audit_creation_date              2012-10-26T19:53:29-0400
_audit_creation_method            fapswitch 2.2
_symmetry_space_group_name_H-M    P1
_symmetry_Int_Tables_number       1
_space_group_crystal_system       triclinic
_cell_length_a                    9.08227
_cell_length_b                    7.832406
_cell_length_c                    10.689316
_cell_angle_alpha                 87.895385
_cell_angle_beta                  90.067076
_cell_angle_gamma                 89.995009
_cell_volume                      759.882001058

loop_
_atom_site_label
_atom_site_type_symbol
_atom_type_description
_atom_site_fract_x
_atom_site_fract_y
_atom_site_fract_z
_atom_type_partial_charge
C1    C     C_R   0.220230 0.500014 0.499888 0.540623
C2    C     C_3   0.640599 0.469630 0.052867 -0.157730
C3    C     C_3   0.519266 0.495072 0.876579 -0.017770
C4    C     C_3   0.498637 0.511016 0.123617 -0.045221
C5    C     C_1   0.065445 0.500029 0.499720 -0.059583
C6    C     C_1   0.934570 0.500021 0.499704 -0.054969
C7    C     C_3   0.279672 0.828036 0.104563 -0.058939
C8    C     C_3   0.663293 0.107821 0.055103 -0.059792
C9    C     C_3   0.699582 0.834568 0.823599 -0.066518
C10   C     C_3   0.181175 0.338381 0.130141 -0.117948
C11   C     C_R   0.779781 0.500009 0.499806 0.541695
C12   C     C_R   0.496561 0.503368 0.259319 0.538881
C13   C     C_R   0.512688 0.497490 0.740367 0.556291
C14   C     C_3   0.467008 0.660710 0.030703 0.237676
C15   C     C_3   0.550082 0.348159 0.972070 0.285728
C16   C     C_3   0.607449 0.618112 0.957997 0.252227
C17   C     C_3   0.409129 0.392011 0.041967 0.257038
C18   C     C_3   0.375647 0.540932 0.947134 -0.194834
Cu1   Cu    Cu3+1 0.500000 0.669080 0.500000 1.001433
Cu2   Cu    Cu3+1 0.500000 0.330920 0.500000 1.033171
H1    H     H_    0.267934 0.569989 0.901961 0.114447
H2    H     H_    0.732142 0.772170 0.736486 0.156793
H3    H     H_    0.771167 0.948658 0.829597 0.154744
H4    H     H_    0.121413 0.410681 0.054454 0.114503
H5    H     H_    0.204466 0.421404 0.209806 0.109161
H6    H     H_    0.106863 0.235075 0.165354 0.128015
H7    H     H_    0.749771 0.446774 0.097337 0.107738
H8    H     H_    0.255226 0.722993 0.174171 0.088692
H9    H     H_    0.203656 0.822356 0.023315 0.123783
H10   H     H_    0.258487 0.949051 0.151724 0.191964
H11   H     H_    0.601064 0.130205 0.142722 0.173000
H12   H     H_    0.777934 0.156078 0.061914 0.078010
H13   H     H_    0.671283 0.968706 0.048956 0.222363
H14   H     H_    0.583525 0.880472 0.820330 0.199524
N1    N     N_1   0.500000 0.076820 0.500000 -0.082705
N2    N     N_1   0.500000 0.923180 0.500000 -0.090251
O1    O     O_R   0.288390 0.642760 0.500000 -0.497903
O2    O     O_3   0.592767 0.179602 0.947209 -0.538045
O3    O     O_3   0.729012 0.724539 0.927432 -0.601217
O4    O     O_3   0.310737 0.263453 0.084959 -0.532280
O5    O     O_R   0.711610 0.357240 0.500000 -0.503212
O6    O     O_R   0.711610 0.642760 0.500000 -0.513894
O7    O     O_R   0.288390 0.357240 0.500000 -0.493556
O8    O     O_R   0.499960 0.642760 0.316850 -0.485833
O9    O     O_R   0.500040 0.357240 0.683150 -0.467650
O10   O     O_R   0.500040 0.642760 0.683150 -0.534757
O11   O     O_R   0.499960 0.357240 0.316850 -0.499952
O12   O     O_3   0.427314 0.826998 0.064145 -0.532943

loop_
_geom_bond_atom_site_label_1
_geom_bond_atom_site_label_2
_ccdc_geom_bond_type
C2    C4    S    
C15   O2    S    
C2    H7    S    
C7    H9    S    
C4    C12   S    
C18   H1    S    
C2    C16   S    
C14   C18   S    
N1    N2    T    
C3    C13   S    
Cu1   O6    S    
C1    O1    A    
Cu1   N2    S    
C7    O12   S    
C10   H6    S    
Cu1   Cu2   S    
C17   C18   S    
Cu1   O10   S    
C12   O8    A    
C7    H10   S    
C13   O9    A    
C2    C15   S    
Cu2   N1    S    
C9    H14   S    
C8    O2    S    
C3    C18   S    
C12   O11   A    
C1    C5    S    
C4    C17   S    
C10   H5    S    
C11   O5    A    
C8    H13   S    
C4    C14   S    
C5    C6    T    
C14   C16   S    
C9    H2    S    
Cu2   O11   S    
C7    H8    S    
C16   O3    S    
C8    H12   S    
C9    O3    S    
Cu2   O7    S    
C3    C15   S    
Cu1   O8    S    
C11   O6    A    
C10   O4    S    
C6    C11   S    
C15   C17   S    
C13   O10   A    
C9    H3    S    
C14   O12   S    
Cu1   O1    S    
C10   H4    S    
C8    H11   S    
C1    O7    A    
C3    C16   S    
Cu2   O9    S    
Cu2   O5    S    
C17   O4    S    
