data_mof_unit_51128.cif
_audit_creation_date              2012-12-11T16:26:34-0500
_audit_creation_method            fapswitch 2.2
_symmetry_space_group_name_H-M    P1
_symmetry_Int_Tables_number       1
_space_group_crystal_system       triclinic
_cell_length_a                    6.942241
_cell_length_b                    17.37371
_cell_length_c                    19.683873
_cell_angle_alpha                 108.571161
_cell_angle_beta                  90.084761
_cell_angle_gamma                 91.604769
_cell_volume                      2249.47940337

loop_
_atom_site_label
_atom_site_type_symbol
_atom_type_description
_atom_site_fract_x
_atom_site_fract_y
_atom_site_fract_z
_atom_type_partial_charge
O1    O     O_R   0.494330 0.415720 0.413720 -0.506512
O2    O     O_R   0.819330 0.430070 0.560210 -0.535727
O3    O     O_R   0.994320 0.584280 0.586280 -0.558990
C1    C     C_R   0.649858 0.414812 0.581285 0.858443
O4    O     O_R   0.823730 0.406300 0.412670 -0.527772
O5    O     O_R   0.998760 0.560340 0.437690 -0.536902
C2    C     C_R   0.650905 0.379935 0.387568 0.857345
O6    O     O_R   0.489890 0.439660 0.562310 -0.508654
O7    O     O_3   0.662340 0.550560 0.508380 -0.347649
V1    V     V_3+5 0.935370 0.490620 0.498450 1.658106
O8    O     O_R   0.328750 0.569930 0.439790 -0.490642
C3    C     C_R   0.160354 0.584686 0.418235 0.739093
O9    O     O_R   0.324340 0.593700 0.587330 -0.507924
C4    C     C_R   0.157815 0.621461 0.611696 0.741495
V2    V     V_3+5 0.435940 0.509380 0.501550 1.740246
O10   O     O_3   0.159100 0.449440 0.491620 -0.346872
C5    C     C_R   0.036030 0.592426 0.740376 -0.130660
C6    C     C_R   0.969855 0.575082 0.800896 0.468728
C7    C     C_R   0.936828 0.637813 0.863668 -0.065596
C8    C     C_R   0.977963 0.717829 0.867269 -0.153510
C9    C     C_R   0.055693 0.736970 0.807966 0.053261
C10   C     C_R   0.080159 0.673423 0.742203 0.005445
C11   C     C_R   0.114020 0.817469 0.814352 -0.093994
C12   C     C_R   0.192842 0.835274 0.754423 0.045627
C13   C     C_R   0.221984 0.772352 0.687562 -0.052796
C14   C     C_R   0.155838 0.690443 0.680890 -0.089192
C15   C     C_R   0.241087 0.916954 0.760799 -0.189201
C16   C     C_R   0.323400 0.937865 0.705246 -0.160244
C17   C     C_R   0.364067 0.878668 0.641657 0.509022
C18   C     C_R   0.316235 0.796367 0.631688 0.261087
H1    H     H_    0.059942 0.541061 0.693172 0.161721
H2    H     H_    0.883478 0.624585 0.910547 0.188085
H3    H     H_    0.952434 0.764108 0.917831 0.162614
H4    H     H_    0.213059 0.966755 0.808832 0.137914
H5    H     H_    0.358476 0.001102 0.712261 0.174346
C19   C     C_R   0.183977 0.595341 0.294361 -0.066978
C20   C     C_R   0.149768 0.632995 0.367860 -0.125065
C21   C     C_R   0.087904 0.713659 0.392527 -0.067003
C22   C     C_R   0.094128 0.762933 0.346792 -0.001508
C23   C     C_R   0.135738 0.725585 0.272705 -0.007234
C24   C     C_R   0.179398 0.641114 0.245627 -0.002384
C25   C     C_R   0.062177 0.848360 0.372272 0.364519
C26   C     C_R   0.049861 0.893024 0.324068 -0.114344
C27   C     C_R   0.079468 0.855265 0.250311 0.026239
C28   C     C_R   0.129439 0.772575 0.224999 0.024042
C29   C     C_R   0.173976 0.737070 0.151629 -0.015596
C30   C     C_R   0.216796 0.654859 0.126204 -0.096581
C31   C     C_R   0.216761 0.606750 0.170754 0.350881
C32   C     C_R   0.065507 0.899376 0.201379 -0.236645
C33   C     C_R   0.112127 0.864679 0.129344 -0.103928
C34   C     C_R   0.173385 0.784251 0.104669 0.343947
H6    H     H_    0.023281 0.962173 0.219117 0.118661
H7    H     H_    0.247425 0.625937 0.070100 0.227894
C35   C     C_R   0.538404 0.209518 0.887236 -0.082511
C36   C     C_R   0.623944 0.133084 0.868299 -0.163779
C37   C     C_R   0.707249 0.100161 0.800025 -0.103718
C38   C     C_R   0.718511 0.146389 0.751657 -0.031792
C39   C     C_R   0.629680 0.223386 0.771227 0.045409
C40   C     C_R   0.538630 0.254230 0.838617 0.083401
C41   C     C_R   0.813506 0.119547 0.684304 0.372223
C42   C     C_R   0.813696 0.166381 0.638522 -0.085023
C43   C     C_R   0.723948 0.241278 0.656594 -0.047354
C44   C     C_R   0.630756 0.270089 0.723259 -0.026006
C45   C     C_R   0.540157 0.346084 0.742435 0.072656
C46   C     C_R   0.449365 0.374433 0.809019 -0.017034
C47   C     C_R   0.449194 0.329713 0.856159 -0.125818
C48   C     C_R   0.728385 0.288286 0.609621 0.341129
C49   C     C_R   0.639091 0.364131 0.629124 -0.182775
C50   C     C_R   0.545558 0.393028 0.695505 0.320397
H8    H     H_    0.888614 0.143211 0.588292 0.234676
H9    H     H_    0.377751 0.431831 0.825908 0.217960
H10   H     H_    0.377414 0.355293 0.906820 0.183649
H11   H     H_    0.454709 0.121734 0.424846 0.193965
C51   C     C_R   0.683654 0.416829 0.250743 0.221072
C52   C     C_R   0.715853 0.432316 0.185833 -0.107804
C53   C     C_R   0.749451 0.368940 0.123731 0.376896
C54   C     C_R   0.747577 0.288889 0.125106 -0.167110
C55   C     C_R   0.681422 0.268699 0.186462 -0.044574
C56   C     C_R   0.664792 0.334116 0.252499 0.022547
C57   C     C_R   0.634540 0.186264 0.183691 -0.115842
C58   C     C_R   0.597115 0.167653 0.248622 0.008946
C59   C     C_R   0.578928 0.233320 0.314446 -0.029426
C60   C     C_R   0.628771 0.315009 0.317067 -0.124265
C61   C     C_R   0.578479 0.085315 0.251313 -0.116765
C62   C     C_R   0.539123 0.070738 0.316263 -0.115601
C63   C     C_R   0.500481 0.134394 0.376654 -0.054220
C64   C     C_R   0.509721 0.213789 0.375858 0.351302
O11   O     O_R   0.775200 0.060470 0.937800 -0.529292
O12   O     O_R   0.441110 0.093720 0.087350 -0.533741
O13   O     O_R   0.266330 0.939630 0.062280 -0.516475
C65   C     C_R   0.613770 0.120216 0.112841 0.687496
O14   O     O_R   0.445750 0.069950 0.939820 -0.550924
O15   O     O_R   0.271000 0.915700 0.913700 -0.533591
C66   C     C_R   0.614933 0.084772 0.918462 0.687808
O16   O     O_R   0.770530 0.084400 0.086380 -0.542833
O17   O     O_3   0.602830 0.949510 0.991680 -0.347623
V3    V     V_3+5 0.329710 0.009370 0.001550 1.540019
O18   O     O_R   0.940990 0.906170 0.912570 -0.544840
C67   C     C_R   0.107915 0.882918 0.885202 0.702106
O19   O     O_R   0.936350 0.929940 0.060100 -0.530662
C68   C     C_R   0.104169 0.914820 0.081310 0.770284
V4    V     V_3+5 0.829160 0.990450 0.998310 1.541867
O20   O     O_3   0.105910 0.050480 0.008320 -0.366252
Cl1   Cl    Cl    0.480407 0.911098 0.575347 -0.411088
C69   C     C_1   0.995264 0.739892 0.461881 0.493765
N1    N     N_1   0.920285 0.759736 0.517025 -0.214063
Cl2   Cl    Cl    0.059567 0.905388 0.465001 -0.465621
C70   C     C_1   0.017545 0.979702 0.351837 0.411057
N2    N     N_1   0.992664 0.048810 0.374023 -0.277277
Cl3   Cl    Cl    0.252390 0.744196 0.015097 -0.678174
Cl4   Cl    Cl    0.264587 0.503811 0.125226 -0.580312
C71   C     C_1   0.448597 0.241506 0.956876 0.358251
N3    N     N_1   0.376658 0.266943 0.012242 -0.265147
C72   C     C_1   0.758267 0.015486 0.778910 0.387316
N4    N     N_1   0.795564 0.947539 0.762751 -0.309395
Cl5   Cl    Cl    0.949092 0.030896 0.653074 -0.532201
Cl6   Cl    Cl    0.843963 0.252179 0.525376 -0.587349
Cl7   Cl    Cl    0.452008 0.492036 0.722265 -0.663388
Cl8   Cl    Cl    0.659120 0.506290 0.325467 -0.679024
C73   C     C_1   0.725152 0.514911 0.183223 0.572083
N5    N     N_1   0.732105 0.580782 0.181177 -0.304682
Cl9   Cl    Cl    0.807462 0.390916 0.043618 -0.540829
C74   C     C_1   0.857300 0.234950 0.068875 0.387355
N6    N     N_1   0.951981 0.195906 0.023440 -0.273390
Cl10  Cl    Cl    0.937485 0.473964 0.799080 -0.617389
C75   C     C_1   0.601696 0.012744 0.190686 0.270364
N7    N     N_1   0.617293 0.952925 0.143930 -0.278914
C76   C     C_1   0.529354 0.989499 0.322005 0.349871
N8    N     N_1   0.522534 0.924709 0.326612 -0.298741
Cl11  Cl    Cl    0.392896 0.279712 0.449872 -0.602375
Cl12  Cl    Cl    0.395853 0.729745 0.550015 -0.598310
C77   C     C_1   0.203207 0.507863 0.270841 0.433800
N9    N     N_1   0.216167 0.437957 0.253227 -0.303006

loop_
_geom_bond_atom_site_label_1
_geom_bond_atom_site_label_2
_ccdc_geom_bond_type
C27   C32   A    
C42   H8    S    
C11   C67   S    
C36   C37   A    
C52   C53   A    
C75   N7    T    
O17   V4    S    
C2    C60   S    
C7    C8    A    
C12   C15   A    
C1    O6    A    
C76   N8    T    
C72   N4    T    
C74   N6    T    
C18   Cl12  S    
C28   C29   A    
C37   C38   A    
C51   Cl8   S    
C20   C21   A    
C43   C48   A    
C64   Cl11  S    
C16   C17   A    
C19   C77   S    
C6    Cl10  S    
O5    C3    A    
C21   C22   A    
C55   C57   A    
C59   C64   A    
C50   Cl7   S    
C13   C18   A    
C70   N2    T    
C5    C6    A    
C6    C7    A    
C3    C20   S    
C32   C33   A    
C35   C36   A    
O8    V2    S    
C61   C62   A    
C47   H10   S    
C16   H5    S    
C49   C50   A    
C11   C12   A    
O1    V2    S    
O12   C65   A    
C25   Cl2   S    
O15   C67   A    
O13   V3    S    
O16   V4    S    
C54   C55   A    
C30   H7    S    
O1    C2    A    
O9    C4    A    
C19   C24   A    
V4    O20   S    
C36   C66   S    
C7    H2    S    
O14   C66   A    
C71   N3    T    
O14   V3    S    
C58   C59   A    
C22   C25   A    
C35   C40   A    
C15   H4    S    
C61   C75   S    
C23   C28   A    
O11   C66   A    
C51   C52   A    
C48   C49   A    
C12   C13   A    
C22   C23   A    
C1    C49   S    
C55   C56   A    
C77   N9    T    
C38   C41   A    
C39   C40   A    
C46   H9    S    
C29   C34   A    
C4    C14   S    
C17   Cl1   S    
O12   V3    S    
C41   C42   A    
O2    C1    A    
C26   C27   A    
O13   C68   A    
C17   C18   A    
C54   C74   S    
C30   C31   A    
C32   H6    S    
O17   V3    S    
C43   C44   A    
O19   V4    S    
C33   C34   A    
C35   C71   S    
C45   C50   A    
C53   C54   A    
C48   Cl6   S    
C62   C63   A    
V3    O20   S    
O3    C4    A    
C8    H3    S    
C23   C24   A    
O18   C67   A    
O6    V2    S    
C51   C56   A    
C9    C11   A    
C5    H1    S    
C41   Cl5   S    
C25   C26   A    
O2    V1    S    
O15   V3    S    
C58   C61   A    
C27   C28   A    
O4    C2    A    
O7    V1    S    
C39   C44   A    
C29   C30   A    
C19   C20   A    
C63   C64   A    
C52   C73   S    
C57   C58   A    
O5    V1    S    
O11   V4    S    
O8    C3    A    
C34   Cl3   S    
C69   N1    T    
C5    C10   A    
C53   Cl9   S    
C45   C46   A    
C21   C69   S    
O9    V2    S    
C13   C14   A    
O4    V1    S    
C40   C47   A    
O3    V1    S    
O18   V4    S    
C56   C60   A    
C38   C39   A    
C57   C65   S    
O19   C68   A    
C24   C31   A    
C26   C70   S    
C46   C47   A    
O7    V2    S    
C42   C43   A    
H11   C63   S    
C65   O16   A    
C44   C45   A    
C31   Cl4   S    
C8    C9    A    
C33   C68   S    
C59   C60   A    
C10   C14   A    
C15   C16   A    
C37   C72   S    
C73   N5    T    
C62   C76   S    
V1    O10   S    
C9    C10   A    
V2    O10   S    
