data_mof_unit_53068.cif
_audit_creation_date              2013-03-05T15:55:55-0500
_audit_creation_method            fapswitch 2.2
_symmetry_space_group_name_H-M    P1
_symmetry_Int_Tables_number       1
_space_group_crystal_system       triclinic
_cell_length_a                    21.642123
_cell_length_b                    7.189538
_cell_length_c                    14.93429
_cell_angle_alpha                 90.000487
_cell_angle_beta                  106.805144
_cell_angle_gamma                 90.000139
_cell_volume                      2224.49049844

loop_
_atom_site_label
_atom_site_type_symbol
_atom_site_description
_atom_site_fract_x
_atom_site_fract_y
_atom_site_fract_z
_atom_type_partial_charge
O1    O     O_R   0.335860 0.638190 0.002110 -0.595749
O2    O     O_R   0.664140 0.361810 0.997890 -0.595705
O3    O     O_R   0.164140 0.138190 0.997890 -0.595732
O4    O     O_R   0.835860 0.861810 0.002110 -0.595742
O5    O     O_R   0.217530 0.305920 0.861960 -0.590728
O6    O     O_R   0.782470 0.694080 0.138040 -0.590778
O7    O     O_R   0.282470 0.805920 0.138040 -0.590776
O8    O     O_R   0.717530 0.194080 0.861960 -0.590762
C1    C     C_R   0.206001 0.476877 0.825864 1.022507
C2    C     C_R   0.793995 0.523122 0.174136 1.022473
C3    C     C_R   0.293998 0.976879 0.174135 1.022470
C4    C     C_R   0.706006 0.023120 0.825864 1.022492
O9    O     O_R   0.338690 0.308320 0.993240 -0.601918
O10   O     O_R   0.661310 0.691680 0.006760 -0.601954
O11   O     O_R   0.161310 0.808320 0.006760 -0.601939
O12   O     O_R   0.838690 0.191680 0.993240 -0.601925
O13   O     O_R   0.286170 0.140430 0.130100 -0.583631
O14   O     O_R   0.713830 0.859570 0.869900 -0.583661
O15   O     O_R   0.213830 0.640430 0.869900 -0.583678
O16   O     O_R   0.786170 0.359570 0.130100 -0.583632
C5    C     C_R   0.365041 0.477196 0.998197 0.975184
C6    C     C_R   0.634959 0.522804 0.001803 0.975147
C7    C     C_R   0.134960 0.977195 0.001805 0.975132
C8    C     C_R   0.865041 0.022805 0.998197 0.975151
O17   O     O_3   0.232630 0.472410 0.044750 -0.290347
O18   O     O_3   0.767370 0.527590 0.955250 -0.290348
O19   O     O_3   0.267370 0.972410 0.955250 -0.290341
O20   O     O_3   0.732630 0.027590 0.044750 -0.290332
V1    V     V_3+5 0.253220 0.196620 0.991700 1.196938
V2    V     V_3+5 0.746780 0.803380 0.008300 1.196884
V3    V     V_3+5 0.246780 0.696620 0.008300 1.196878
V4    V     V_3+5 0.753220 0.303380 0.991700 1.196916
C9    C     C_R   0.029784 0.826504 0.002988 -0.127088
C10   C     C_R   0.970217 0.173496 0.997017 -0.127075
C11   C     C_R   0.470191 0.326512 0.996887 -0.126858
C12   C     C_R   0.529809 0.673488 0.003114 -0.126911
H1    H     H_    0.051493 0.690256 0.005110 0.121544
H2    H     H_    0.948507 0.309744 0.994895 0.121548
H3    H     H_    0.448461 0.190270 0.994658 0.121585
H4    H     H_    0.551539 0.809730 0.005343 0.121592
C13   C     C_R   0.964866 0.837897 0.001577 -0.113016
C14   C     C_R   0.035135 0.162104 0.998428 -0.113018
C15   C     C_R   0.535109 0.337903 0.998295 -0.113111
C16   C     C_R   0.464891 0.662097 0.001706 -0.113182
H5    H     H_    0.938898 0.709663 0.002877 0.123847
H6    H     H_    0.061103 0.290337 0.997128 0.123845
H7    H     H_    0.561055 0.209675 0.996885 0.123826
H8    H     H_    0.438945 0.790325 0.003116 0.123830
C17   C     C_R   0.934058 0.011587 0.998590 -0.091727
C18   C     C_R   0.065943 0.988414 0.001414 -0.091731
C19   C     C_R   0.565942 0.511585 0.001409 -0.091785
C20   C     C_R   0.434058 0.488415 0.998592 -0.091782
C21   C     C_R   0.679567 0.013525 0.723984 -0.254942
C22   C     C_R   0.320439 0.986467 0.276015 -0.254955
C23   C     C_R   0.820432 0.513536 0.276016 -0.254935
C24   C     C_R   0.179559 0.486460 0.723984 -0.254935
C25   C     C_R   0.690237 0.990555 0.567742 -0.227340
C26   C     C_R   0.309766 0.009328 0.432259 -0.227189
C27   C     C_R   0.809757 0.490573 0.432256 -0.227297
C28   C     C_R   0.190227 0.509297 0.567736 -0.227209
C29   C     C_R   0.719399 0.005798 0.664221 0.321297
C30   C     C_R   0.280606 0.994161 0.335776 0.321348
C31   C     C_R   0.780598 0.505776 0.335775 0.321318
C32   C     C_R   0.219390 0.494075 0.664216 0.321255
C33   C     C_R   0.612391 0.013213 0.686776 -0.239808
C34   C     C_R   0.387615 0.986758 0.313225 -0.239819
C35   C     C_R   0.887608 0.513288 0.313229 -0.239818
C36   C     C_R   0.112382 0.486832 0.686778 -0.239825
C37   C     C_R   0.582324 0.005439 0.589230 0.118350
C38   C     C_R   0.417680 0.994462 0.410773 0.118342
C39   C     C_R   0.917672 0.505550 0.410776 0.118343
C40   C     C_R   0.082315 0.494560 0.589232 0.118332
C41   C     C_R   0.622661 0.988067 0.529823 -0.062424
C42   C     C_R   0.377342 0.011792 0.470181 -0.062491
C43   C     C_R   0.877334 0.488143 0.470180 -0.062433
C44   C     C_R   0.122651 0.511879 0.529822 -0.062393
C45   C     C_R   0.513676 0.010611 0.549300 0.006917
C46   C     C_R   0.486328 0.989257 0.450705 0.006912
C47   C     C_R   0.986319 0.510767 0.450710 0.006956
C48   C     C_R   0.013667 0.489383 0.549302 0.006911
C49   C     C_R   0.528449 0.961478 0.395236 -0.335251
C50   C     C_R   0.471553 0.038335 0.604771 -0.335286
C51   C     C_R   0.971546 0.461587 0.604769 -0.335253
C52   C     C_R   0.028440 0.538567 0.395243 -0.335340
C53   C     C_R   0.595249 0.966751 0.433096 0.604463
C54   C     C_R   0.404753 0.033037 0.566911 0.604509
C55   C     C_R   0.904745 0.466840 0.566908 0.604470
C56   C     C_R   0.095241 0.533228 0.433098 0.604455
H9    H     H_    0.414891 0.983691 0.263277 0.111330
H10   H     H_    0.585118 0.016328 0.736726 0.111321
H11   H     H_    0.085107 0.483809 0.736728 0.111334
H12   H     H_    0.914884 0.516406 0.263282 0.111318
H13   H     H_    0.720885 0.978982 0.522094 0.198262
H14   H     H_    0.279117 0.020866 0.477907 0.198311
H15   H     H_    0.779108 0.478974 0.477901 0.198266
H16   H     H_    0.220874 0.520777 0.522081 0.198307
H17   H     H_    0.511464 0.933025 0.321434 0.159299
H18   H     H_    0.488534 0.066736 0.678578 0.159287
H19   H     H_    0.988532 0.433124 0.678571 0.159302
H20   H     H_    0.011455 0.567076 0.321446 0.159259
O21   O     O_3   0.633751 0.933310 0.375324 -0.596076
C57   C     C_3   0.642208 0.101652 0.332163 -0.081542
H21   H     H_    0.674138 0.075575 0.287239 0.187194
H22   H     H_    0.666209 0.207335 0.385223 0.148524
H23   H     H_    0.595527 0.155964 0.286558 0.136925
O22   O     O_3   0.366248 0.066369 0.624691 -0.596044
C58   C     C_3   0.357830 0.897985 0.667847 -0.081583
H24   H     H_    0.333854 0.792278 0.614784 0.148542
H25   H     H_    0.325894 0.923968 0.712772 0.187216
H26   H     H_    0.404523 0.843749 0.713451 0.136863
O23   O     O_3   0.866243 0.433371 0.624675 -0.596049
C59   C     C_3   0.857786 0.601697 0.667852 -0.081572
H27   H     H_    0.825847 0.575604 0.712761 0.187160
H28   H     H_    0.833793 0.707404 0.614800 0.148527
H29   H     H_    0.904465 0.655982 0.713473 0.136917
O24   O     O_3   0.133753 0.566652 0.375338 -0.596053
C60   C     C_3   0.142064 0.398412 0.331979 -0.081589
H30   H     H_    0.165896 0.292322 0.384918 0.148731
H31   H     H_    0.174084 0.424409 0.287181 0.187216
H32   H     H_    0.095346 0.344673 0.286216 0.136679
N1    N     N_R   0.211153 0.986563 0.300746 0.216253
O25   O     O_R   0.180883 0.045270 0.217219 -0.471774
O26   O     O_R   0.177243 0.933182 0.355227 -0.385396
N2    N     N_R   0.788853 0.013442 0.699244 0.216267
O27   O     O_R   0.819129 0.954893 0.782798 -0.471734
O28   O     O_R   0.822757 0.066723 0.644738 -0.385432
N3    N     N_R   0.288842 0.486350 0.699235 0.216277
O29   O     O_R   0.319130 0.544907 0.782784 -0.471749
O30   O     O_R   0.322736 0.432986 0.644730 -0.385422
N4    N     N_R   0.711144 0.513343 0.300744 0.216248
O31   O     O_R   0.680879 0.454691 0.217204 -0.471739
O32   O     O_R   0.677229 0.566642 0.355233 -0.385444

loop_
_geom_bond_atom_site_label_1
_geom_bond_atom_site_label_2
_geom_bond_distance
_ccdc_geom_bond_type
O17   V3    1.756400 S    
C51   C55   1.392314 A    
C26   C30   1.400185 A    
O21   C57   1.407860 S    
O19   V1    1.756394 S    
O13   V1    2.022761 S    
C37   C45   1.432466 A    
O23   C59   1.407859 S    
C10   C14   1.401415 A    
C40   C44   1.418679 A    
O15   V3    2.022755 S    
C11   C15   1.401411 A    
C59   H28   1.112220 S    
C45   C46   1.427596 A    
O1    C5    1.327910 A    
C29   N2    1.442693 S    
O9    V1    2.010581 S    
C38   C46   1.432464 A    
C60   H31   1.109431 S    
C47   C52   1.412005 A    
O4    C8    1.327911 A    
C55   O23   1.382823 S    
O22   C58   1.407864 S    
O1    V3    2.001199 S    
C36   H11   1.077023 S    
O24   C60   1.407857 S    
C57   H23   1.113158 S    
O2    V4    2.001197 S    
C14   H6    1.082815 S    
C31   N4    1.442687 S    
C25   C41   1.407480 A    
O3    V1    2.001195 S    
O3    C7    1.327911 A    
C38   C42   1.418694 A    
C21   C29   1.409860 A    
C1    O15   1.333952 A    
C2    O16   1.333947 A    
C23   C31   1.409855 A    
O2    C6    1.327911 A    
C58   H24   1.112225 S    
C24   C32   1.409864 A    
C37   C41   1.418694 A    
O14   V2    2.022762 S    
C21   C33   1.398309 A    
C44   C56   1.402343 A    
C4    C21   1.464150 S    
C36   C40   1.414432 A    
C16   C20   1.410225 A    
O11   C7    1.334325 A    
O12   C8    1.334324 A    
C25   H13   1.083082 S    
C58   H25   1.109436 S    
C54   O22   1.382829 S    
C27   H15   1.083080 S    
O10   V2    2.010577 S    
C48   C51   1.412010 A    
C13   C17   1.410223 A    
C59   H27   1.109439 S    
O7    C3    1.336330 A    
C34   H9    1.077020 S    
O5    V1    2.025576 S    
C33   H10   1.077011 S    
O7    V3    2.025561 S    
C50   H18   1.075870 S    
C52   H20   1.075879 S    
C12   H4    1.082902 S    
C60   H32   1.113134 S    
O18   V4    1.756401 S    
C7    C18   1.494167 S    
C22   C30   1.409846 A    
C9    C18   1.406630 A    
C50   C54   1.392307 A    
C28   C44   1.407472 A    
C9    H1    1.082903 S    
C39   C47   1.432454 A    
O8    V4    2.025562 S    
C56   O24   1.382844 S    
N4    O32   1.301206 A    
N3    O30   1.301200 A    
O5    C1    1.336330 A    
O8    C4    1.336332 A    
C32   N3    1.442697 S    
O9    C5    1.334324 A    
C1    C24   1.464159 S    
C42   C54   1.402351 A    
C25   C29   1.400193 A    
C2    C23   1.464149 S    
C12   C19   1.406628 A    
C41   C53   1.402362 A    
N1    O25   1.300324 A    
C3    C22   1.464143 S    
C14   C18   1.410224 A    
C28   H16   1.083089 S    
C43   C55   1.402360 A    
O6    V2    2.025575 S    
C58   H26   1.113155 S    
C12   C16   1.401412 A    
N3    O29   1.300322 A    
C27   C43   1.407486 A    
C53   O21   1.382830 S    
C26   C42   1.407480 A    
N2    O28   1.301205 A    
O16   V4    2.022753 S    
C8    C17   1.494169 S    
C3    O13   1.333946 A    
C10   C17   1.406630 A    
C30   N1    1.442684 S    
C10   H2    1.082904 S    
C52   C56   1.392326 A    
O6    C2    1.336329 A    
C23   C35   1.398311 A    
O11   V3    2.010581 S    
C22   C34   1.398318 A    
O12   V4    2.010585 S    
C27   C31   1.400193 A    
C57   H22   1.112224 S    
C28   C32   1.400200 A    
C9    C13   1.401415 A    
O10   C6    1.334324 A    
O20   V2    1.756393 S    
N4    O31   1.300322 A    
C26   H14   1.083085 S    
C40   C48   1.432459 A    
C24   C36   1.398322 A    
C60   H30   1.112231 S    
C39   C43   1.418694 A    
C46   C49   1.412008 A    
C15   C19   1.410224 A    
C34   C38   1.414434 A    
C49   H17   1.075882 S    
C45   C50   1.412010 A    
C33   C37   1.414435 A    
C11   H3    1.082901 S    
C35   H12   1.077021 S    
C35   C39   1.414429 A    
C5    C20   1.494165 S    
C57   H21   1.109432 S    
O4    V2    2.001198 S    
N1    O26   1.301197 A    
C47   C48   1.427591 A    
C4    O14   1.333945 A    
C11   C20   1.406630 A    
C13   H5    1.082815 S    
N2    O27   1.300317 A    
C51   H19   1.075882 S    
C15   H7    1.082818 S    
C59   H29   1.113150 S    
C49   C53   1.392303 A    
C16   H8    1.082817 S    
C6    C19   1.494167 S    
