data_mof_unit_8876.cif
_audit_creation_date              2012-12-10T17:16:43-0500
_audit_creation_method            fapswitch 2.2
_symmetry_space_group_name_H-M    P1
_symmetry_Int_Tables_number       1
_space_group_crystal_system       triclinic
_cell_length_a                    10.145723
_cell_length_b                    10.523696
_cell_length_c                    10.886865
_cell_angle_alpha                 91.35906
_cell_angle_beta                  96.443488
_cell_angle_gamma                 78.464404
_cell_volume                      1131.7209535

loop_
_atom_site_label
_atom_site_type_symbol
_atom_type_description
_atom_site_fract_x
_atom_site_fract_y
_atom_site_fract_z
_atom_type_partial_charge
C1    C     C_R   0.442832 0.504608 0.267489 1.007309
C2    C     C_R   0.491423 0.742088 0.487521 0.946873
C3    C     C_R   0.746502 0.053533 0.439126 0.456780
C4    C     C_R   0.254539 0.945901 0.563594 0.460764
C5    C     C_R   0.812127 0.984775 0.342485 0.213135
C6    C     C_R   0.189807 0.014218 0.660915 0.218162
C7    C     C_R   0.749032 0.894379 0.271605 0.237104
C8    C     C_R   0.253109 0.104823 0.731248 0.239968
C9    C     C_R   0.633750 0.858708 0.311233 0.436067
C10   C     C_R   0.367491 0.141191 0.690463 0.428992
C11   C     C_R   0.573659 0.924271 0.412409 -0.143593
C12   C     C_R   0.557163 0.495433 0.732510 1.006738
C13   C     C_R   0.426897 0.075809 0.588897 -0.147010
C14   C     C_R   0.616734 0.034211 0.461625 -0.150443
C15   C     C_R   0.383835 0.965714 0.539940 -0.151617
C16   C     C_R   0.471514 0.881091 0.467020 0.018297
C17   C     C_R   0.528794 0.119033 0.534020 0.021800
C18   C     C_2   0.408546 0.517932 0.136026 -0.316246
C19   C     C_2   0.591436 0.482148 0.863976 -0.319775
C20   C     C_2   0.505019 0.473278 0.062306 0.346278
C21   C     C_2   0.494984 0.526881 0.937693 0.348424
C22   C     C_2   0.068987 0.508094 0.473649 0.346654
C23   C     C_2   0.920424 0.526009 0.496819 0.344716
C24   C     C_R   0.508653 0.257966 0.512808 0.944812
H1    H     H_    0.685501 0.416898 0.895192 0.133032
H2    H     H_    0.015279 0.068795 0.724105 0.375767
H3    H     H_    0.626305 0.725124 0.183399 0.384657
H4    H     H_    0.375438 0.274889 0.818106 0.385272
H5    H     H_    0.302308 0.591425 0.907816 0.335364
H6    H     H_    0.697711 0.408906 0.092259 0.333896
H7    H     H_    0.920222 0.694092 0.573349 0.312341
H8    H     H_    0.034011 0.445727 0.306720 0.313901
H9    H     H_    0.314431 0.583113 0.104825 0.134518
H10   H     H_    0.886395 0.369217 0.400159 0.146090
H11   H     H_    0.126274 0.590226 0.633246 0.148819
H12   H     H_    0.159740 0.098514 0.876538 0.367206
H13   H     H_    0.844081 0.899966 0.127265 0.367594
H14   H     H_    0.900674 0.135262 0.494322 0.381828
H15   H     H_    0.101359 0.861911 0.510893 0.376834
H16   H     H_    0.987283 0.929661 0.280630 0.376180
N1    N     N_2   0.157300 0.551390 0.551120 -0.178467
N2    N     N_2   0.842700 0.448610 0.448880 -0.178154
O1    O     O_R   0.568940 0.489660 0.307530 -0.571188
O2    O     O_3   0.798192 0.838715 0.165444 -0.762305
O3    O     O_3   0.813042 0.127487 0.522051 -0.714010
O4    O     O_3   0.187265 0.872136 0.481088 -0.711334
O5    O     O_3   0.936894 0.007320 0.320208 -0.751228
O6    O     O_3   0.065491 0.991283 0.684174 -0.756545
O7    O     O_3   0.570814 0.767771 0.247601 -0.756270
O8    O     O_3   0.430395 0.232532 0.753422 -0.754987
O9    O     O_3   0.385632 0.622229 0.894355 -0.734069
O10   O     O_3   0.614425 0.377982 0.105632 -0.733640
O11   O     O_3   0.864509 0.626599 0.570245 -0.711768
O12   O     O_R   0.431060 0.510340 0.692470 -0.570378
O13   O     O_3   0.113418 0.446583 0.368249 -0.708418
O14   O     O_R   0.348880 0.522640 0.340350 -0.563011
O15   O     O_R   0.651120 0.477360 0.659650 -0.585512
O16   O     O_R   0.610030 0.300280 0.483580 -0.583447
O17   O     O_R   0.389970 0.699720 0.516420 -0.583984
O18   O     O_R   0.389970 0.333270 0.516400 -0.575173
O19   O     O_R   0.610030 0.666730 0.483600 -0.549752
O20   O     O_3   0.204969 0.160052 0.837973 -0.760294
Zn1   Zn    Zn3+2 0.646940 0.477980 0.478080 1.062883
Zn2   Zn    Zn3+2 0.353060 0.522020 0.521920 1.063566

loop_
_geom_bond_atom_site_label_1
_geom_bond_atom_site_label_2
_ccdc_geom_bond_type
H16   O5    S    
O14   Zn2   S    
C23   O11   S    
C22   O13   S    
C13   C17   A    
C2    C16   S    
C11   C16   A    
H8    O13   S    
H10   N2    S    
C2    O19   A    
H2    O6    S    
O18   Zn2   S    
H13   O2    S    
C1    C18   S    
O1    Zn1   S    
C20   O10   S    
C4    O4    S    
C7    O2    S    
H7    O11   S    
C9    C11   A    
C14   C17   A    
O17   Zn2   S    
C23   N2    D    
C6    O6    S    
C3    C14   A    
H15   O4    S    
H12   O20   S    
C12   O15   A    
C12   C19   S    
C4    C6    A    
C11   C14   A    
C1    O14   A    
C3    O3    S    
O15   Zn1   S    
C18   C20   D    
C13   C15   A    
C4    C15   A    
H11   N1    S    
C18   H9    S    
C5    O5    S    
C17   C24   S    
C19   H1    S    
C15   C16   A    
C22   N1    D    
C24   O16   A    
C7    C9    A    
C21   O9    S    
C9    O7    S    
C20   C21   S    
O12   Zn2   S    
O19   Zn1   S    
H5    O9    S    
O16   Zn1   S    
C5    C7    A    
H6    O10   S    
C2    O17   A    
H14   O3    S    
C6    C8    A    
C24   O18   A    
N1    Zn2   S    
C19   C21   D    
C22   C23   S    
H4    O8    S    
N2    Zn1   S    
C1    O1    A    
C8    C10   A    
C12   O12   A    
H3    O7    S    
C8    O20   S    
C3    C5    A    
C10   C13   A    
C10   O8    S    
