data_mof_unit_59010.cif
_audit_creation_date              2012-12-11T16:20:32-0500
_audit_creation_method            fapswitch 2.2
_symmetry_space_group_name_H-M    P1
_symmetry_Int_Tables_number       1
_space_group_crystal_system       triclinic
_cell_length_a                    6.917263
_cell_length_b                    34.34813
_cell_length_c                    38.367667
_cell_angle_alpha                 99.675987
_cell_angle_beta                  89.619225
_cell_angle_gamma                 90.486715
_cell_volume                      8985.83380503

loop_
_atom_site_label
_atom_site_type_symbol
_atom_type_description
_atom_site_fract_x
_atom_site_fract_y
_atom_site_fract_z
_atom_type_partial_charge
O1    O     O_R   0.494320 0.461440 0.460990 -0.543189
O2    O     O_R   0.821450 0.462560 0.532500 -0.544533
O3    O     O_R   0.994330 0.538560 0.539010 -0.533813
C1    C     C_R   0.651789 0.453961 0.543893 0.708341
O4    O     O_R   0.823870 0.456770 0.460860 -0.546884
O5    O     O_R   0.996760 0.532730 0.466860 -0.545790
C2    C     C_R   0.654890 0.446026 0.447896 0.716717
O6    O     O_R   0.491880 0.467270 0.533140 -0.548324
O7    O     O_3   0.661650 0.524930 0.502050 -0.347536
V1    V     V_3+5 0.935500 0.495380 0.499620 1.437856
O8    O     O_R   0.326630 0.537440 0.467500 -0.507577
C3    C     C_R   0.158539 0.546317 0.456345 0.753288
O9    O     O_R   0.324210 0.543230 0.539140 -0.525956
C4    C     C_R   0.155574 0.553211 0.552636 0.719908
V2    V     V_3+5 0.435810 0.504620 0.500380 1.499386
O10   O     O_3   0.159790 0.475070 0.497950 -0.383285
C5    C     C_R   0.136485 0.832335 0.794668 0.576389
N1    N     N_R   0.040724 0.824473 0.824225 -0.557428
C6    C     C_R   0.956204 0.788200 0.824548 0.576778
C7    C     C_R   0.966249 0.758288 0.794544 -0.028693
C8    C     C_R   0.064953 0.765940 0.764165 -0.013985
C9    C     C_R   0.150912 0.803238 0.764131 -0.029234
C10   C     C_R   0.881074 0.720909 0.794274 -0.137532
C11   C     C_R   0.894631 0.691520 0.764358 -0.125781
C12   C     C_R   0.993326 0.698790 0.733922 -0.019378
C13   C     C_R   0.078024 0.736202 0.733772 -0.013559
C14   C     C_R   0.176075 0.743921 0.703328 -0.033376
C15   C     C_R   0.261035 0.781292 0.703577 -0.138857
C16   C     C_R   0.248808 0.810564 0.733610 -0.130357
C17   C     C_R   0.010179 0.669533 0.703589 0.635780
N2    N     N_R   0.104970 0.677531 0.674050 -0.527826
C18   C     C_R   0.186609 0.713958 0.673393 0.698215
O11   O     O_2   0.216133 0.868321 0.794646 -0.518357
O12   O     O_2   0.864601 0.780860 0.853939 -0.520288
H1    H     H_    0.804000 0.714180 0.817221 0.173718
H2    H     H_    0.827530 0.663082 0.765180 0.170741
O13   O     O_2   0.932803 0.633373 0.703606 -0.526149
O14   O     O_2   0.277347 0.721113 0.643872 -0.514129
H3    H     H_    0.337667 0.788036 0.680589 0.170595
H4    H     H_    0.316402 0.838958 0.732809 0.174826
C19   C     C_R   0.975206 0.642044 0.616971 -0.015335
C20   C     C_R   0.990903 0.610986 0.588099 -0.234035
H5    H     H_    0.882410 0.607690 0.567538 0.189677
C21   C     C_R   0.145439 0.584446 0.584675 -0.170722
C22   C     C_R   0.286680 0.588226 0.611729 0.324342
C23   C     C_R   0.275969 0.619688 0.640661 -0.023286
C24   C     C_R   0.120815 0.646874 0.643282 0.193067
C25   C     C_R   0.198842 0.869681 0.873009 -0.080329
H6    H     H_    0.338588 0.858441 0.863440 0.125370
C26   C     C_R   0.188824 0.899153 0.902992 -0.193322
H7    H     H_    0.322184 0.910098 0.915809 0.129491
C27   C     C_R   0.009121 0.914223 0.916226 -0.059203
C28   C     C_R   0.839795 0.898905 0.898636 -0.192788
H8    H     H_    0.699068 0.909841 0.907910 0.127695
C29   C     C_R   0.850185 0.869529 0.868546 -0.077155
H9    H     H_    0.718264 0.858486 0.855244 0.128712
C30   C     C_R   0.029783 0.854677 0.855426 0.372151
C31   C     C_R   0.885705 0.849533 0.170926 0.608620
O15   O     O_2   0.736988 0.874818 0.171444 -0.521272
N3    N     N_R   0.029783 0.849059 0.146202 -0.570323
C32   C     C_R   0.183881 0.824095 0.145809 0.641774
C33   C     C_R   0.858257 0.875272 0.098506 -0.069117
C34   C     C_R   0.849037 0.901002 0.073865 -0.204602
C35   C     C_R   0.166556 0.926736 0.091829 -0.196242
C36   C     C_R   0.173819 0.901639 0.116971 -0.084455
C37   C     C_R   0.020416 0.875430 0.120449 0.341544
C38   C     C_R   0.050968 0.798900 0.196854 -0.130142
C39   C     C_R   0.892332 0.824238 0.196183 -0.006261
C40   C     C_R   0.743328 0.824148 0.220865 -0.114123
C41   C     C_R   0.200223 0.799030 0.171523 -0.078470
C42   C     C_R   0.003721 0.926850 0.070087 -0.055327
H10   H     H_    0.287422 0.946496 0.089776 0.133738
H11   H     H_    0.299318 0.902631 0.133831 0.156518
H12   H     H_    0.619126 0.843155 0.220796 0.167516
C43   C     C_R   0.149839 0.573505 0.429965 -0.087515
C44   C     C_R   0.915461 0.748484 0.273909 -0.006886
C45   C     C_R   0.230469 0.723464 0.249731 0.066753
C46   C     C_R   0.077439 0.723604 0.274778 0.061130
C47   C     C_R   0.767064 0.747287 0.299284 -0.271328
C48   C     C_R   0.776326 0.722954 0.325189 0.413081
C49   C     C_R   0.937890 0.698462 0.326345 -0.081512
C50   C     C_R   0.086927 0.698548 0.300959 -0.130372
C51   C     C_R   0.246245 0.673413 0.301763 -0.010919
C52   C     C_R   0.254549 0.648595 0.327377 0.615770
N4    N     N_R   0.111119 0.649234 0.352231 -0.561769
C53   C     C_R   0.955416 0.673721 0.352309 0.649011
C54   C     C_R   0.285759 0.625646 0.400822 -0.163945
C55   C     C_R   0.301228 0.600559 0.426297 0.321781
C56   C     C_R   0.987312 0.572210 0.407895 -0.265691
C57   C     C_R   0.975467 0.596705 0.382388 -0.091505
C58   C     C_R   0.124079 0.623740 0.378635 0.314787
O16   O     O_2   0.819536 0.674484 0.377792 -0.479967
C59   C     C_R   0.906498 0.773721 0.247879 0.066509
C60   C     C_R   0.059748 0.773643 0.222883 0.060042
C61   C     C_R   0.221446 0.748676 0.223691 -0.006901
C62   C     C_R   0.749308 0.799451 0.245980 -0.187576
H13   H     H_    0.399556 0.646863 0.398268 0.174753
H14   H     H_    0.639459 0.764940 0.299792 0.122191
H15   H     H_    0.626587 0.801634 0.263506 0.130458
O17   O     O_2   0.319498 0.823209 0.120265 -0.479939
C63   C     C_R   0.361125 0.774327 0.172528 0.411647
H16   H     H_    0.721964 0.900260 0.057419 0.141362
H17   H     H_    0.739033 0.855099 0.100451 0.177246
C64   C     C_R   0.387776 0.697769 0.251642 -0.187768
C65   C     C_R   0.394596 0.673317 0.276936 -0.115294
O18   O     O_2   0.404529 0.623661 0.327150 -0.519146
C66   C     C_R   0.369785 0.749833 0.198300 -0.272238
H18   H     H_    0.510184 0.695482 0.234043 0.130006
H19   H     H_    0.869751 0.551668 0.409951 0.162784
H20   H     H_    0.519101 0.654401 0.277063 0.167481
H21   H     H_    0.850198 0.594513 0.365368 0.165058
H22   H     H_    0.496979 0.732048 0.197691 0.121813
C67   C     C_R   0.499810 0.316559 0.641193 0.582906
O19   O     O_2   0.406167 0.306856 0.610171 -0.521078
N5    N     N_R   0.606944 0.350774 0.647769 -0.556904
C68   C     C_R   0.703405 0.361055 0.679134 0.580109
C69   C     C_R   0.796191 0.384037 0.606195 -0.078253
C70   C     C_R   0.807340 0.409104 0.580992 -0.189016
C71   C     C_R   0.461236 0.419000 0.585670 -0.191733
C72   C     C_R   0.450524 0.394036 0.610964 -0.075283
C73   C     C_R   0.617847 0.376351 0.621459 0.370048
C74   C     C_R   0.588730 0.300951 0.698540 -0.045203
C75   C     C_R   0.488601 0.291130 0.666415 -0.032686
C76   C     C_R   0.376438 0.256593 0.660493 -0.149602
C77   C     C_R   0.695541 0.336468 0.705064 -0.032156
C78   C     C_R   0.639930 0.426935 0.570379 -0.052980
H23   H     H_    0.329507 0.432304 0.578314 0.126883
H24   H     H_    0.311888 0.388647 0.622611 0.130530
H25   H     H_    0.290226 0.249205 0.636798 0.176617
C79   C     C_R   0.513698 0.073876 0.930119 -0.084732
C80   C     C_R   0.493632 0.211179 0.740589 -0.002277
C81   C     C_R   0.644922 0.263363 0.784276 0.053973
C82   C     C_R   0.563026 0.224903 0.775351 0.006715
C83   C     C_R   0.443371 0.170425 0.731240 0.341656
C84   C     C_R   0.436013 0.146220 0.757399 -0.209751
C85   C     C_R   0.486494 0.160713 0.792428 -0.074407
C86   C     C_R   0.552523 0.199877 0.801392 -0.049605
C87   C     C_R   0.609272 0.213931 0.836461 -0.022032
C88   C     C_R   0.594203 0.188953 0.861999 0.577940
N6    N     N_R   0.532025 0.150577 0.852720 -0.548298
C89   C     C_R   0.479808 0.136203 0.818487 0.603042
C90   C     C_R   0.353461 0.105310 0.885663 -0.091068
C91   C     C_R   0.348389 0.079864 0.910527 -0.280356
C92   C     C_R   0.686709 0.094215 0.924236 0.326426
C93   C     C_R   0.691259 0.118985 0.898347 -0.175665
C94   C     C_R   0.525279 0.124861 0.879068 0.339228
O20   O     O_2   0.424213 0.098109 0.809447 -0.517425
C95   C     C_R   0.483084 0.238498 0.716370 0.046273
C96   C     C_R   0.580929 0.275410 0.724214 0.052090
C97   C     C_R   0.669088 0.287248 0.757611 0.036969
C98   C     C_R   0.371500 0.231093 0.685159 -0.106648
H26   H     H_    0.214548 0.064471 0.914183 0.171252
H27   H     H_    0.223170 0.109636 0.871338 0.142605
H28   H     H_    0.394459 0.115479 0.749953 0.171407
H29   H     H_    0.271299 0.206634 0.679897 0.184346
O21   O     O_2   0.804902 0.395212 0.685454 -0.518591
C99   C     C_R   0.791907 0.346694 0.737292 -0.123675
H30   H     H_    0.947277 0.414452 0.569818 0.130709
H31   H     H_    0.926619 0.370506 0.613848 0.133098
H32   H     H_    0.877733 0.373525 0.742845 0.172065
C100  C     C_R   0.698631 0.276745 0.819797 -0.172691
C101  C     C_R   0.679562 0.252601 0.845359 -0.125271
O22   O     O_2   0.640195 0.203118 0.895911 -0.519295
C102  C     C_R   0.778234 0.322755 0.763149 -0.176460
H33   H     H_    0.750685 0.306352 0.828923 0.125733
H34   H     H_    0.722098 0.264387 0.872210 0.172184
H35   H     H_    0.824540 0.133843 0.893170 0.127715
H36   H     H_    0.859433 0.332328 0.786982 0.126524
C103  C     C_R   0.516076 0.166514 0.207750 0.574434
N7    N     N_R   0.543521 0.176412 0.174869 -0.562019
C104  C     C_R   0.583898 0.214653 0.171037 0.578228
C105  C     C_R   0.597532 0.244679 0.200914 -0.032796
C106  C     C_R   0.570397 0.234912 0.234834 -0.012529
C107  C     C_R   0.529596 0.195518 0.238382 -0.030725
C108  C     C_R   0.637378 0.284140 0.197700 -0.135609
C109  C     C_R   0.649673 0.313457 0.227709 -0.132405
C110  C     C_R   0.623294 0.304046 0.261721 -0.031735
C111  C     C_R   0.584139 0.264602 0.265276 -0.016850
C112  C     C_R   0.558794 0.254775 0.299203 -0.048826
C113  C     C_R   0.519044 0.215307 0.302421 -0.131102
C114  C     C_R   0.504101 0.186077 0.272396 -0.133276
C115  C     C_R   0.634088 0.333153 0.292325 0.586038
N8    N     N_R   0.609078 0.323221 0.325284 -0.544189
C116  C     C_R   0.573943 0.284735 0.329100 0.650482
O23   O     O_2   0.477387 0.128683 0.210848 -0.516178
O24   O     O_2   0.609693 0.223674 0.138425 -0.512336
H37   H     H_    0.658829 0.292540 0.171971 0.175154
H38   H     H_    0.680109 0.343522 0.224143 0.174497
O25   O     O_2   0.667503 0.371138 0.289092 -0.515861
O26   O     O_2   0.554848 0.275380 0.361727 -0.501391
H39   H     H_    0.498713 0.206865 0.328161 0.175662
H40   H     H_    0.472868 0.156040 0.275954 0.174388
C117  C     C_R   0.455435 0.363436 0.377897 0.416835
C118  C     C_R   0.468445 0.393646 0.407734 -0.289300
H41   H     H_    0.341469 0.401181 0.424079 0.128492
C119  C     C_R   0.643757 0.413894 0.416616 -0.078443
C120  C     C_R   0.806670 0.403551 0.395047 -0.210448
H42   H     H_    0.943539 0.418683 0.400985 0.138587
C121  C     C_R   0.793933 0.374065 0.365111 -0.163010
H43   H     H_    0.920365 0.366963 0.348573 0.172531
C122  C     C_R   0.619445 0.353709 0.356324 0.353859
C123  C     C_R   0.699765 0.132480 0.125266 -0.086935
H44   H     H_    0.839199 0.144829 0.134017 0.116448
C124  C     C_R   0.689120 0.102698 0.095509 -0.186145
H45   H     H_    0.821784 0.092778 0.081833 0.133308
C125  C     C_R   0.509580 0.086047 0.083568 -0.055863
C126  C     C_R   0.341107 0.100058 0.102250 -0.191245
H46   H     H_    0.200624 0.087904 0.093961 0.127536
C127  C     C_R   0.352310 0.129662 0.132183 -0.081871
H47   H     H_    0.221324 0.139885 0.146294 0.117567
C128  C     C_R   0.531667 0.146077 0.143891 0.382361
O27   O     O_R   0.662230 0.032770 0.966890 -0.505078
O28   O     O_R   0.330090 0.043230 0.039150 -0.543757
O29   O     O_R   0.157350 0.967260 0.033130 -0.542021
C129  C     C_R   0.498982 0.053989 0.052164 0.705248
O30   O     O_R   0.332650 0.037450 0.967510 -0.542881
O31   O     O_R   0.159930 0.961430 0.960980 -0.541395
C130  C     C_R   0.502523 0.046407 0.956375 0.753841
O32   O     O_R   0.659640 0.038600 0.039040 -0.538947
O33   O     O_3   0.492510 0.975090 0.997960 -0.376706
V3    V     V_3+5 0.218600 0.004620 0.000380 1.447429
O34   O     O_R   0.830050 0.956730 0.960830 -0.544477
C131  C     C_R   0.999013 0.946069 0.947790 0.710592
O35   O     O_R   0.827490 0.962520 0.032470 -0.544727
C132  C     C_R   0.995584 0.953935 0.043799 0.699265
V4    V     V_3+5 0.718310 0.995320 0.999580 1.455755
O36   O     O_3   0.994270 0.024900 0.002040 -0.349959
O37   O     O_3   0.460431 0.602642 0.448108 -0.628398
H48   H     H_    0.552846 0.622584 0.441761 0.308835
O38   O     O_3   0.626897 0.722630 0.349313 -0.601058
H49   H     H_    0.523354 0.740789 0.344553 0.291757
O39   O     O_3   0.510747 0.774674 0.148445 -0.601605
H50   H     H_    0.613870 0.756380 0.153115 0.291146
O40   O     O_3   0.419546 0.153625 0.696176 -0.645483
H51   H     H_    0.387627 0.125153 0.694335 0.301325
O41   O     O_3   0.848103 0.090180 0.944291 -0.634122
H52   H     H_    0.951550 0.108128 0.938298 0.287385
O42   O     O_3   0.284333 0.343348 0.369088 -0.630664
H53   H     H_    0.186776 0.352253 0.387702 0.287236
C133  C     C_2   0.803708 0.668566 0.618928 0.858348
O43   O     O_2   0.669254 0.660065 0.598412 -0.543082
O44   O     O_R   0.794010 0.703238 0.643827 -0.651145
H54   H     H_    0.670557 0.718464 0.642130 0.336237
O45   O     O_3   0.436707 0.561749 0.610764 -0.609849
H55   H     H_    0.390891 0.535369 0.599214 0.289201
C134  C     C_2   0.422844 0.622532 0.669245 0.864905
O46   O     O_2   0.480763 0.654748 0.684139 -0.558947
O47   O     O_R   0.494659 0.588140 0.679281 -0.617294
H56   H     H_    0.590669 0.593820 0.699366 0.334047

loop_
_geom_bond_atom_site_label_1
_geom_bond_atom_site_label_2
_ccdc_geom_bond_type
C32   C41   A    
O31   C131  A    
C118  C119  A    
C104  C105  A    
C6    O12   S    
C19   C20   A    
C63   C66   A    
C59   C60   A    
N5    C73   S    
C9    C16   A    
C54   C58   A    
C69   H31   S    
C81   C97   A    
C66   H22   S    
C90   C94   A    
C47   H14   S    
C6    C7    A    
O3    V1    S    
C95   C98   A    
C123  C128  A    
C1    O6    A    
C80   C83   A    
O35   C132  A    
C100  C101  A    
N4    C58   S    
C41   C63   A    
O33   V3    S    
C84   C85   A    
C125  C129  S    
C106  C107  A    
O41   H52   S    
C82   C86   A    
C13   C14   A    
C85   C89   A    
C84   H28   S    
C20   C21   A    
C15   C16   A    
C65   H20   S    
C44   C46   A    
C33   H17   S    
O30   C130  A    
O5    C3    A    
C17   N2    A    
C114  H40   S    
C77   C99   A    
C93   H35   S    
N7    C104  A    
O34   V4    S    
C31   N3    A    
N5    C68   A    
C62   H15   S    
C56   H19   S    
C36   H11   S    
O45   H55   S    
C79   C130  S    
N1    C6    A    
C103  N7    A    
C35   C42   A    
C120  C121  A    
O29   C132  A    
C69   C73   A    
C81   C100  A    
O37   H48   S    
O9    C4    A    
O30   V3    S    
O28   V3    S    
C60   C61   A    
N7    C128  S    
C51   C52   A    
C39   C40   A    
C38   C60   A    
C26   C27   A    
C103  C107  A    
C44   C47   A    
O1    V2    S    
C115  O25   S    
C18   O14   S    
C79   C92   A    
O7    V1    S    
C134  O46   D    
C49   C53   A    
C117  C118  A    
C105  C108  A    
O27   V4    S    
C40   C62   A    
C28   C29   A    
C118  H41   S    
C72   C73   A    
N3    C37   S    
C121  H43   S    
O32   V4    S    
N2    C24   S    
C8    C9    A    
C61   C66   A    
C42   C132  S    
O38   H49   S    
C5    O11   S    
C57   H21   S    
C34   H16   S    
O47   H56   S    
C88   O22   S    
C107  C114  A    
C64   C65   A    
C19   C24   A    
C8    C13   A    
C109  H38   S    
C74   C75   A    
O28   C129  A    
O31   V3    S    
C134  O47   S    
C90   C91   A    
C123  H44   S    
C33   C37   A    
C89   O20   S    
C126  H46   S    
N8    C122  S    
C74   C96   A    
C111  C112  A    
C75   C76   A    
C11   C12   A    
C23   C134  S    
C127  H47   S    
C71   C72   A    
N6    C94   S    
O4    C2    A    
C101  H34   S    
C125  C126  A    
C48   C49   A    
O6    V2    S    
C15   H3    S    
C26   H7    S    
C12   C13   A    
C45   C46   A    
C45   C61   A    
C49   C50   A    
C38   C39   A    
C17   O13   S    
C67   N5    A    
N3    C32   A    
C98   H29   S    
O42   H53   S    
O2    C1    A    
N8    C116  A    
C33   C34   A    
O29   V3    S    
C129  O32   A    
C44   C59   A    
O40   H51   S    
C46   C50   A    
N1    C30   S    
C52   O18   S    
N2    C18   A    
C67   C75   A    
C7    C10   A    
C102  H36   S    
O8    C3    A    
C7    C8    A    
C29   H9    S    
C133  O44   S    
C5    N1    A    
C83   O40   S    
O33   V4    S    
C80   C95   A    
C87   C101  A    
C11   H2    S    
C27   C28   A    
C52   N4    A    
C92   O41   S    
C79   C91   A    
C110  C115  A    
C22   O45   S    
C121  C122  A    
N4    C53   A    
O3    C4    A    
C123  C124  A    
C27   C131  S    
C31   C39   A    
C109  C110  A    
C76   C98   A    
C34   C42   A    
C110  C111  A    
C59   C62   A    
O8    V2    S    
C68   C77   A    
C29   C30   A    
C116  O26   S    
C70   H30   S    
C32   O17   S    
C20   H5    S    
C99   C102  A    
O2    V1    S    
C93   C94   A    
C64   H18   S    
C105  C106  A    
C4    C21   S    
C67   O19   S    
C112  C116  A    
C12   C17   A    
C23   C24   A    
C91   H26   S    
C104  O24   S    
O44   H54   S    
C14   C18   A    
O1    C2    A    
C21   C22   A    
C48   O38   S    
C119  C120  A    
C80   C82   A    
C113  H39   S    
O35   V4    S    
O5    V1    S    
C88   N6    A    
C72   H24   S    
C28   H8    S    
C83   C84   A    
C112  C113  A    
C99   H32   S    
C97   C102  A    
C86   C87   A    
V3    O36   S    
C10   H1    S    
C5    C9    A    
C1    C78   S    
C92   C93   A    
C38   C41   A    
C35   C36   A    
C74   C77   A    
O9    V2    S    
C56   C57   A    
C103  O23   S    
O4    V1    S    
C108  C109  A    
C53   O16   S    
C96   C97   A    
C124  C125  A    
C57   C58   A    
C55   O37   S    
C117  C122  A    
O27   C130  A    
C106  C111  A    
N6    C89   A    
V2    O10   S    
C16   H4    S    
C25   C26   A    
C133  O43   D    
C127  C128  A    
C76   H25   S    
C81   C82   A    
C63   O39   S    
C95   C96   A    
C36   C37   A    
C90   H27   S    
O7    V2    S    
C120  H42   S    
C31   O15   S    
C117  O42   S    
C68   O21   S    
C87   C88   A    
C43   C56   A    
C10   C11   A    
C108  H37   S    
C47   C48   A    
C71   C78   A    
C22   C23   A    
C43   C55   A    
C25   C30   A    
C124  H45   S    
C54   C55   A    
V4    O36   S    
C25   H6    S    
C3    C43   S    
C14   C15   A    
C126  C127  A    
C40   H12   S    
C85   C86   A    
C45   C64   A    
V1    O10   S    
C51   C65   A    
C70   C78   A    
C50   C51   A    
C2    C119  S    
C69   C70   A    
O34   C131  A    
C100  H33   S    
C113  C114  A    
C115  N8    A    
C35   H10   S    
O39   H50   S    
C54   H13   S    
C19   C133  S    
C71   H23   S    
