data_mof_unit_32463.cif
_audit_creation_date              2012-12-11T14:07:40-0500
_audit_creation_method            fapswitch 2.2
_symmetry_space_group_name_H-M    P1
_symmetry_Int_Tables_number       1
_space_group_crystal_system       monoclinic
_cell_length_a                    19.756276
_cell_length_b                    17.136546
_cell_length_c                    15.383279
_cell_angle_alpha                 90.0
_cell_angle_beta                  53.570172
_cell_angle_gamma                 90.0
_cell_volume                      4190.33836057

loop_
_atom_site_label
_atom_site_type_symbol
_atom_type_description
_atom_site_fract_x
_atom_site_fract_y
_atom_site_fract_z
_atom_type_partial_charge
C1    C     C_R   0.374541 0.196638 0.996050 -0.134666
C2    C     C_R   0.705721 0.848387 0.989670 0.152896
C3    C     C_R   0.205721 0.651613 0.989670 0.152895
C4    C     C_R   0.205721 0.348387 0.989670 0.152895
C5    C     C_R   0.612518 0.818539 0.694533 0.041029
C6    C     C_R   0.612518 0.181460 0.694533 0.041029
C7    C     C_R   0.112518 0.318539 0.694533 0.041029
C8    C     C_R   0.112518 0.681461 0.694533 0.041029
C9    C     C_3   0.199250 0.135781 0.516945 -0.512684
C10   C     C_3   0.199250 0.864218 0.516945 -0.512684
C11   C     C_3   0.699251 0.635781 0.516946 -0.512684
C12   C     C_R   0.374541 0.803362 0.996050 -0.134666
C13   C     C_3   0.699250 0.364218 0.516945 -0.512684
C14   C     C_3   0.142129 0.182914 0.621641 -0.409648
C15   C     C_3   0.142129 0.817085 0.621641 -0.409647
C16   C     C_3   0.642130 0.682914 0.621641 -0.409648
C17   C     C_3   0.642129 0.317085 0.621641 -0.409647
C18   C     C_3   0.311993 0.240339 0.444857 0.680568
C19   C     C_3   0.311993 0.759661 0.444857 0.680567
C20   C     C_3   0.811993 0.740339 0.444857 0.680567
C21   C     C_3   0.811993 0.259661 0.444857 0.680568
C22   C     C_3   0.701971 0.747252 0.409179 -0.373369
C23   C     C_R   0.874541 0.696638 0.996050 -0.134667
C24   C     C_3   0.701972 0.252747 0.409178 -0.373370
C25   C     C_3   0.201971 0.247252 0.409179 -0.373371
C26   C     C_3   0.201972 0.752747 0.409178 -0.373370
C27   C     C_3   0.258386 0.191948 0.420887 0.204315
C28   C     C_3   0.258386 0.808052 0.420887 0.204314
C29   C     C_3   0.758386 0.691948 0.420888 0.204314
C30   C     C_3   0.758386 0.308052 0.420887 0.204314
C31   C     C_3   0.661425 0.771182 0.596851 0.313028
C32   C     C_3   0.661425 0.228818 0.596851 0.313028
C33   C     C_3   0.161425 0.271182 0.596851 0.313029
C34   C     C_R   0.874541 0.303362 0.996050 -0.134667
C35   C     C_3   0.161425 0.728818 0.596851 0.313028
C36   C     C_3   0.754772 0.786966 0.548276 -0.513099
C37   C     C_3   0.754772 0.213035 0.548277 -0.513099
C38   C     C_3   0.254772 0.286965 0.548277 -0.513100
C39   C     C_3   0.254772 0.713035 0.548277 -0.513100
C40   C     C_R   0.354844 0.823482 0.218604 -0.017118
C41   C     C_R   0.354844 0.176518 0.218604 -0.017118
C42   C     C_R   0.854844 0.323482 0.218604 -0.017118
C43   C     C_R   0.854844 0.676518 0.218604 -0.017117
C44   C     C_3   0.644712 0.794374 0.513300 -0.403752
C45   C     C_R   0.664887 0.911632 0.059126 -0.147009
C46   C     C_3   0.644713 0.205625 0.513300 -0.403752
C47   C     C_3   0.144713 0.294374 0.513300 -0.403752
C48   C     C_3   0.144713 0.705625 0.513300 -0.403751
C49   C     C_2   0.277959 0.690490 0.970369 -0.196712
C50   C     C_2   0.277959 0.309510 0.970369 -0.196711
C51   C     C_2   0.777959 0.190490 0.970369 -0.196712
C52   C     C_2   0.777959 0.809510 0.970369 -0.196712
C53   C     C_2   0.807372 0.255451 0.910641 -0.210737
C54   C     C_2   0.807372 0.744549 0.910641 -0.210737
C55   C     C_2   0.307372 0.755451 0.910641 -0.210738
C56   C     C_R   0.664887 0.088368 0.059126 -0.147009
C57   C     C_2   0.307372 0.244549 0.910641 -0.210738
C58   C     C_R   0.364458 0.889670 0.897842 -0.143986
C59   C     C_R   0.364458 0.110330 0.897842 -0.143986
C60   C     C_R   0.864457 0.389670 0.897842 -0.143986
C61   C     C_R   0.864457 0.610329 0.897842 -0.143986
C62   C     C_R   0.366216 0.088034 0.316428 -0.143044
C63   C     C_R   0.366216 0.911966 0.316428 -0.143043
C64   C     C_R   0.866216 0.588034 0.316428 -0.143044
C65   C     C_R   0.866216 0.411966 0.316428 -0.143043
C66   C     C_R   0.345963 0.185932 0.934856 0.161244
C67   C     C_R   0.164887 0.411632 0.059126 -0.147009
C68   C     C_R   0.345963 0.814068 0.934856 0.161244
C69   C     C_R   0.845963 0.685932 0.934856 0.161245
C70   C     C_R   0.845963 0.314068 0.934856 0.161245
C71   C     C_R   0.317367 0.851715 0.321961 0.014834
C72   C     C_R   0.317367 0.148285 0.321961 0.014834
C73   C     C_R   0.817367 0.351715 0.321961 0.014834
C74   C     C_R   0.817367 0.648285 0.321961 0.014834
C75   C     C_R   0.657673 0.180163 0.958554 -0.099392
C76   C     C_R   0.657673 0.819837 0.958554 -0.099392
C77   C     C_R   0.157673 0.680163 0.958555 -0.099391
C78   C     C_R   0.164887 0.588368 0.059126 -0.147009
C79   C     C_R   0.157673 0.319837 0.958554 -0.099392
C80   C     C_R   0.602900 0.802416 0.789373 -0.145747
C81   C     C_R   0.602901 0.197583 0.789373 -0.145746
C82   C     C_R   0.102901 0.302416 0.789373 -0.145747
C83   C     C_R   0.102901 0.697584 0.789373 -0.145746
C84   C     C_R   0.594657 0.103906 0.694979 -0.138047
C85   C     C_R   0.594657 0.896094 0.694979 -0.138047
C86   C     C_R   0.094657 0.603906 0.694979 -0.138047
C87   C     C_R   0.094657 0.396094 0.694979 -0.138046
C88   C     C_R   0.705721 0.151613 0.989670 0.152896
F1    F     F_    0.365552 0.290724 0.360030 -0.705175
F2    F     F_    0.365552 0.709276 0.360030 -0.705174
F3    F     F_    0.865552 0.790724 0.360029 -0.705175
F4    F     F_    0.865552 0.209276 0.360030 -0.705175
H1    H     H_    0.383793 0.251418 0.022290 0.088847
H2    H     H_    0.574896 0.328801 0.657514 0.177366
H3    H     H_    0.074897 0.171199 0.657514 0.177366
H4    H     H_    0.074896 0.828801 0.657514 0.177366
H5    H     H_    0.153771 0.162990 0.680428 0.153089
H6    H     H_    0.153770 0.837010 0.680428 0.153089
H7    H     H_    0.653772 0.662990 0.680428 0.153089
H8    H     H_    0.653770 0.337010 0.680428 0.153089
H9    H     H_    0.351521 0.200881 0.455223 -0.002333
H10   H     H_    0.351521 0.799119 0.455223 -0.002333
H11   H     H_    0.851521 0.700882 0.455223 -0.002332
H12   H     H_    0.383793 0.748581 0.022290 0.088847
H13   H     H_    0.851521 0.299119 0.455223 -0.002333
H14   H     H_    0.767990 0.770343 0.606886 0.123074
H15   H     H_    0.767990 0.229658 0.606887 0.123074
H16   H     H_    0.267989 0.270342 0.606886 0.123074
H17   H     H_    0.267990 0.729658 0.606887 0.123074
H18   H     H_    0.740384 0.789232 0.341792 0.184303
H19   H     H_    0.740385 0.210767 0.341792 0.184304
H20   H     H_    0.240385 0.289233 0.341792 0.184304
H21   H     H_    0.240385 0.710767 0.341792 0.184304
H22   H     H_    0.663328 0.712987 0.391923 0.162895
H23   H     H_    0.883793 0.751418 0.022290 0.088847
H24   H     H_    0.663329 0.287011 0.391923 0.162896
H25   H     H_    0.163329 0.212988 0.391923 0.162896
H26   H     H_    0.163329 0.787011 0.391923 0.162896
H27   H     H_    0.577567 0.784048 0.547534 0.160686
H28   H     H_    0.577568 0.215950 0.547533 0.160686
H29   H     H_    0.077567 0.284050 0.547533 0.160686
H30   H     H_    0.077568 0.715950 0.547533 0.160686
H31   H     H_    0.658632 0.857076 0.491385 0.161086
H32   H     H_    0.658634 0.142923 0.491385 0.161087
H33   H     H_    0.158634 0.357077 0.491385 0.161087
H34   H     H_    0.883793 0.248581 0.022290 0.088847
H35   H     H_    0.158634 0.642923 0.491385 0.161087
H36   H     H_    0.338366 0.772523 0.193967 0.089245
H37   H     H_    0.338366 0.227477 0.193967 0.089245
H38   H     H_    0.838366 0.272523 0.193967 0.089245
H39   H     H_    0.838366 0.727477 0.193967 0.089246
H40   H     H_    0.769041 0.850374 0.531035 0.210935
H41   H     H_    0.769042 0.149626 0.531036 0.210935
H42   H     H_    0.269042 0.350373 0.531036 0.210935
H43   H     H_    0.269042 0.649626 0.531036 0.210935
H44   H     H_    0.296248 0.672760 0.021335 0.125369
H45   H     H_    0.160168 0.101335 0.500579 0.197578
H46   H     H_    0.296248 0.327240 0.021335 0.125369
H47   H     H_    0.796248 0.172760 0.021335 0.125369
H48   H     H_    0.796248 0.827240 0.021335 0.125369
H49   H     H_    0.790817 0.272153 0.857504 0.123813
H50   H     H_    0.790817 0.727847 0.857504 0.123813
H51   H     H_    0.290817 0.772153 0.857504 0.123813
H52   H     H_    0.290817 0.227847 0.857504 0.123813
H53   H     H_    0.359632 0.915650 0.837615 0.088997
H54   H     H_    0.359632 0.084350 0.837615 0.088997
H55   H     H_    0.859632 0.415650 0.837615 0.088997
H56   H     H_    0.160168 0.898664 0.500579 0.197578
H57   H     H_    0.859632 0.584350 0.837615 0.088997
H58   H     H_    0.363217 0.061922 0.382243 0.079505
H59   H     H_    0.363217 0.938078 0.382243 0.079505
H60   H     H_    0.863217 0.561922 0.382243 0.079505
H61   H     H_    0.863217 0.438078 0.382243 0.079505
H62   H     H_    0.667325 0.231202 0.911381 0.087121
H63   H     H_    0.667325 0.768797 0.911381 0.087121
H64   H     H_    0.167325 0.731202 0.911381 0.087121
H65   H     H_    0.167325 0.268797 0.911381 0.087121
H66   H     H_    0.607163 0.746403 0.817976 0.087978
H67   H     H_    0.660168 0.601335 0.500580 0.197577
H68   H     H_    0.607163 0.253596 0.817975 0.087977
H69   H     H_    0.107163 0.246403 0.817975 0.087978
H70   H     H_    0.107164 0.753596 0.817975 0.087977
H71   H     H_    0.590026 0.072360 0.637979 0.086301
H72   H     H_    0.590026 0.927640 0.637979 0.086301
H73   H     H_    0.090025 0.572360 0.637979 0.086301
H74   H     H_    0.090025 0.427640 0.637979 0.086301
H75   H     H_    0.681819 0.938244 0.107161 0.092305
H76   H     H_    0.681819 0.061756 0.107161 0.092304
H77   H     H_    0.181819 0.438244 0.107161 0.092305
H78   H     H_    0.660168 0.398665 0.500579 0.197577
H79   H     H_    0.181819 0.561756 0.107161 0.092304
H80   H     H_    0.235540 0.093506 0.529121 0.154150
H81   H     H_    0.235540 0.906494 0.529121 0.154150
H82   H     H_    0.735541 0.593506 0.529121 0.154150
H83   H     H_    0.735540 0.406494 0.529121 0.154150
H84   H     H_    0.574897 0.671198 0.657515 0.177366
N1    N     N_R   0.408680 0.130160 0.995800 -0.048194
N2    N     N_R   0.403730 0.078230 0.935950 -0.041112
N3    N     N_R   0.903730 0.421770 0.935950 -0.041112
N4    N     N_R   0.903730 0.578230 0.935950 -0.041112
N5    N     N_R   0.426630 0.075970 0.212960 -0.037828
N6    N     N_R   0.426630 0.924030 0.212960 -0.037828
N7    N     N_R   0.926630 0.575970 0.212960 -0.037828
N8    N     N_R   0.926630 0.424030 0.212960 -0.037828
N9    N     N_R   0.591320 0.134600 0.004200 -0.047530
N10   N     N_R   0.591320 0.865400 0.004200 -0.047530
N11   N     N_R   0.091320 0.634600 0.004200 -0.047530
N12   N     N_R   0.408680 0.869840 0.995800 -0.048194
N13   N     N_R   0.091320 0.365400 0.004200 -0.047530
N14   N     N_R   0.578320 0.867660 0.846880 -0.037865
N15   N     N_R   0.578320 0.132340 0.846880 -0.037865
N16   N     N_R   0.078320 0.367660 0.846880 -0.037865
N17   N     N_R   0.078320 0.632340 0.846880 -0.037865
N18   N     N_R   0.573370 0.074390 0.787040 -0.036075
N19   N     N_R   0.573370 0.925610 0.787040 -0.036075
N20   N     N_R   0.073370 0.574390 0.787040 -0.036075
N21   N     N_R   0.073370 0.425610 0.787040 -0.036075
N22   N     N_R   0.596270 0.927870 0.064040 -0.042577
N23   N     N_R   0.908680 0.630160 0.995800 -0.048194
N24   N     N_R   0.596270 0.072130 0.064040 -0.042577
N25   N     N_R   0.096270 0.427870 0.064040 -0.042577
N26   N     N_R   0.096270 0.572130 0.064040 -0.042577
N27   N     N_R   0.908680 0.369840 0.995800 -0.048194
N28   N     N_R   0.421680 0.867580 0.153120 -0.047303
N29   N     N_R   0.421680 0.132420 0.153120 -0.047303
N30   N     N_R   0.921680 0.367580 0.153120 -0.047303
N31   N     N_R   0.921680 0.632420 0.153120 -0.047303
N32   N     N_R   0.403730 0.921770 0.935950 -0.041112
Ni1   Ni    Ni4+2 0.500000 0.131190 0.000000 0.220805
Ni2   Ni    Ni4+2 0.500000 0.868810 0.000000 0.220805
Ni3   Ni    Ni4+2 0.000000 0.631190 0.000000 0.220805
Ni4   Ni    Ni4+2 0.000000 0.368810 0.000000 0.220805
Ni5   Ni    Ni4+2 0.488650 0.000000 0.862740 0.202386
Ni6   Ni    Ni4+2 0.988650 0.500000 0.862740 0.202386
Ni7   Ni    Ni4+2 0.511350 0.000000 0.137260 0.220888
Ni8   Ni    Ni4+2 0.011350 0.500000 0.137260 0.220888

loop_
_geom_bond_atom_site_label_1
_geom_bond_atom_site_label_2
_ccdc_geom_bond_type
C6    C32   S    
N32   Ni5   S    
C85   H72   S    
C40   C71   A    
C8    C83   A    
N7    N31   A    
C23   C69   A    
N5    N29   A    
C57   C66   S    
C8    C86   A    
C14   C33   S    
C55   C68   S    
C3    C49   S    
C58   H53   S    
C11   H67   S    
C20   H11   S    
C39   H43   S    
C67   H77   S    
C16   C31   S    
C12   C68   A    
N11   N26   A    
N3    N27   A    
C64   H60   S    
N6    N28   A    
C19   C39   S    
C22   C29   S    
C48   H35   S    
C37   H15   S    
C10   C15   S    
C36   H40   S    
C59   C66   A    
C48   H30   S    
C19   H10   S    
N17   Ni3   S    
C87   H74   S    
C81   H68   S    
N22   Ni7   S    
C61   C69   A    
C40   H36   S    
C23   N23   A    
N24   Ni7   S    
C65   C73   A    
C11   C16   S    
N1    Ni1   S    
N16   Ni4   S    
C86   H73   S    
C81   N15   A    
C65   H61   S    
C25   H20   S    
C86   N20   A    
C19   F2    S    
C64   N7    A    
C9    H45   S    
C7    C87   A    
C40   N28   A    
C84   N18   A    
C22   H18   S    
C56   C88   A    
C60   H55   S    
C60   C70   A    
C34   C70   A    
N23   Ni3   S    
N2    Ni5   S    
C26   C48   S    
N9    Ni1   S    
C5    C85   A    
C16   H84   S    
C43   C74   A    
C63   N6    A    
N31   Ni3   S    
C7    C33   S    
C12   N12   A    
C46   H32   S    
C75   N9    A    
C24   H19   S    
N12   Ni2   S    
N18   Ni5   S    
C14   H3    S    
C53   C70   S    
C15   C35   S    
C52   C54   D    
C47   H33   S    
C39   H17   S    
C20   C29   S    
C2    C45   A    
C20   F3    S    
C22   C44   S    
C6    C84   A    
C31   C44   S    
N8    N30   A    
C36   H14   S    
C41   N29   A    
C26   H26   S    
C13   C30   S    
C55   H51   S    
C4    C79   A    
N5    Ni7   S    
C15   H4    S    
C30   C73   S    
C85   N19   A    
C76   N10   A    
C29   C74   S    
C18   F1    S    
C44   H27   S    
N13   N25   A    
C45   N22   A    
N16   N21   A    
C43   N31   A    
C4    C50   S    
C51   C53   D    
C8    C35   S    
C20   C36   S    
C83   N17   A    
C35   C39   S    
C9    C14   S    
N25   Ni8   S    
C67   N25   A    
N20   Ni6   S    
C58   N32   A    
C80   H66   S    
C18   C38   S    
N29   Ni1   S    
C34   N27   A    
C34   H34   S    
N17   N20   A    
C56   H76   S    
C1    C66   A    
C46   H28   S    
C42   H38   S    
C32   C37   S    
C5    C80   A    
C19   C28   S    
C45   H75   S    
C63   H59   S    
C35   C48   S    
C84   H71   S    
C2    C52   S    
N14   N19   A    
N15   Ni1   S    
C41   C72   A    
C58   C68   A    
C13   H78   S    
C54   H50   S    
C83   H70   S    
C63   C71   A    
C24   H24   S    
N10   Ni2   S    
N6    Ni7   S    
C77   N11   A    
C1    N1    A    
C37   H41   S    
N27   Ni4   S    
C28   C71   S    
C87   N21   A    
C15   H6    S    
C3    C77   A    
C60   N3    A    
C2    C76   A    
C9    C27   S    
C14   H5    S    
C80   N14   A    
C10   C28   S    
N7    Ni8   S    
C13   H83   S    
C25   C47   S    
N12   N32   A    
C11   H82   S    
C62   H58   S    
C57   H52   S    
C82   N16   A    
C65   N8    A    
C50   C57   D    
C32   C46   S    
C49   H44   S    
C59   N2    A    
C18   C27   S    
C78   N26   A    
N11   Ni3   S    
N13   Ni4   S    
C25   H25   S    
C51   C88   S    
C79   H65   S    
C4    C67   A    
C50   H46   S    
C16   H7    S    
C12   H12   S    
C82   H69   S    
C25   C27   S    
C21   C30   S    
C44   H31   S    
C76   H63   S    
C26   C28   S    
C33   C38   S    
C13   C17   S    
C62   C72   A    
C24   C46   S    
N4    Ni6   S    
N14   Ni2   S    
N15   N18   A    
C77   H64   S    
N4    N23   A    
C49   C55   D    
C62   N5    A    
C41   H37   S    
C75   H62   S    
C54   C69   S    
C5    C31   S    
C10   H81   S    
C33   C47   S    
N3    Ni6   S    
C43   H39   S    
C78   H79   S    
C42   C73   A    
C42   N30   A    
C53   H49   S    
C38   H42   S    
N9    N24   A    
C38   H16   S    
C17   H8    S    
C24   C30   S    
C26   H21   S    
N8    Ni8   S    
N21   Ni6   S    
C47   H29   S    
C23   H23   S    
C52   H48   S    
C59   H54   S    
N30   Ni4   S    
C75   C88   A    
C22   H22   S    
C7    C82   A    
C21   C37   S    
C11   C29   S    
C61   N4    A    
C1    H1    S    
N1    N2    A    
C79   N13   A    
N28   Ni2   S    
C6    C81   A    
C17   C32   S    
C64   C74   A    
C31   C36   S    
N10   N22   A    
C9    H80   S    
C17   H2    S    
N26   Ni8   S    
C3    C78   A    
C61   H57   S    
C18   H9    S    
C21   H13   S    
C27   C72   S    
N19   Ni5   S    
C10   H56   S    
C56   N24   A    
C21   F4    S    
C51   H47   S    
