data_mof_unit_15774.cif
_audit_creation_date              2012-12-10T17:44:30-0500
_audit_creation_method            fapswitch 2.2
_symmetry_space_group_name_H-M    P1
_symmetry_Int_Tables_number       1
_space_group_crystal_system       triclinic
_cell_length_a                    9.904293
_cell_length_b                    10.617277
_cell_length_c                    15.388573
_cell_angle_alpha                 92.149949
_cell_angle_beta                  68.56658
_cell_angle_gamma                 89.668216
_cell_volume                      1504.90840868

loop_
_atom_site_label
_atom_site_type_symbol
_atom_type_description
_atom_site_fract_x
_atom_site_fract_y
_atom_site_fract_z
_atom_type_partial_charge
C1    C     C_R   0.509286 0.736766 0.483239 0.972169
C2    C     C_R   0.395251 0.407369 0.918369 0.028479
C3    C     C_R   0.245826 0.433327 0.970669 0.066428
C4    C     C_R   0.484631 0.363505 0.965030 0.058143
C5    C     C_R   0.443818 0.392624 0.060368 0.078227
C6    C     C_R   0.296375 0.418093 0.112896 -0.121170
C7    C     C_R   0.197235 0.431448 0.068683 -0.111015
C8    C     C_R   0.607241 0.284482 0.921094 -0.189528
C9    C     C_R   0.695972 0.247044 0.969128 0.012579
C10   C     C_R   0.672496 0.304408 0.058399 0.049547
C11   C     C_R   0.550382 0.386281 0.100750 0.027624
C12   C     C_R   0.410909 0.490924 0.675829 0.941160
C13   C     C_R   0.770448 0.288112 0.104237 -0.183080
C14   C     C_R   0.748857 0.351221 0.189553 0.359218
C15   C     C_R   0.544303 0.466884 0.177091 -0.131128
C16   C     C_R   0.329313 0.871624 0.390613 -0.226685
C17   C     C_R   0.251132 0.940022 0.348406 -0.100691
C18   C     C_R   0.274329 0.068140 0.335728 0.461846
C19   C     C_R   0.366862 0.130145 0.372227 -0.234668
C20   C     C_R   0.438041 0.064286 0.421829 0.061977
C21   C     C_R   0.428156 0.932101 0.424645 0.071293
C22   C     C_R   0.529171 0.865780 0.452363 -0.207228
C23   C     C_R   0.506823 0.258845 0.490730 0.913771
C24   C     C_R   0.656828 0.926691 0.448152 0.340790
C25   C     C_R   0.649911 0.055763 0.466608 -0.077881
C26   C     C_R   0.528834 0.124865 0.462729 -0.227088
C27   C     C_R   0.799678 0.689875 0.600079 -0.104881
C28   C     C_R   0.847692 0.802983 0.624754 0.437576
C29   C     C_R   0.993344 0.815663 0.609990 -0.249727
C30   C     C_R   0.081290 0.706548 0.592072 -0.059275
C31   C     C_R   0.044167 0.598236 0.547300 0.061373
C32   C     C_R   0.898884 0.595080 0.548414 0.108078
C33   C     C_R   0.956407 0.410430 0.452263 -0.028771
C34   C     C_R   0.589755 0.491269 0.323919 0.881604
C35   C     C_R   0.098515 0.409406 0.453356 -0.033830
C36   C     C_R   0.358275 0.461627 0.775956 -0.158038
C37   C     C_R   0.637116 0.443757 0.225974 -0.226263
C38   C     C_R   0.151261 0.457244 0.922568 -0.033563
C39   C     C_R   0.208911 0.454320 0.824866 -0.228034
C40   C     C_R   0.453859 0.438251 0.823549 -0.072729
H1    H     H_    0.084268 0.442514 0.112241 0.227492
H2    H     H_    0.864493 0.226243 0.074954 0.210769
H3    H     H_    0.318695 0.771014 0.388860 0.210449
H4    H     H_    0.179102 0.891802 0.320300 0.208977
H5    H     H_    0.390798 0.227400 0.355468 0.167279
H6    H     H_    0.926186 0.338453 0.412174 0.227607
H7    H     H_    0.685159 0.679241 0.622449 0.215175
H8    H     H_    0.025222 0.901231 0.637664 0.204960
H9    H     H_    0.173929 0.335837 0.414912 0.171785
H10   H     H_    0.136352 0.457067 0.787095 0.234401
H11   H     H_    0.255627 0.418291 0.188289 0.222998
H12   H     H_    0.627402 0.243903 0.851811 0.214049
N1    N     N_R   0.856800 0.501200 0.500850 -0.106989
N2    N     N_R   0.142390 0.501280 0.500880 -0.120959
O1    O     O_R   0.385310 0.683220 0.500000 -0.623510
O2    O     O_R   0.614640 0.683250 0.500010 -0.593577
O3    O     O_R   0.319840 0.499980 0.632240 -0.610887
O4    O     O_R   0.549160 0.500000 0.632250 -0.612114
O5    O     O_R   0.385360 0.316750 0.499990 -0.629409
O6    O     O_R   0.614690 0.316780 0.500000 -0.589254
O7    O     O_R   0.450840 0.500000 0.367750 -0.609646
O8    O     O_R   0.680160 0.500020 0.367760 -0.551871
Zn1   Zn    Zn3+2 0.346880 0.499980 0.499990 0.981945
Zn2   Zn    Zn3+2 0.653120 0.500020 0.500010 1.041246
Cl1   Cl    Cl    0.827311 0.845167 0.411847 -0.552196
Cl2   Cl    Cl    0.195419 0.149010 0.268218 -0.551098
C41   C     C_2   0.768453 0.111946 0.491598 1.030669
O9    O     O_2   0.892703 0.108172 0.434636 -0.563547
O10   O     O_R   0.738976 0.164637 0.581343 -0.712883
H13   H     H_    0.829867 0.195294 0.590434 0.362268
Cl3   Cl    Cl    0.721861 0.922020 0.686177 -0.519240
C42   C     C_2   0.462031 0.588750 0.194134 0.921480
O11   O     O_2   0.517595 0.678560 0.147625 -0.570893
O12   O     O_R   0.321161 0.599892 0.260556 -0.805595
H14   H     H_    0.272091 0.682820 0.257972 0.344555
C43   C     C_2   0.130616 0.695545 0.670573 0.983617
O13   O     O_2   0.235664 0.753793 0.672637 -0.613143
O14   O     O_R   0.035769 0.643575 0.751676 -0.777509
H15   H     H_    0.060962 0.667373 0.808267 0.352425
Cl4   Cl    Cl    0.862038 0.305703 0.248846 -0.575630
C44   C     C_2   0.813789 0.152560 0.922244 0.943066
O15   O     O_2   0.882099 0.156025 0.838182 -0.576349
O16   O     O_R   0.842426 0.056189 0.972965 -0.769491
H16   H     H_    0.923714 0.996902 0.932766 0.371045
C45   C     C_2   0.995847 0.495585 0.969421 0.880801
O17   O     O_2   0.909298 0.467928 0.932313 -0.589675
O18   O     O_R   0.950143 0.572646 0.051028 -0.781774
H17   H     H_    0.843072 0.595935 0.073534 0.375311
C46   C     C_2   0.611210 0.465772 0.781836 0.939768
O19   O     O_2   0.658020 0.558126 0.810613 -0.549098
O20   O     O_R   0.705883 0.383762 0.713136 -0.759982
H18   H     H_    0.810673 0.410155 0.693522 0.345576

loop_
_geom_bond_atom_site_label_1
_geom_bond_atom_site_label_2
_ccdc_geom_bond_type
C8    C9    A    
O18   H17   S    
C16   C21   A    
C34   C37   S    
C19   C20   A    
C25   C41   S    
C4    C8    A    
C44   O15   D    
C45   O17   D    
C23   O5    A    
C15   C42   S    
C5    C6    A    
C28   C29   A    
C1    O2    A    
C43   O14   S    
C5    C11   A    
C3    C7    A    
C30   C31   A    
N1    Zn2   S    
N2    Zn1   S    
C34   O8    A    
C18   C19   A    
C23   C26   S    
O7    Zn1   S    
C15   C37   A    
O8    Zn2   S    
C11   C15   A    
O16   H16   S    
C3    C38   A    
C16   C17   A    
O1    Zn1   S    
C35   H9    S    
O2    Zn2   S    
C14   Cl4   S    
C40   C46   S    
C12   C36   S    
C9    C10   A    
C8    H12   S    
C12   O4    A    
C1    C22   S    
C13   C14   A    
C35   N2    A    
C33   N1    A    
C33   H6    S    
C13   H2    S    
C44   O16   S    
O3    Zn1   S    
C45   O18   S    
O4    Zn2   S    
C23   O6    A    
O12   H14   S    
C29   H8    S    
C41   O9    D    
C36   C40   A    
C24   C25   A    
C42   O12   S    
O20   H18   S    
O14   H15   S    
C4    C5    A    
C38   C45   S    
C25   C26   A    
C34   O7    A    
C41   O10   S    
C2    C4    A    
C29   C30   A    
C30   C43   S    
C31   C32   A    
C17   C18   A    
C43   O13   D    
C16   H3    S    
C24   Cl1   S    
C12   O3    A    
C6    H11   S    
C22   C24   A    
C28   Cl3   S    
C46   O20   S    
C32   N1    A    
C27   H7    S    
C27   C32   A    
C36   C39   A    
C42   O11   D    
C10   C13   A    
C19   H5    S    
C6    C7    A    
C18   Cl2   S    
O5    Zn1   S    
O6    Zn2   S    
C2    C3    A    
C1    O1    A    
C17   H4    S    
C14   C37   A    
C38   C39   A    
C20   C26   A    
C33   C35   A    
C7    H1    S    
C31   N2    A    
O10   H13   S    
C10   C11   A    
C2    C40   A    
C39   H10   S    
C20   C21   A    
C27   C28   A    
C46   O19   D    
C21   C22   A    
C9    C44   S    
