data_mof_unit_31465.cif
_audit_creation_date              2012-12-10T17:43:32-0500
_audit_creation_method            fapswitch 2.2
_symmetry_space_group_name_H-M    P1
_symmetry_Int_Tables_number       1
_space_group_crystal_system       triclinic
_cell_length_a                    15.001857
_cell_length_b                    10.616615
_cell_length_c                    9.950029
_cell_angle_alpha                 90.136279
_cell_angle_beta                  90.558551
_cell_angle_gamma                 91.876576
_cell_volume                      1583.79962994

loop_
_atom_site_label
_atom_site_type_symbol
_atom_type_description
_atom_site_fract_x
_atom_site_fract_y
_atom_site_fract_z
_atom_type_partial_charge
C1    C     C_R   0.500273 0.260815 0.499489 0.870855
C2    C     C_R   0.186713 0.460345 0.616709 -0.279605
C3    C     C_R   0.231209 0.494433 0.499040 -0.067699
C4    C     C_R   0.326946 0.498869 0.499483 0.847106
C5    C     C_R   0.184327 0.523215 0.381742 -0.275839
C6    C     C_R   0.332603 0.124662 0.511272 -0.253009
C7    C     C_R   0.251777 0.056262 0.518240 -0.141903
C8    C     C_R   0.250727 0.924664 0.523443 0.258988
C9    C     C_R   0.331396 0.862285 0.519333 -0.171904
C10   C     C_R   0.413553 0.930629 0.509718 0.048296
C11   C     C_R   0.414404 0.062354 0.507204 0.059678
C12   C     C_R   0.906548 0.513704 0.385639 0.117406
C13   C     C_R   0.497386 0.127897 0.496752 -0.088577
C14   C     C_R   0.577700 0.066082 0.477546 0.175990
C15   C     C_R   0.575847 0.936564 0.481213 -0.211113
C16   C     C_R   0.499142 0.738996 0.500053 0.885390
C17   C     C_R   0.495457 0.870954 0.499655 -0.130349
C18   C     C_R   0.381688 0.337539 0.138308 -0.189170
C19   C     C_R   0.321102 0.259830 0.068386 -0.204033
C20   C     C_R   0.319048 0.260632 0.928840 0.207785
C21   C     C_R   0.380292 0.337669 0.859123 -0.157831
C22   C     C_R   0.441425 0.419684 0.927014 0.081125
C23   C     C_R   0.957967 0.411402 0.736205 -0.217892
C24   C     C_R   0.441653 0.419820 0.071265 0.149679
C25   C     C_R   0.555602 0.576731 0.074161 -0.115126
C26   C     C_R   0.556139 0.578013 0.931415 0.230211
C27   C     C_R   0.672864 0.492241 0.501127 0.892547
C28   C     C_R   0.814831 0.515340 0.388508 -0.309963
C29   C     C_R   0.768582 0.477636 0.503648 -0.093869
C30   C     C_R   0.814446 0.430541 0.617902 0.136423
C31   C     C_R   0.908197 0.440010 0.619773 0.107709
C32   C     C_R   0.953661 0.479272 0.502190 0.012887
C33   C     C_3   0.164324 0.849842 0.531703 -0.919844
C34   C     C_R   0.050300 0.418632 0.735107 -0.234705
C35   C     C_3   0.250668 0.179512 0.855567 -0.925060
C36   C     C_3   0.766730 0.365181 0.734281 -0.901335
C37   C     C_3   0.620371 0.669967 0.865735 -0.828674
C38   C     C_3   0.664825 0.136306 0.450851 -0.890537
C39   C     C_R   0.094696 0.453975 0.618046 0.122986
C40   C     C_R   0.046712 0.484090 0.500776 0.079842
C41   C     C_R   0.091957 0.519473 0.382140 0.114636
C42   C     C_R   0.044292 0.551309 0.266421 -0.226246
C43   C     C_R   0.951772 0.549358 0.268471 -0.203883
H1    H     H_    0.779357 0.548429 0.300517 0.170298
H2    H     H_    0.106417 0.912079 0.538064 0.239030
H3    H     H_    0.155754 0.789743 0.440813 0.251425
H4    H     H_    0.164864 0.788760 0.622153 0.250599
H5    H     H_    0.636991 0.885951 0.469008 0.139501
H6    H     H_    0.379161 0.331072 0.244892 0.213904
H7    H     H_    0.274972 0.199294 0.123690 0.162517
H8    H     H_    0.265550 0.078595 0.869426 0.261170
H9    H     H_    0.183268 0.197037 0.895325 0.237279
H10   H     H_    0.249541 0.201355 0.746906 0.239028
H11   H     H_    0.800988 0.277414 0.761022 0.228611
H12   H     H_    0.330262 0.226289 0.507571 0.127467
H13   H     H_    0.766556 0.428701 0.823045 0.239832
H14   H     H_    0.697832 0.331846 0.711463 0.264217
H15   H     H_    0.584339 0.739904 0.806171 0.263701
H16   H     H_    0.660194 0.725105 0.941505 0.189474
H17   H     H_    0.669247 0.620525 0.804752 0.261129
H18   H     H_    0.926608 0.385439 0.829963 0.162673
H19   H     H_    0.223546 0.437654 0.707242 0.171481
H20   H     H_    0.078506 0.578776 0.175089 0.148698
H21   H     H_    0.720517 0.071346 0.436367 0.236949
H22   H     H_    0.658729 0.194148 0.358607 0.253216
H23   H     H_    0.190071 0.106427 0.520213 0.144556
H24   H     H_    0.682317 0.198468 0.536810 0.232790
H25   H     H_    0.329199 0.760466 0.522151 0.138641
H26   H     H_    0.600452 0.638895 0.131202 0.148887
H27   H     H_    0.378442 0.330987 0.752427 0.205216
H28   H     H_    0.087005 0.396511 0.825974 0.152563
H29   H     H_    0.219544 0.550433 0.291079 0.169682
H30   H     H_    0.915551 0.575741 0.178594 0.143694
N1    N     N_R   0.499150 0.498800 0.142780 -0.134143
N2    N     N_R   0.499120 0.498720 0.857170 -0.117132
O1    O     O_R   0.500000 0.316780 0.614690 -0.638475
O2    O     O_R   0.499990 0.316750 0.385360 -0.632903
O3    O     O_R   0.367850 0.499980 0.614680 -0.642922
O4    O     O_R   0.367840 0.499960 0.385350 -0.641633
O5    O     O_R   0.500010 0.683250 0.614640 -0.615098
O6    O     O_R   0.500000 0.683220 0.385310 -0.608544
O7    O     O_R   0.632160 0.500040 0.614650 -0.618313
O8    O     O_R   0.632150 0.500020 0.385320 -0.624391
Zn1   Zn    Zn3+2 0.500010 0.500020 0.653130 0.929723
Zn2   Zn    Zn3+2 0.499990 0.499980 0.346870 0.934227

loop_
_geom_bond_atom_site_label_1
_geom_bond_atom_site_label_2
_ccdc_geom_bond_type
C43   H30   S    
C35   H10   S    
C1    O2    A    
C41   C42   A    
C19   C20   A    
C6    H12   S    
O5    Zn1   S    
O1    Zn1   S    
C7    C8    A    
C12   C28   A    
C18   C24   A    
C22   N2    A    
C28   C29   A    
C18   C19   A    
C12   C43   A    
C30   C31   A    
N2    Zn1   S    
C27   C29   S    
C10   C17   A    
C33   H2    S    
C25   N1    A    
C20   C35   S    
C2    C39   A    
C8    C9    A    
C9    C10   A    
C37   H15   S    
O2    Zn2   S    
C13   C14   A    
C12   C32   A    
C33   H3    S    
C15   H5    S    
C38   H21   S    
C34   C39   A    
C4    O4    A    
C36   H14   S    
C6    C11   A    
C16   C17   S    
C25   C26   A    
C28   H1    S    
C16   O5    A    
C23   C31   A    
C4    O3    A    
C29   C30   A    
C36   H13   S    
C14   C38   S    
C31   C32   A    
C38   H22   S    
C23   C34   A    
C26   N2    A    
C38   H24   S    
C37   H16   S    
C40   C41   A    
O8    Zn2   S    
O7    Zn1   S    
C35   H8    S    
C33   H4    S    
C22   C24   A    
C25   H26   S    
C42   C43   A    
C3    C4    S    
O4    Zn2   S    
C15   C17   A    
C5    C41   A    
C1    O1    A    
C27   O7    A    
C3    C5    A    
C26   C37   S    
C6    C7    A    
C5    H29   S    
C30   C36   S    
C21   H27   S    
C27   O8    A    
C2    C3    A    
C9    H25   S    
C7    H23   S    
C11   C13   A    
C19   H7    S    
C24   N1    A    
C34   H28   S    
C16   O6    A    
C8    C33   S    
C32   C40   A    
N1    Zn2   S    
C37   H17   S    
C36   H11   S    
C10   C11   A    
C39   C40   A    
O3    Zn1   S    
C23   H18   S    
C1    C13   S    
C20   C21   A    
C35   H9    S    
C14   C15   A    
C21   C22   A    
C42   H20   S    
O6    Zn2   S    
C2    H19   S    
C18   H6    S    
