data_mof_unit_10951.cif
_audit_creation_date              2012-12-10T17:33:55-0500
_audit_creation_method            fapswitch 2.2
_symmetry_space_group_name_H-M    P1
_symmetry_Int_Tables_number       1
_space_group_crystal_system       triclinic
_cell_length_a                    10.658177
_cell_length_b                    12.032292
_cell_length_c                    12.839701
_cell_angle_alpha                 93.389368
_cell_angle_beta                  91.203043
_cell_angle_gamma                 85.77988
_cell_volume                      1639.02683075

loop_
_atom_site_label
_atom_site_type_symbol
_atom_type_description
_atom_site_fract_x
_atom_site_fract_y
_atom_site_fract_z
_atom_type_partial_charge
C1    C     C_R   0.493830 0.522703 0.700284 0.933256
C2    C     C_3   0.121378 0.499376 0.496340 -0.019087
C3    C     C_3   0.081688 0.377901 0.500819 -0.415576
C4    C     C_3   0.064897 0.553056 0.396026 -0.227296
C5    C     C_R   0.506554 0.464531 0.188703 -0.046850
C6    C     C_R   0.483754 0.538686 0.811728 -0.084808
C7    C     C_R   0.385455 0.622240 0.967943 -0.250082
C8    C     C_R   0.399018 0.621325 0.860554 -0.017123
C9    C     C_R   0.552808 0.460630 0.870010 -0.235769
C10   C     C_R   0.535864 0.459748 0.975805 0.157087
C11   C     C_R   0.453447 0.542613 0.025201 0.167141
C12   C     C_R   0.742177 0.499630 0.499701 1.000786
C13   C     C_R   0.441090 0.545462 0.131735 -0.196358
C14   C     C_R   0.583330 0.378431 0.139893 -0.139565
C15   C     C_R   0.599446 0.376893 0.032977 -0.168881
C16   C     C_R   0.404612 0.952279 0.384810 -0.314659
C17   C     C_R   0.411316 0.836631 0.398377 0.031488
C18   C     C_R   0.535144 0.859497 0.552070 0.028799
C19   C     C_R   0.529998 0.975787 0.541779 0.084668
C20   C     C_R   0.465271 0.023433 0.456890 0.090970
C21   C     C_R   0.462997 0.140773 0.447251 -0.077574
C22   C     C_R   0.585952 0.159806 0.602875 0.150289
C23   C     C_R   0.502135 0.477922 0.299786 0.931686
C24   C     C_R   0.588729 0.044736 0.614795 -0.384988
C25   C     C_R   0.257838 0.499856 0.498791 0.853251
C26   C     C_3   0.925616 0.569090 0.594960 0.181657
C27   C     C_3   0.069955 0.568180 0.594194 -0.447401
C28   C     C_3   0.939485 0.377380 0.498439 -0.328511
C29   C     C_3   0.918936 0.552556 0.396975 0.094872
C30   C     C_3   0.878655 0.498925 0.497708 -0.038755
H1    H     H_    0.908980 0.326711 0.428379 0.207923
H2    H     H_    0.121040 0.323171 0.434782 0.170393
H3    H     H_    0.382420 0.612100 0.170745 0.185550
H4    H     H_    0.634864 0.316117 0.184829 0.174979
H5    H     H_    0.320984 0.684574 0.006870 0.152996
H6    H     H_    0.661823 0.312158 0.995340 0.150375
H7    H     H_    0.618672 0.399033 0.832565 0.194217
H8    H     H_    0.412177 0.178549 0.382906 0.130170
H9    H     H_    0.885963 0.657061 0.591420 0.115297
H10   H     H_    0.353041 0.985389 0.318539 0.151858
H11   H     H_    0.638248 0.008814 0.680990 0.150886
H12   H     H_    0.364982 0.782114 0.342263 0.143362
H13   H     H_    0.586525 0.822318 0.616498 0.147685
H14   H     H_    0.097554 0.655682 0.594362 0.169978
H15   H     H_    0.112302 0.532297 0.665968 0.212645
H16   H     H_    0.910614 0.335505 0.567829 0.262812
H17   H     H_    0.118804 0.341216 0.574020 0.215379
H18   H     H_    0.879916 0.641118 0.399396 0.136390
H19   H     H_    0.087806 0.642226 0.400033 0.158858
N1    N     N_R   0.523380 0.207800 0.519350 -0.112864
N2    N     N_R   0.476620 0.792180 0.480650 -0.105874
O1    O     O_R   0.506240 0.421700 0.658830 -0.616100
O2    O     O_R   0.491240 0.609310 0.646410 -0.567734
O3    O     O_R   0.692710 0.406190 0.506230 -0.559668
O4    O     O_R   0.677700 0.593810 0.493810 -0.645864
O5    O     O_R   0.508760 0.390690 0.353590 -0.641682
O6    O     O_R   0.493760 0.578300 0.341170 -0.618242
O7    O     O_R   0.322300 0.406190 0.506190 -0.641368
O8    O     O_R   0.307290 0.593810 0.493770 -0.616971
Zn1   Zn    Zn3+2 0.510020 0.374730 0.508290 0.985582
Zn2   Zn    Zn3+2 0.489980 0.625270 0.491710 1.001067
Cl1   Cl    Cl    0.874172 0.521084 0.715866 -0.597231
C31   C     C_2   0.122441 0.498801 0.297017 0.521745
H20   H     H_    0.119641 0.409812 0.279084 0.085782
O9    O     O_2   0.170900 0.555265 0.235377 -0.603112
C32   C     C_2   0.316390 0.702928 0.804201 0.381356
H21   H     H_    0.216620 0.712194 0.820856 0.075385
O10   O     O_2   0.359288 0.766180 0.745593 -0.545599
C33   C     C_2   0.650712 0.223610 0.686109 0.446845
H22   H     H_    0.639733 0.203921 0.766711 0.014563
O11   O     O_2   0.724793 0.291235 0.666584 -0.538850
Cl2   Cl    Cl    0.850024 0.488578 0.280492 -0.645585

loop_
_geom_bond_atom_site_label_1
_geom_bond_atom_site_label_2
_ccdc_geom_bond_type
C14   H4    S    
C3    H2    S    
C32   O10   D    
C31   O9    D    
C13   H3    S    
C29   C30   S    
C28   H16   S    
C5    C14   A    
C9    C10   A    
C22   C33   S    
C5    C13   A    
C19   C20   A    
C5    C23   S    
C22   N1    A    
C4    H19   S    
C16   C20   A    
C29   Cl2   S    
N1    Zn1   S    
C27   H15   S    
C6    C9    A    
C28   C30   S    
C19   C24   A    
C26   Cl1   S    
C23   O5    A    
O3    Zn1   S    
C18   H13   S    
O6    Zn2   S    
C24   H11   S    
C11   C13   A    
C4    C31   S    
C17   N2    A    
C26   C27   S    
C2    C27   S    
O2    Zn2   S    
O1    Zn1   S    
C16   H10   S    
C2    C4    S    
O4    Zn2   S    
C3    H17   S    
C21   N1    A    
C18   N2    A    
C26   C30   S    
C2    C25   S    
C2    C3    S    
C10   C15   A    
C28   H1    S    
C33   H22   S    
C1    O1    A    
C22   C24   A    
C26   H9    S    
O8    Zn2   S    
C12   O4    A    
C16   C17   A    
C10   C11   A    
C29   H18   S    
O7    Zn1   S    
C31   H20   S    
C15   H6    S    
C7    C8    A    
C32   H21   S    
C20   C21   A    
C23   O6    A    
C18   C19   A    
C25   O7    A    
C1    C6    S    
C33   O11   D    
C1    O2    A    
C17   H12   S    
C3    C28   S    
C7    C11   A    
C6    C8    A    
C25   O8    A    
C12   C30   S    
C14   C15   A    
C7    H5    S    
C27   H14   S    
C8    C32   S    
C12   O3    A    
C21   H8    S    
O5    Zn1   S    
C4    C29   S    
C9    H7    S    
N2    Zn2   S    
