data_mof_unit_12912.cif
_audit_creation_date              2012-12-10T17:34:52-0500
_audit_creation_method            fapswitch 2.2
_symmetry_space_group_name_H-M    P1
_symmetry_Int_Tables_number       1
_space_group_crystal_system       triclinic
_cell_length_a                    12.089929
_cell_length_b                    12.774943
_cell_length_c                    15.726328
_cell_angle_alpha                 91.310387
_cell_angle_beta                  85.92882
_cell_angle_gamma                 95.137423
_cell_volume                      2412.70721174

loop_
_atom_site_label
_atom_site_type_symbol
_atom_type_description
_atom_site_fract_x
_atom_site_fract_y
_atom_site_fract_z
_atom_type_partial_charge
C1    C     C_R   0.523834 0.700465 0.498359 0.937436
C2    C     C_R   0.543394 0.812919 0.494005 -0.307671
C3    C     C_R   0.631031 0.975272 0.548255 0.415376
C4    C     C_R   0.499755 0.500050 0.661509 0.871127
C5    C     C_R   0.621960 0.865485 0.544837 0.302246
C6    C     C_R   0.477717 0.867506 0.443167 0.419088
C7    C     C_R   0.472518 0.975446 0.457999 -0.113161
C8    C     C_R   0.545305 0.028023 0.515863 -0.217974
C9    C     C_R   0.528804 0.130689 0.541556 0.429479
C10   C     C_R   0.389600 0.138997 0.436976 0.269203
C11   C     C_R   0.396689 0.031892 0.416499 0.439966
C12   C     C_3   0.367639 0.507568 0.058577 0.543904
C13   C     C_R   0.957413 0.411484 0.415428 -0.286068
C14   C     C_R   0.842391 0.420139 0.420090 0.519152
C15   C     C_R   0.859492 0.534979 0.541690 0.459062
C16   C     C_R   0.476291 0.299671 0.500546 0.971189
C17   C     C_R   0.976656 0.529001 0.535484 0.069106
C18   C     C_R   0.024863 0.466171 0.471484 -0.099424
C19   C     C_R   0.141115 0.461721 0.462668 0.071980
C20   C     C_R   0.163369 0.580899 0.578670 0.026954
C21   C     C_R   0.047834 0.586808 0.590013 -0.177231
C22   C     C_R   0.500119 0.499875 0.338534 0.899555
C23   C     C_3   0.490810 0.497993 0.083346 0.032507
C24   C     C_3   0.369255 0.512513 0.957963 0.235288
C25   C     C_3   0.571689 0.592676 0.949767 -0.364268
C26   C     C_3   0.565195 0.595390 0.047891 -0.421812
C27   C     C_1   0.499550 0.498976 0.249731 -0.023416
C28   C     C_3   0.490570 0.502154 0.917796 0.032782
C29   C     C_3   0.537044 0.396415 0.043628 0.264104
C30   C     C_3   0.529628 0.396376 0.945718 -0.561094
C31   C     C_1   0.496349 0.498165 0.174620 0.141310
C32   C     C_1   0.495277 0.501415 0.825993 0.054001
C33   C     C_1   0.498667 0.500497 0.750470 -0.072706
C34   C     C_R   0.459346 0.187260 0.496352 -0.268468
H1    H     H_    0.317173 0.443555 0.933924 0.100144
H2    H     H_    0.469991 0.330029 0.926524 0.204296
H3    H     H_    0.611531 0.382411 0.912383 0.237569
H4    H     H_    0.486093 0.326592 0.069727 0.233132
H5    H     H_    0.251335 0.600313 0.098173 0.416805
H6    H     H_    0.240291 0.278804 0.997790 0.378963
H7    H     H_    0.698783 0.435034 0.031801 0.364914
H8    H     H_    0.536002 0.232469 0.636500 0.313044
H9    H     H_    0.249853 0.153015 0.386266 0.360160
H10   H     H_    0.930060 0.009724 0.577150 0.387313
H11   H     H_    0.324973 0.034113 0.309812 0.360402
H12   H     H_    0.178808 0.412738 0.413610 0.173546
H13   H     H_    0.711314 0.850173 0.641319 0.385710
H14   H     H_    0.449833 0.752388 0.361688 0.323310
H15   H     H_    0.139865 0.678825 0.936688 0.394834
H16   H     H_    0.823652 0.257552 0.226082 0.411021
H17   H     H_    0.743881 0.616989 0.588270 0.412487
H18   H     H_    0.217757 0.625150 0.620860 0.168662
H19   H     H_    0.996514 0.365781 0.364862 0.239094
H20   H     H_    0.015230 0.636778 0.640567 0.209711
H21   H     H_    0.658371 0.580560 0.925222 0.194944
H22   H     H_    0.552968 0.669597 0.925394 0.247570
H23   H     H_    0.531191 0.669576 0.071541 0.258238
H24   H     H_    0.650556 0.598270 0.070522 0.206199
N1    N     N_R   0.207800 0.519340 0.515510 -0.115302
N2    N     N_R   0.792190 0.480660 0.484490 -0.222769
O1    O     O_R   0.421690 0.658830 0.504140 -0.609184
O2    O     O_2   0.278960 0.381180 0.190015 -0.247176
O3    O     O_2   0.153083 0.422348 0.083811 -0.245953
O4    O     O_3   0.293245 0.284969 0.043261 -0.585029
O5    O     O_3   0.646421 0.385695 0.066002 -0.690228
O6    O     O_3   0.576770 0.172857 0.613588 -0.658491
O7    O     O_3   0.317355 0.198700 0.399192 -0.720834
O8    O     O_2   0.781038 0.145328 0.532715 -0.224846
O9    O     O_2   0.748711 0.064704 0.673701 -0.249943
O10   O     O_3   0.864132 0.968915 0.555322 -0.518068
O11   O     O_3   0.334071 0.982749 0.354487 -0.653635
O12   O     O_R   0.609320 0.646410 0.494190 -0.603814
O13   O     O_3   0.686087 0.807353 0.591915 -0.706217
O14   O     O_3   0.413827 0.815538 0.382972 -0.634850
O15   O     O_2   0.359559 0.725946 0.953296 -0.251554
O16   O     O_2   0.310702 0.625692 0.824601 -0.306445
O17   O     O_3   0.169253 0.613875 0.955498 -0.511478
O18   O     O_2   0.666178 0.302896 0.351972 -0.263295
O19   O     O_2   0.763286 0.447440 0.268245 -0.279585
O20   O     O_3   0.858412 0.276471 0.280163 -0.523555
O21   O     O_3   0.816238 0.598727 0.604849 -0.734092
O22   O     O_R   0.406150 0.506210 0.627840 -0.611653
O23   O     O_R   0.593770 0.493790 0.617880 -0.625089
O24   O     O_R   0.390680 0.353590 0.505810 -0.586300
O25   O     O_R   0.578310 0.341170 0.495860 -0.556481
O26   O     O_R   0.406230 0.506210 0.382120 -0.607404
O27   O     O_R   0.593850 0.493790 0.372160 -0.554652
O28   O     O_3   0.333349 0.601227 0.097647 -0.704726
S1    S     S_3+6 0.270085 0.397662 0.096539 0.017153
S2    S     S_3+6 0.757733 0.043249 0.579188 0.093420
S3    S     S_3+6 0.304377 0.624392 0.920343 0.047939
S4    S     S_3+6 0.776654 0.362157 0.330043 0.094082
Zn1   Zn    Zn3+2 0.374720 0.508290 0.506640 1.015242
Zn2   Zn    Zn3+2 0.625280 0.491710 0.493360 1.061225

loop_
_geom_bond_atom_site_label_1
_geom_bond_atom_site_label_2
_ccdc_geom_bond_type
O2    S1    D    
H11   O11   S    
C15   N2    A    
C25   H22   S    
C19   H12   S    
C7    C8    A    
C15   O21   S    
O10   S2    S    
C10   O7    S    
C25   C28   S    
C7    C11   A    
C12   C23   S    
C13   C18   A    
C3    S2    S    
C23   C29   S    
C18   C19   A    
C21   H20   S    
C11   O11   S    
O27   Zn2   S    
C16   O24   A    
C1    C2    S    
C23   C26   S    
C9    O6    S    
C16   C34   S    
H15   O17   S    
C8    C9    A    
C29   H4    S    
O8    S2    D    
H10   O10   S    
H17   O21   S    
O15   S3    D    
O12   Zn2   S    
O22   Zn1   S    
C13   C14   A    
C2    C6    A    
O4    S1    S    
C6    O14   S    
C13   H19   S    
C24   H1    S    
C12   O28   S    
C27   C31   T    
C1    O12   A    
H14   O14   S    
C12   S1    S    
C28   C32   S    
H13   O13   S    
C3    C8    A    
H7    O5    S    
C19   N1    A    
C25   C26   S    
O23   Zn2   S    
C17   C21   A    
C30   H3    S    
H16   O20   S    
C23   C31   S    
O20   S4    S    
C29   C30   S    
O26   Zn1   S    
O25   Zn2   S    
O3    S1    D    
C17   C18   A    
C10   C34   A    
C22   O27   A    
C20   N1    A    
C26   H24   S    
C14   S4    S    
O19   S4    D    
C29   O5    S    
C22   C27   S    
C9    C34   A    
C2    C5    A    
O9    S2    D    
C24   S3    S    
C15   C17   A    
C4    C33   S    
O17   S3    S    
H5    O28   S    
C24   C28   S    
C3    C5    A    
C1    O1    A    
C6    C7    A    
C14   N2    A    
C12   C24   S    
H6    O4    S    
C30   H2    S    
O18   S4    D    
C32   C33   T    
C28   C30   S    
C20   H18   S    
C16   O25   A    
C4    O23   A    
C25   H21   S    
O1    Zn1   S    
O24   Zn1   S    
C22   O26   A    
C5    O13   S    
C26   H23   S    
C10   C11   A    
O16   S3    D    
C4    O22   A    
C20   C21   A    
H9    O7    S    
H8    O6    S    
N1    Zn1   S    
N2    Zn2   S    
