data_mof_unit_29284.cif
_audit_creation_date              2013-03-05T15:43:03-0500
_audit_creation_method            fapswitch 2.2
_symmetry_space_group_name_H-M    P1
_symmetry_Int_Tables_number       1
_space_group_crystal_system       triclinic
_cell_length_a                    9.696919
_cell_length_b                    10.95133
_cell_length_c                    15.341827
_cell_angle_alpha                 90.286272
_cell_angle_beta                  73.882905
_cell_angle_gamma                 90.886312
_cell_volume                      1564.99078713

loop_
_atom_site_label
_atom_site_type_symbol
_atom_site_description
_atom_site_fract_x
_atom_site_fract_y
_atom_site_fract_z
_atom_type_partial_charge
O1    O     O_R   0.117050 0.321960 0.499980 -0.579289
O2    O     O_R   0.882890 0.321920 0.500020 -0.563742
C1    C     C_R   0.999178 0.265530 0.498894 0.806930
O3    O     O_R   0.052910 0.500040 0.629810 -0.577030
O4    O     O_R   0.818750 0.499990 0.629840 -0.575762
C2    C     C_R   0.917094 0.494751 0.672827 0.799379
Cu1   Cu    Cu3+1 0.138640 0.500020 0.499980 1.011700
Cu2   Cu    Cu3+1 0.861360 0.499980 0.500020 1.002580
O5    O     O_R   0.117110 0.678080 0.499980 -0.576341
O6    O     O_R   0.882950 0.678040 0.500020 -0.583196
O7    O     O_R   0.181250 0.500010 0.370160 -0.534659
O8    O     O_R   0.947090 0.499960 0.370190 -0.549721
C3    C     C_R   0.999728 0.734256 0.503591 0.855124
C4    C     C_R   0.082977 0.506871 0.327618 0.821623
C5    C     C_R   0.872763 0.481140 0.772985 -0.143083
C6    C     C_R   0.129911 0.537269 0.230165 -0.130744
C7    C     C_R   0.907963 0.406153 0.914738 0.344754
C8    C     C_R   0.958951 0.423511 0.820402 -0.147030
C9    C     C_R   0.737542 0.522283 0.820978 -0.179198
C10   C     C_R   0.684640 0.510523 0.916019 0.032218
C11   C     C_R   0.769106 0.447709 0.963683 -0.118270
C12   C     C_R   0.546627 0.555262 0.963554 0.072626
C13   C     C_R   0.488134 0.527445 0.056864 -0.057228
C14   C     C_R   0.579654 0.478308 0.105515 0.219722
C15   C     C_R   0.713648 0.431006 0.058773 0.261167
C16   C     C_R   0.465809 0.629678 0.921255 -0.155351
C17   C     C_R   0.328678 0.667351 0.966855 -0.107090
C18   C     C_R   0.263113 0.628966 0.055600 0.055856
C19   C     C_R   0.340177 0.552229 0.098899 0.092599
C20   C     C_R   0.120919 0.663389 0.101263 0.321534
C21   C     C_R   0.056983 0.621624 0.190323 -0.124895
C22   C     C_R   0.264947 0.497387 0.181112 -0.113915
H1    H     H_    0.311246 0.423821 0.209555 0.193340
H2    H     H_    0.273137 0.724156 0.930425 0.192368
H3    H     H_    0.673436 0.560755 0.781259 0.155736
H4    H     H_    0.507199 0.665070 0.853521 0.139686
C23   C     C_2   0.884007 0.931317 0.521544 -0.178567
C24   C     C_2   0.000266 0.864926 0.515876 -0.307385
H5    H     H_    0.782312 0.888184 0.521487 0.185410
H6    H     H_    0.098093 0.907255 0.523952 0.167203
C25   C     C_2   0.888609 0.063439 0.535349 -0.042144
C26   C     C_2   0.999611 0.134235 0.487148 -0.207903
C27   C     C_2   0.406942 0.410668 0.531936 0.000660
N1    N     N_2   0.346430 0.498660 0.500980 -0.264021
H7    H     H_    0.344484 0.328770 0.556508 0.170207
H8    H     H_    0.403207 0.578724 0.482413 0.214095
C28   C     C_2   0.559127 0.415579 0.538739 -0.026904
N2    N     N_2   0.652550 0.498630 0.501000 -0.277606
H9    H     H_    0.592210 0.343188 0.575991 0.175089
H10   H     H_    0.624293 0.562348 0.460458 0.223424
N3    N     N_R   0.790254 0.363328 0.109519 0.188408
O9    O     O_R   0.853739 0.420085 0.162590 -0.292051
O10   O     O_R   0.773830 0.245242 0.115481 -0.249217
N4    N     N_R   0.043252 0.744135 0.059075 0.109256
O11   O     O_R   0.918136 0.711258 0.050524 -0.317978
O12   O     O_R   0.090393 0.855019 0.037991 -0.304923
C29   C     C_1   0.770711 0.113134 0.605888 0.276456
N5    N     N_1   0.676754 0.152302 0.662600 -0.268855
C30   C     C_1   0.114358 0.087443 0.412872 0.286825
N6    N     N_1   0.205906 0.050496 0.353508 -0.209014
C31   C     C_1   0.920878 0.671453 0.241451 0.435675
N7    N     N_1   0.812164 0.711383 0.282263 -0.194538
N8    N     N_R   0.000545 0.347597 0.959600 0.147736
O13   O     O_R   0.019262 0.230275 0.950953 -0.268783
O14   O     O_R   0.088521 0.413680 0.991105 -0.333251
C32   C     C_1   0.098920 0.376709 0.773490 0.373815
N9    N     N_1   0.210849 0.338830 0.736915 -0.269201
N10   N     N_R   0.546975 0.491585 0.202533 0.127498
O15   O     O_R   0.513847 0.598146 0.239723 -0.330175
O16   O     O_R   0.550465 0.398139 0.253951 -0.301640

loop_
_geom_bond_atom_site_label_1
_geom_bond_atom_site_label_2
_geom_bond_distance
_ccdc_geom_bond_type
C26   C30   1.451570 S    
O4    Cu2   1.918489 S    
C24   H6    1.086831 S    
C13   C14   1.421552 A    
N8    O14   1.300557 A    
C1    C26   1.448138 S    
C23   C24   1.333199 D    
C6    C22   1.392487 A    
C10   C12   1.427514 A    
C20   N4    1.437011 S    
C25   C26   1.358131 D    
C21   C31   1.448501 S    
C5    C8    1.408713 A    
C28   N2    1.292939 D    
Cu2   O8    1.933689 S    
C27   N1    1.294310 D    
C22   H1    1.079139 S    
C31   N7    1.157426 T    
C18   C20   1.418184 A    
C7    C8    1.406327 A    
C16   C17   1.387604 A    
C14   C15   1.403795 A    
C25   C29   1.449414 S    
C30   N6    1.157493 T    
C28   H9    1.082691 S    
C9    H3    1.075284 S    
Cu2   N2    2.020517 S    
C7    N8    1.433951 S    
C6    C21   1.411733 A    
Cu1   O7    1.918489 S    
C27   H7    1.083117 S    
N4    O11   1.301232 A    
C29   N5    1.157305 T    
O4    C2    1.303421 A    
O3    Cu1   1.933686 S    
C13   C19   1.429896 A    
N2    H10   1.026516 S    
C18   C19   1.416518 A    
O8    C4    1.299309 A    
O2    C1    1.289903 A    
C19   C22   1.402462 A    
N4    O12   1.301092 A    
O1    Cu1   1.957978 S    
C17   H2    1.081841 S    
C23   C25   1.463079 S    
C20   C21   1.409834 A    
O7    C4    1.299132 A    
C4    C6    1.475051 S    
C15   N3    1.432184 S    
O3    C2    1.299555 A    
C8    C32   1.448574 S    
C14   N10   1.440283 S    
N8    O13   1.301344 A    
N3    O9    1.299857 A    
Cu1   Cu2   2.688585 S    
C32   N9    1.156907 T    
C10   C11   1.426109 A    
C23   H5    1.087033 S    
N3    O10   1.301083 A    
C12   C16   1.416628 A    
C16   H4    1.076487 S    
C17   C18   1.396969 A    
Cu1   O5    1.964345 S    
N10   O16   1.301785 A    
O5    C3    1.289752 A    
C12   C13   1.418458 A    
C11   C15   1.419496 A    
Cu1   N1    2.019522 S    
C2    C5    1.483816 S    
C5    C9    1.394065 A    
C27   C28   1.508160 S    
Cu2   O6    1.957976 S    
O2    Cu2   1.964347 S    
C3    C24   1.442548 S    
C9    C10   1.410799 A    
N1    H8    1.026418 S    
N10   O15   1.301445 A    
O1    C1    1.295075 A    
O6    C3    1.294935 A    
C7    C11   1.427644 A    
