data_mof_unit_64409.cif
_audit_creation_date              2012-12-10T20:23:51-0500
_audit_creation_method            fapswitch 2.2
_symmetry_space_group_name_H-M    P1
_symmetry_Int_Tables_number       1
_space_group_crystal_system       triclinic
_cell_length_a                    16.763848
_cell_length_b                    18.424361
_cell_length_c                    19.321251
_cell_angle_alpha                 90.170549
_cell_angle_beta                  89.470758
_cell_angle_gamma                 94.859075
_cell_volume                      5945.90775908

loop_
_atom_site_label
_atom_site_type_symbol
_atom_type_description
_atom_site_fract_x
_atom_site_fract_y
_atom_site_fract_z
_atom_type_partial_charge
C1    C     C_R   0.501644 0.499977 0.365403 0.973512
C2    C     C_R   0.501545 0.500321 0.634669 0.999818
C3    C     C_R   0.516265 0.436793 0.818944 0.340458
C4    C     C_R   0.498460 0.563658 0.180844 0.297046
C5    C     C_R   0.521328 0.503501 0.853865 -0.172054
C6    C     C_R   0.515095 0.500057 0.145974 -0.170113
C7    C     C_R   0.523307 0.569894 0.818093 0.392011
C8    C     C_R   0.530365 0.436711 0.181493 0.444578
C9    C     C_R   0.520368 0.569079 0.745995 0.316149
C10   C     C_R   0.531682 0.437745 0.253914 0.281390
C11   C     C_R   0.508231 0.501610 0.710297 -0.412398
C12   C     C_R   0.507997 0.500048 0.289776 -0.394218
C13   C     C_R   0.591747 0.502440 0.964047 -0.425633
C14   C     C_R   0.445485 0.499545 0.035425 -0.324282
C15   C     C_R   0.591795 0.504965 0.036390 0.485969
C16   C     C_R   0.446295 0.502651 0.963544 0.508050
C17   C     C_R   0.517636 0.500459 0.071152 0.126962
C18   C     C_R   0.519684 0.502790 0.928546 0.132350
C19   C     C_R   0.459734 0.726788 0.548426 0.579747
C20   C     C_R   0.549333 0.274151 0.540875 0.616069
C21   C     C_R   0.463000 0.803540 0.545222 -0.441331
C22   C     C_R   0.543497 0.196879 0.538680 -0.481390
C23   C     C_R   0.653270 0.510010 0.500646 1.032266
C24   C     C_R   0.346710 0.489962 0.500241 0.954088
C25   C     C_R   0.499819 0.841350 0.489129 0.078488
C26   C     C_R   0.495409 0.158497 0.489719 0.092439
C27   C     C_R   0.537220 0.801187 0.437804 0.495152
C28   C     C_R   0.449848 0.198117 0.444733 0.495941
C29   C     C_R   0.538496 0.725117 0.445929 -0.224936
C30   C     C_R   0.450704 0.274395 0.453383 -0.233053
C31   C     C_R   0.570498 0.968196 0.481511 0.367266
C32   C     C_R   0.424225 0.031702 0.493130 0.361020
C33   C     C_R   0.568917 0.044578 0.477851 0.326242
C34   C     C_R   0.425125 0.955159 0.489921 0.325012
C35   C     C_R   0.495859 0.077157 0.485439 -0.191197
C36   C     C_R   0.498511 0.922637 0.485581 -0.195694
C37   C     C_R   0.739489 0.518966 0.502537 -0.271010
C38   C     C_R   0.260501 0.481644 0.498967 -0.347196
C39   C     C_R   0.778234 0.526746 0.566905 0.390321
C40   C     C_R   0.217346 0.509526 0.553903 0.420027
C41   C     C_R   0.862182 0.539573 0.566089 -0.430905
C42   C     C_R   0.135148 0.509843 0.548763 -0.340118
C43   C     C_R   0.904958 0.537672 0.504257 0.135937
C44   C     C_R   0.095153 0.478274 0.490984 0.082540
C45   C     C_R   0.865878 0.529767 0.440440 0.431776
C46   C     C_R   0.137107 0.440928 0.441172 0.438139
C47   C     C_R   0.781970 0.526844 0.439640 0.219996
C48   C     C_R   0.220720 0.444521 0.443748 0.277205
C49   C     C_R   0.504166 0.435315 0.747507 0.291049
C50   C     C_R   0.489293 0.562385 0.252723 0.302391
H1    H     H_    0.438170 0.834019 0.587059 0.192364
H2    H     H_    0.576897 0.166034 0.574137 0.179772
H3    H     H_    0.570332 0.694256 0.408706 0.191483
H4    H     H_    0.413081 0.305427 0.421744 0.206650
H5    H     H_    0.102490 0.534374 0.590109 0.198900
H6    H     H_    0.896378 0.547424 0.613084 0.160208
H7    H     H_    0.647184 0.501710 0.934993 0.143516
H8    H     H_    0.389020 0.496496 0.063475 0.165027
N1    N     N_2   0.988205 0.537983 0.508491 -0.134937
N2    N     N_2   0.012261 0.481588 0.483113 -0.100603
N3    N     N_R   0.499990 0.689440 0.499980 -0.154026
N4    N     N_R   0.500010 0.310560 0.500020 -0.157060
O1    O     O_R   0.500000 0.560840 0.398180 -0.589528
O2    O     O_R   0.500000 0.439160 0.601820 -0.543727
O3    O     O_R   0.500030 0.439210 0.398180 -0.600281
O4    O     O_R   0.499970 0.560790 0.601820 -0.542749
O5    O     O_R   0.616110 0.567600 0.499360 -0.636356
O6    O     O_R   0.383890 0.432400 0.500640 -0.617385
O7    O     O_R   0.616150 0.445970 0.499350 -0.595028
O8    O     O_R   0.383850 0.554030 0.500650 -0.617684
Zn1   Zn    Zn3+2 0.499980 0.581210 0.500000 0.993418
Zn2   Zn    Zn3+2 0.500020 0.418790 0.500000 1.007784
O9    O     O_3   0.255339 0.538727 0.612030 -0.620264
C51   C     C_3   0.272530 0.482124 0.657542 0.117119
H9    H     H_    0.329958 0.498893 0.683464 0.148709
H10   H     H_    0.280856 0.429149 0.631335 0.123754
C52   C     C_3   0.207590 0.471125 0.713096 -0.895460
H11   H     H_    0.150358 0.449087 0.689623 0.248806
H12   H     H_    0.225557 0.431969 0.752432 0.223732
H13   H     H_    0.198684 0.523798 0.738905 0.265524
O10   O     O_3   0.730957 0.522724 0.627306 -0.619427
C53   C     C_3   0.775069 0.515676 0.688756 0.119759
H14   H     H_    0.810658 0.567823 0.700850 0.140796
H15   H     H_    0.814984 0.470530 0.684146 0.148391
C54   C     C_3   0.718383 0.497825 0.749465 -0.930596
H16   H     H_    0.674285 0.451785 0.736296 0.269719
H17   H     H_    0.752914 0.482678 0.795222 0.205710
H18   H     H_    0.686155 0.545755 0.763445 0.220690
O11   O     O_3   0.661589 0.507759 0.075153 -0.638799
C55   C     C_3   0.723462 0.555363 0.046120 0.065354
H19   H     H_    0.700474 0.605293 0.023880 0.126534
H20   H     H_    0.755845 0.526411 0.005440 0.153391
C56   C     C_3   0.782756 0.579278 0.102522 -0.849874
H21   H     H_    0.806718 0.530948 0.126420 0.260716
H22   H     H_    0.833213 0.614772 0.080043 0.211858
H23   H     H_    0.752749 0.610283 0.143081 0.245983
O12   O     O_3   0.375839 0.499908 0.926506 -0.607448
C57   C     C_3   0.339457 0.565649 0.936022 0.112585
H24   H     H_    0.383888 0.614338 0.934871 0.176062
H25   H     H_    0.306210 0.564467 0.986139 0.140105
C58   C     C_3   0.280589 0.573782 0.877709 -0.824004
H26   H     H_    0.233986 0.527193 0.878017 0.255342
H27   H     H_    0.251239 0.625188 0.884401 0.206678
H28   H     H_    0.312734 0.575240 0.827124 0.261233
O13   O     O_3   0.426808 0.690013 0.605509 -0.542021
C59   C     C_3   0.344600 0.700625 0.612820 0.129670
H29   H     H_    0.309573 0.664062 0.576424 0.193147
H30   H     H_    0.329679 0.757204 0.602416 0.113015
C60   C     C_3   0.318475 0.682816 0.686931 -0.698854
H31   H     H_    0.346828 0.724470 0.722695 0.235171
H32   H     H_    0.252384 0.682336 0.691834 0.198109
H33   H     H_    0.337113 0.628818 0.702075 0.278907
O14   O     O_3   0.601741 0.314667 0.584564 -0.541231
C61   C     C_3   0.673436 0.280644 0.594805 0.084327
H34   H     H_    0.695374 0.256116 0.546051 0.147733
H35   H     H_    0.664067 0.238359 0.635697 0.139831
C62   C     C_3   0.738768 0.336344 0.619239 -0.798874
H36   H     H_    0.794956 0.309742 0.627277 0.190087
H37   H     H_    0.749923 0.379466 0.579678 0.267801
H38   H     H_    0.720443 0.360223 0.668921 0.264442
O15   O     O_3   0.577654 0.837079 0.383383 -0.562690
C63   C     C_3   0.539508 0.816932 0.320648 -0.329839
H39   H     H_    0.475252 0.827856 0.321943 0.144403
H40   H     H_    0.546114 0.759013 0.307551 0.194944
H41   H     H_    0.568717 0.850449 0.278452 0.192951
O16   O     O_3   0.402601 0.161328 0.395184 -0.571646
C64   C     C_3   0.422843 0.189118 0.328704 -0.273868
H42   H     H_    0.488859 0.196657 0.320048 0.155006
H43   H     H_    0.395276 0.240942 0.319589 0.186571
H44   H     H_    0.398192 0.149326 0.289605 0.187839
O17   O     O_3   0.643303 0.938170 0.479451 -0.528316
C65   C     C_3   0.669356 0.929439 0.547994 0.126867
H45   H     H_    0.688191 0.983479 0.571238 0.154863
H46   H     H_    0.621852 0.900914 0.581244 0.114082
C66   C     C_3   0.740637 0.883617 0.547124 -0.806190
H47   H     H_    0.790008 0.910678 0.515331 0.263108
H48   H     H_    0.762177 0.876865 0.600711 0.194049
H49   H     H_    0.722787 0.828977 0.524991 0.257055
O18   O     O_3   0.352134 0.061967 0.502012 -0.532161
C67   C     C_3   0.338605 0.071777 0.573535 0.133383
H50   H     H_    0.390881 0.102041 0.598987 0.112329
H51   H     H_    0.325666 0.018090 0.599396 0.157818
C68   C     C_3   0.266757 0.115969 0.583453 -0.809893
H52   H     H_    0.212956 0.087148 0.559568 0.262221
H53   H     H_    0.255005 0.123552 0.639554 0.194776
H54   H     H_    0.278841 0.170301 0.558913 0.260445
O19   O     O_3   0.640386 0.087449 0.471688 -0.591277
C69   C     C_3   0.654655 0.102513 0.400963 -0.248043
H55   H     H_    0.606842 0.133461 0.378648 0.144508
H56   H     H_    0.660680 0.051596 0.370885 0.188786
H57   H     H_    0.711906 0.137014 0.395804 0.173787
O20   O     O_3   0.353730 0.912206 0.496179 -0.591358
C70   C     C_3   0.323803 0.897155 0.429280 -0.236400
H58   H     H_    0.365094 0.865363 0.398392 0.134699
H59   H     H_    0.312181 0.948061 0.401583 0.190189
H60   H     H_    0.265996 0.863452 0.434141 0.176284
O21   O     O_3   0.910773 0.529730 0.379865 -0.598836
C71   C     C_3   0.899665 0.460406 0.348300 -0.226599
H61   H     H_    0.840622 0.452558 0.322526 0.173448
H62   H     H_    0.906349 0.415421 0.385688 0.153640
H63   H     H_    0.946353 0.456809 0.307673 0.200676
O22   O     O_3   0.097256 0.407294 0.385925 -0.587332
C72   C     C_3   0.073937 0.334632 0.404490 -0.287710
H64   H     H_    0.031916 0.331894 0.449549 0.145563
H65   H     H_    0.126861 0.304055 0.415649 0.192429
H66   H     H_    0.041988 0.307365 0.360244 0.179630
O23   O     O_3   0.740398 0.529409 0.378150 -0.651827
C73   C     C_3   0.754506 0.599574 0.348687 0.149805
H67   H     H_    0.813560 0.605088 0.321811 0.196180
H68   H     H_    0.752290 0.643706 0.388224 0.139585
C74   C     C_3   0.690558 0.610331 0.295373 -0.905006
H69   H     H_    0.632050 0.613049 0.321873 0.275736
H70   H     H_    0.705316 0.662236 0.267188 0.208296
H71   H     H_    0.686455 0.564557 0.257659 0.257331
O24   O     O_3   0.262568 0.407059 0.395248 -0.580320
C75   C     C_3   0.282178 0.453098 0.338351 0.124782
H72   H     H_    0.228578 0.477462 0.317746 0.161903
H73   H     H_    0.327833 0.497358 0.353562 0.118590
C76   C     C_3   0.317061 0.408743 0.280729 -0.790413
H74   H     H_    0.336064 0.444741 0.236530 0.189013
H75   H     H_    0.369692 0.382361 0.299949 0.270412
H76   H     H_    0.271376 0.365891 0.262624 0.260597
O25   O     O_3   0.493276 0.368919 0.713518 -0.552858
C77   C     C_3   0.414395 0.337712 0.725523 0.181810
H77   H     H_    0.369423 0.378904 0.724591 0.096593
H78   H     H_    0.410587 0.309560 0.776373 0.184690
C78   C     C_3   0.392384 0.281703 0.669361 -0.843711
H79   H     H_    0.435820 0.239404 0.668535 0.254530
H80   H     H_    0.331505 0.255126 0.679601 0.197418
H81   H     H_    0.392748 0.308737 0.618063 0.266230
O26   O     O_3   0.467739 0.623812 0.287575 -0.599854
C79   C     C_3   0.387398 0.636272 0.273336 0.164960
H82   H     H_    0.349527 0.585900 0.258761 0.105547
H83   H     H_    0.386121 0.676217 0.230491 0.185124
C80   C     C_3   0.350129 0.668494 0.337363 -0.889571
H84   H     H_    0.287389 0.679622 0.326560 0.207849
H85   H     H_    0.350254 0.629734 0.381203 0.269600
H86   H     H_    0.384468 0.720203 0.352293 0.246456
O27   O     O_3   0.515710 0.372637 0.856066 -0.584414
C81   C     C_3   0.591955 0.345859 0.850248 0.124273
H87   H     H_    0.640635 0.388349 0.863879 0.123354
H88   H     H_    0.602449 0.325917 0.796775 0.176273
C82   C     C_3   0.596130 0.282558 0.899981 -0.824199
H89   H     H_    0.549240 0.238445 0.887197 0.257260
H90   H     H_    0.655791 0.260827 0.895870 0.196850
H91   H     H_    0.586766 0.301209 0.953954 0.265643
O28   O     O_3   0.485223 0.625600 0.143840 -0.610825
C83   C     C_3   0.556215 0.672590 0.143744 0.120608
H92   H     H_    0.606704 0.645611 0.119895 0.152883
H93   H     H_    0.572717 0.690342 0.197223 0.163144
C84   C     C_3   0.543213 0.739934 0.101473 -0.877626
H94   H     H_    0.494289 0.769083 0.124989 0.257244
H95   H     H_    0.598974 0.777038 0.100390 0.208286
H96   H     H_    0.526945 0.724032 0.047597 0.259590
O29   O     O_3   0.519559 0.635912 0.852274 -0.570600
C85   C     C_3   0.591945 0.656541 0.886888 -0.348297
H97   H     H_    0.609250 0.714850 0.875953 0.191426
H98   H     H_    0.643411 0.625344 0.871168 0.122124
H99   H     H_    0.582033 0.651338 0.943565 0.177338
O30   O     O_3   0.532455 0.371957 0.144926 -0.576659
C86   C     C_3   0.610903 0.349649 0.142042 -0.219092
H100  H     H_    0.617381 0.306951 0.181430 0.176445
H101  H     H_    0.658933 0.394652 0.148491 0.168118
H102  H     H_    0.620250 0.324785 0.090562 0.169311
O31   O     O_3   0.525652 0.635069 0.711209 -0.509673
C87   C     C_3   0.607493 0.658757 0.701351 0.188078
H103  H     H_    0.637305 0.620090 0.667549 0.179469
H104  H     H_    0.639435 0.664332 0.751410 0.112075
C88   C     C_3   0.615758 0.733152 0.666838 -0.791503
H105  H     H_    0.678588 0.757187 0.670702 0.184584
H106  H     H_    0.601059 0.727651 0.611250 0.247920
H107  H     H_    0.575696 0.770344 0.692363 0.263570
O32   O     O_3   0.548528 0.375121 0.288509 -0.581881
C89   C     C_3   0.628603 0.383430 0.311918 0.173266
H108  H     H_    0.636426 0.426163 0.352320 0.202484
H109  H     H_    0.671659 0.398319 0.269133 0.108022
C90   C     C_3   0.650123 0.312171 0.343472 -0.866769
H110  H     H_    0.712880 0.318280 0.361939 0.206636
H111  H     H_    0.609924 0.297211 0.388023 0.260128
H112  H     H_    0.644088 0.267865 0.304324 0.231888

loop_
_geom_bond_atom_site_label_1
_geom_bond_atom_site_label_2
_ccdc_geom_bond_type
C68   H54   S    
C74   H69   S    
C58   H26   S    
C83   H93   S    
C66   H49   S    
O9    C51   S    
C23   O7    A    
C72   H64   S    
C69   H57   S    
O29   C85   S    
C61   H34   S    
C27   O15   S    
C24   O8    A    
C66   H47   S    
C39   C41   A    
C54   H16   S    
C77   H77   S    
C82   H90   S    
O16   C64   S    
C51   H10   S    
C13   C18   A    
C4    O28   S    
C89   H109  S    
C8    O30   S    
C19   C21   A    
C69   H56   S    
O22   C72   S    
C86   H102  S    
C60   H32   S    
C20   O14   S    
C19   N3    A    
C16   O12   S    
C52   H13   S    
C13   H7    S    
C59   H29   S    
C68   H52   S    
C90   H111  S    
C47   O23   S    
C40   O9    S    
C68   H53   S    
C23   O5    A    
C59   C60   S    
C78   H81   S    
C31   O17   S    
C33   O19   S    
C71   H63   S    
C49   O25   S    
C55   H20   S    
C73   C74   S    
C70   H58   S    
O19   C69   S    
C44   C46   A    
C81   H87   S    
C51   C52   S    
C1    O3    A    
C85   H97   S    
C67   C68   S    
O8    Zn1   S    
C37   C47   A    
O32   C89   S    
C38   C48   A    
C43   N1    S    
C80   H86   S    
C30   H4    S    
C40   C42   A    
N1    N2    D    
C56   H22   S    
C90   H110  S    
C71   H62   S    
C41   C43   A    
C14   C17   A    
C1    C12   S    
C42   C44   A    
C2    C11   S    
C1    O1    A    
O30   C86   S    
C82   H91   S    
C88   H105  S    
C2    O2    A    
O12   C57   S    
C29   N3    A    
C45   C47   A    
C3    C49   A    
C14   H8    S    
C74   H71   S    
C46   C48   A    
C51   H9    S    
C54   H17   S    
O28   C83   S    
C48   O24   S    
C32   C35   A    
C65   C66   S    
C72   H66   S    
C45   O21   S    
C67   H50   S    
C39   O10   S    
C32   O18   S    
C4    C6    A    
C60   H33   S    
C83   H92   S    
O23   C73   S    
C5    C7    A    
C34   O20   S    
C65   H45   S    
C6    C8    A    
C5    C18   S    
C3    C5    A    
C52   H11   S    
C53   H14   S    
O10   C53   S    
O26   C79   S    
O21   C71   S    
C4    C50   A    
C70   H60   S    
C89   C90   S    
C79   H83   S    
O7    Zn2   S    
O25   C77   S    
C64   H43   S    
C41   H6    S    
C86   H100  S    
C11   C49   A    
C42   H5    S    
C15   O11   S    
C74   H70   S    
C24   C38   S    
C84   H94   S    
C13   C15   A    
C53   H15   S    
O6    Zn2   S    
C31   C33   A    
O31   C87   S    
C52   H12   S    
N4    Zn2   S    
C56   H21   S    
C69   H55   S    
C3    O27   S    
C50   O26   S    
C9    C11   A    
O15   C63   S    
C10   C12   A    
O4    Zn1   S    
C19   O13   S    
C16   C18   A    
C73   H67   S    
C84   H95   S    
O1    Zn1   S    
C87   H103  S    
C56   H23   S    
C57   H25   S    
C30   N4    A    
C46   O22   S    
C71   H61   S    
C88   H106  S    
C14   C16   A    
C62   H38   S    
C70   H59   S    
C89   H108  S    
C63   H40   S    
C64   H42   S    
O3    Zn2   S    
C21   H1    S    
C55   C56   S    
C22   H2    S    
O14   C61   S    
C58   H27   S    
C54   H18   S    
C66   H48   S    
C6    C17   S    
C21   C25   A    
C75   H72   S    
C10   O32   S    
C72   H65   S    
C8    C10   A    
C20   C22   A    
C2    O4    A    
C85   H98   S    
C76   H76   S    
C61   H35   S    
O18   C67   S    
C77   C78   S    
C15   C17   A    
C67   H51   S    
C76   H74   S    
C88   H107  S    
C87   C88   S    
C27   C29   A    
O13   C59   S    
C26   C28   A    
C57   C58   S    
C81   C82   S    
C86   H101  S    
C85   H99   S    
C28   O16   S    
C79   H82   S    
C75   C76   S    
C63   H41   S    
C62   H37   S    
C79   C80   S    
C63   H39   S    
C64   H44   S    
C78   H79   S    
C37   C39   A    
O24   C75   S    
C23   C37   S    
C62   H36   S    
C38   C40   A    
N3    Zn1   S    
C55   H19   S    
C59   H30   S    
C44   N2    S    
C83   C84   S    
C28   C30   A    
C33   C35   A    
C34   C36   A    
C77   H78   S    
O5    Zn1   S    
O2    Zn2   S    
C20   N4    A    
O17   C65   S    
C78   H80   S    
C61   C62   S    
C24   O6    A    
C25   C36   S    
C80   H84   S    
C7    C9    A    
C26   C35   S    
O27   C81   S    
C84   H96   S    
O20   C70   S    
C65   H46   S    
C57   H24   S    
C22   C26   A    
C90   H112  S    
C73   H68   S    
C31   C36   A    
C9    O31   S    
C58   H28   S    
C82   H89   S    
C80   H85   S    
O11   C55   S    
C60   H31   S    
C43   C45   A    
C12   C50   A    
C81   H88   S    
C7    O29   S    
C87   H104  S    
C53   C54   S    
C29   H3    S    
C32   C34   A    
C75   H73   S    
C76   H75   S    
C25   C27   A    
