data_mof_unit_21562.cif
_audit_creation_date              2012-12-11T14:06:50-0500
_audit_creation_method            fapswitch 2.2
_symmetry_space_group_name_H-M    P1
_symmetry_Int_Tables_number       1
_space_group_crystal_system       triclinic
_cell_length_a                    6.916166
_cell_length_b                    17.358826
_cell_length_c                    24.099195
_cell_angle_alpha                 104.439857
_cell_angle_beta                  90.384291
_cell_angle_gamma                 89.999492
_cell_volume                      2801.79991941

loop_
_atom_site_label
_atom_site_type_symbol
_atom_type_description
_atom_site_fract_x
_atom_site_fract_y
_atom_site_fract_z
_atom_type_partial_charge
O1    O     O_R   0.494290 0.391990 0.999150 -0.532408
O2    O     O_R   0.827170 0.534410 0.082350 -0.541673
O3    O     O_R   0.994360 0.608010 0.000850 -0.543882
C1    C     C_R   0.658586 0.549765 0.106203 0.709896
O4    O     O_R   0.824210 0.388010 0.004470 -0.549399
O5    O     O_R   0.991370 0.460560 0.922410 -0.539887
C2    C     C_R   0.653675 0.354594 0.000468 0.780213
O6    O     O_R   0.497270 0.539440 0.077590 -0.538885
O7    O     O_3   0.659770 0.523970 0.973170 -0.371114
V1    V     V_3+5 0.935840 0.495550 0.004980 1.404515
O8    O     O_R   0.320910 0.465590 0.917650 -0.542750
C3    C     C_R   0.151514 0.449661 0.893949 0.727102
O9    O     O_R   0.323870 0.611990 0.995530 -0.547395
C4    C     C_R   0.154902 0.644852 0.997632 0.667384
V2    V     V_3+5 0.435470 0.504450 0.995020 1.411276
O10   O     O_3   0.161670 0.476030 0.026830 -0.370657
C5    C     C_2   0.146766 0.729580 0.995068 0.181564
C6    C     C_2   0.976410 0.769930 0.002184 -0.357855
H1    H     H_    0.843808 0.740101 0.008991 0.108309
C7    C     C_R   0.146683 0.244019 0.626520 0.584641
N1    N     N_R   0.108212 0.323076 0.649154 -0.567792
C8    C     C_R   0.059650 0.372297 0.614994 0.559723
C9    C     C_R   0.045569 0.342557 0.555351 -0.012535
C10   C     C_R   0.082476 0.261174 0.530810 -0.043373
C11   C     C_R   0.134495 0.210227 0.566295 -0.046219
C12   C     C_R   0.994229 0.392517 0.519853 -0.174799
C13   C     C_R   0.981060 0.362780 0.460644 -0.154280
C14   C     C_R   0.015708 0.282012 0.435413 -0.014918
C15   C     C_R   0.066227 0.231061 0.470524 -0.017374
C16   C     C_R   0.099920 0.150186 0.445278 -0.069440
C17   C     C_R   0.151894 0.099795 0.480160 -0.140103
C18   C     C_R   0.170605 0.128157 0.539941 0.110692
C19   C     C_R   0.000651 0.250904 0.375696 0.580759
N2    N     N_R   0.031096 0.171471 0.351683 -0.548956
C20   C     C_R   0.079950 0.121177 0.385352 0.587426
O11   O     O_2   0.195143 0.198969 0.662587 -0.510980
O12   O     O_2   0.024177 0.449916 0.638828 -0.520300
H2    H     H_    0.963653 0.454952 0.537709 0.164425
H3    H     H_    0.942569 0.403295 0.434737 0.167727
O13   O     O_2   0.957494 0.299979 0.341897 -0.514318
O14   O     O_2   0.107048 0.043087 0.361096 -0.515823
H4    H     H_    0.178598 0.037429 0.460637 0.170799
C21   C     C_R   0.168940 0.105129 0.257366 -0.066633
H5    H     H_    0.306182 0.099461 0.277877 0.150481
C22   C     C_R   0.151111 0.076956 0.197914 -0.207122
H6    H     H_    0.275286 0.048623 0.174175 0.181192
C23   C     C_R   0.976173 0.084753 0.169431 -0.164719
C24   C     C_R   0.817920 0.123202 0.202734 0.314832
C25   C     C_R   0.835912 0.148131 0.262557 -0.080809
H7    H     H_    0.713789 0.176144 0.287574 0.148876
C26   C     C_R   0.011423 0.140655 0.290271 0.287164
C27   C     C_R   0.290328 0.386070 0.736607 -0.090630
H8    H     H_    0.417119 0.386408 0.710590 0.167242
C28   C     C_R   0.302739 0.416713 0.796012 -0.179288
H9    H     H_    0.440162 0.439925 0.814734 0.153753
C29   C     C_R   0.139444 0.417789 0.830653 -0.144739
C30   C     C_R   0.963832 0.387032 0.804346 -0.185273
H10   H     H_    0.835995 0.386655 0.830021 0.147378
C31   C     C_R   0.950066 0.355322 0.744945 0.398448
C32   C     C_R   0.115704 0.354952 0.710517 0.283676
C33   C     C_R   0.554488 0.872995 0.613945 0.563286
N3    N     N_R   0.504755 0.824806 0.648604 -0.557391
C34   C     C_R   0.474331 0.744931 0.626529 0.581680
C35   C     C_R   0.488690 0.709903 0.566366 -0.077145
C36   C     C_R   0.546345 0.759218 0.530696 -0.044917
C37   C     C_R   0.577637 0.841379 0.554716 -0.009575
C38   C     C_R   0.452194 0.627657 0.540911 0.117566
C39   C     C_R   0.500379 0.594298 0.482498 0.134950
C40   C     C_R   0.543105 0.645177 0.445952 -0.078036
C41   C     C_R   0.569937 0.727323 0.470769 -0.050310
C42   C     C_R   0.623906 0.778034 0.435732 -0.010362
C43   C     C_R   0.654350 0.859333 0.460530 -0.135928
C44   C     C_R   0.631452 0.890557 0.519156 -0.167948
C45   C     C_R   0.557160 0.617480 0.385101 0.583640
N4    N     N_R   0.610764 0.667821 0.352164 -0.560437
C46   C     C_R   0.645840 0.746568 0.376406 0.575757
O15   O     O_2   0.581909 0.951516 0.636811 -0.523480
O16   O     O_2   0.437975 0.699638 0.663271 -0.520277
O17   O     O_2   0.512345 0.541626 0.358555 -0.515869
O18   O     O_2   0.698542 0.794762 0.342987 -0.512153
H11   H     H_    0.695792 0.899394 0.434649 0.178175
H12   H     H_    0.656125 0.953639 0.536512 0.166889
C47   C     C_R   0.804447 0.628646 0.263334 -0.080439
H13   H     H_    0.935572 0.643789 0.288487 0.118757
C48   C     C_R   0.816548 0.599649 0.203609 -0.190538
H14   H     H_    0.957765 0.593306 0.183890 0.127237
C49   C     C_R   0.648037 0.579705 0.169853 -0.059642
C50   C     C_R   0.467569 0.589303 0.197607 -0.191303
H15   H     H_    0.334632 0.574617 0.173285 0.131440
C51   C     C_R   0.455930 0.617878 0.257214 -0.079250
H16   H     H_    0.315641 0.624815 0.277517 0.117616
C52   C     C_R   0.624010 0.637880 0.290589 0.382027
C53   C     C_R   0.311274 0.865091 0.737386 -0.083789
H17   H     H_    0.180720 0.846480 0.712627 0.115338
C54   C     C_R   0.299170 0.895795 0.796944 -0.187049
H18   H     H_    0.158553 0.900000 0.816947 0.126003
C55   C     C_R   0.467142 0.919560 0.830246 -0.059191
C56   C     C_R   0.646895 0.912624 0.802181 -0.193867
H19   H     H_    0.779321 0.930379 0.826182 0.129633
C57   C     C_R   0.658463 0.882495 0.742704 -0.082646
H20   H     H_    0.798302 0.877278 0.722172 0.115025
C58   C     C_R   0.491079 0.858132 0.709833 0.386533
C59   C     C_2   0.636159 0.270051 0.002035 -0.346023
H21   H     H_    0.763516 0.243328 0.016114 0.119579
C60   C     C_2   0.470157 0.226271 0.988871 -0.028013
O19   O     O_R   0.618210 0.960470 0.922400 -0.544076
O20   O     O_R   0.291310 0.111960 0.995450 -0.545968
O21   O     O_R   0.124210 0.039530 0.077580 -0.537353
C61   C     C_R   0.460926 0.144039 0.996004 0.743592
O22   O     O_R   0.288310 0.965490 0.917650 -0.543752
O23   O     O_R   0.121180 0.892010 0.999220 -0.495389
C62   C     C_R   0.456853 0.950081 0.893817 0.716264
O24   O     O_R   0.621230 0.107990 0.000760 -0.553815
O25   O     O_3   0.455770 0.976060 0.026840 -0.350755
V3    V     V_3+5 0.179680 0.004440 0.995020 1.463990
O26   O     O_R   0.791670 0.888040 0.004570 -0.546074
C63   C     C_R   0.961560 0.854843 0.001365 0.811552
O27   O     O_R   0.794680 0.034510 0.082370 -0.536887
C64   C     C_R   0.963702 0.052104 0.105969 0.700030
V4    V     V_3+5 0.680070 0.995560 0.005010 1.457647
O28   O     O_3   0.953840 0.023940 0.973160 -0.384915
O29   O     O_3   0.313948 0.768146 0.985113 -0.625869
H22   H     H_    0.424057 0.730697 0.977993 0.292373
O30   O     O_3   0.773261 0.325231 0.722721 -0.644845
H23   H     H_    0.782348 0.304948 0.680653 0.300359
C65   C     C_3   0.348836 0.576155 0.573952 -0.621779
H24   H     H_    0.223489 0.608627 0.597222 0.234804
H25   H     H_    0.284345 0.522000 0.545539 0.184897
H26   H     H_    0.450426 0.557867 0.604151 0.242847
C66   C     C_3   0.523791 0.504746 0.461463 -0.664669
H27   H     H_    0.392505 0.477861 0.437563 0.239508
H28   H     H_    0.653801 0.490253 0.434135 0.227920
H29   H     H_    0.551935 0.476055 0.497029 0.187892
C67   C     C_3   0.291585 0.257098 0.964173 -0.682729
H30   H     H_    0.184199 0.209484 0.947054 0.188884
H31   H     H_    0.218040 0.302851 0.997844 0.222368
H32   H     H_    0.331803 0.281747 0.927487 0.201909
C68   C     C_3   0.228807 0.068587 0.573243 -0.621075
H33   H     H_    0.113235 0.063300 0.603829 0.241116
H34   H     H_    0.251539 0.008165 0.544941 0.176486
H35   H     H_    0.367388 0.086913 0.596263 0.250184
O31   O     O_3   0.645987 0.139720 0.178902 -0.642737
H36   H     H_    0.675352 0.153738 0.142480 0.289344

loop_
_geom_bond_atom_site_label_1
_geom_bond_atom_site_label_2
_ccdc_geom_bond_type
C49   C50   A    
N4    C46   A    
C53   H17   S    
V3    O28   S    
C17   H4    S    
C66   H28   S    
C54   H18   S    
C4    C5    S    
C1    O6    A    
C67   H32   S    
O25   V3    S    
C51   H16   S    
C1    C49   S    
O19   C62   A    
C22   H6    S    
C29   C30   A    
C47   C52   A    
C12   C13   A    
N3    C34   A    
C16   C20   A    
O21   V3    S    
C14   C15   A    
C6    H1    S    
O5    C3    A    
C16   C17   A    
C30   C31   A    
C7    C11   A    
C36   C41   A    
O26   C63   A    
N2    C20   A    
C9    C12   A    
O27   C64   A    
C27   C32   A    
C10   C15   A    
O8    V2    S    
C33   C37   A    
C47   H13   S    
C33   O15   S    
C39   C40   A    
C25   C26   A    
C9    C10   A    
C41   C42   A    
O1    V2    S    
O7    V1    S    
C43   H11   S    
C61   O24   A    
C11   C18   A    
C23   C64   S    
C31   C32   A    
C53   C54   A    
C2    C59   S    
N1    C8    A    
O20   C61   A    
O21   C64   A    
C33   N3    A    
C27   C28   A    
C55   C56   A    
O22   C62   A    
C22   C23   A    
C28   C29   A    
C19   O13   S    
C45   N4    A    
C48   C49   A    
C38   C39   A    
C35   C38   A    
C10   C11   A    
N1    C32   S    
C38   C65   S    
C13   H3    S    
O4    C2    A    
C55   C62   S    
C12   H2    S    
C67   H31   S    
C65   H26   S    
C48   H14   S    
C37   C44   A    
O26   V4    S    
O2    C1    A    
C21   H5    S    
C18   C68   S    
C15   C16   A    
O24   V4    S    
C51   C52   A    
C23   C24   A    
C57   C58   A    
C5    C6    D    
N2    C26   S    
C24   O31   S    
C40   C45   A    
C59   C60   D    
C27   H8    S    
C7    N1    A    
C39   C66   S    
C21   C22   A    
C6    C63   S    
O20   V3    S    
C3    C29   S    
O3    C4    A    
C68   H34   S    
N4    C52   S    
C24   C25   A    
C47   C48   A    
C50   C51   A    
C14   C19   A    
C25   H7    S    
O6    V2    S    
C56   C57   A    
C45   O17   S    
O9    V2    S    
C66   H29   S    
O2    V1    S    
C44   H12   S    
C59   H21   S    
V4    O28   S    
C31   O30   S    
C60   C61   S    
C28   H9    S    
C65   H25   S    
O19   V4    S    
O1    C2    A    
C17   C18   A    
C46   O18   S    
C43   C44   A    
C68   H35   S    
C53   C58   A    
O5    V1    S    
O8    C3    A    
C54   C55   A    
C67   H30   S    
O23   C63   A    
C35   C36   A    
C66   H27   S    
O7    V2    S    
O4    V1    S    
O3    V1    S    
V1    O10   S    
C8    O12   S    
C21   C26   A    
C30   H10   S    
C42   C46   A    
C65   H24   S    
C57   H20   S    
C19   N2    A    
C36   C37   A    
C40   C41   A    
C20   O14   S    
O27   V4    S    
C68   H33   S    
C34   C35   A    
C7    O11   S    
C5    O29   S    
C42   C43   A    
C50   H15   S    
C56   H19   S    
C13   C14   A    
O31   H36   S    
C8    C9    A    
C60   C67   S    
O23   V3    S    
O29   H22   S    
O9    C4    A    
O22   V3    S    
O25   V4    S    
V2    O10   S    
O30   H23   S    
N3    C58   S    
C34   O16   S    
