data_mof_unit_44153.cif
_audit_creation_date              2012-12-10T17:24:38-0500
_audit_creation_method            fapswitch 2.2
_symmetry_space_group_name_H-M    P1
_symmetry_Int_Tables_number       1
_space_group_crystal_system       triclinic
_cell_length_a                    18.665715
_cell_length_b                    18.770453
_cell_length_c                    18.70107
_cell_angle_alpha                 109.278999
_cell_angle_beta                  109.57139
_cell_angle_gamma                 109.066572
_cell_volume                      5074.47929229

loop_
_atom_site_label
_atom_site_type_symbol
_atom_type_description
_atom_site_fract_x
_atom_site_fract_y
_atom_site_fract_z
_atom_type_partial_charge
C1    C     C_R   0.619824 0.619628 0.498837 0.982695
C2    C     C_3   0.240829 0.452031 0.174853 0.443701
C3    C     C_3   0.226828 0.419691 0.236331 0.390854
C4    C     C_3   0.312455 0.499870 0.312089 -0.068494
C5    C     C_R   0.605754 0.771344 0.498395 0.400385
C6    C     C_R   0.615638 0.855471 0.532451 0.441980
C7    C     C_R   0.694827 0.926243 0.560304 -0.297602
C8    C     C_R   0.759697 0.912977 0.548042 -0.229129
C9    C     C_R   0.751273 0.829463 0.516141 0.003114
C10   C     C_R   0.678848 0.760442 0.501805 -0.050065
C11   C     C_R   0.813928 0.813647 0.498592 -0.098085
C12   C     C_R   0.378970 0.499579 0.379227 0.959786
C13   C     C_R   0.811539 0.733301 0.476677 -0.022861
C14   C     C_R   0.750869 0.670800 0.482122 0.012050
C15   C     C_R   0.683124 0.683832 0.492978 -0.142434
C16   C     C_R   0.871301 0.715817 0.453485 -0.261104
C17   C     C_R   0.876419 0.640992 0.443139 0.436999
C18   C     C_R   0.821829 0.581842 0.457194 0.406379
C19   C     C_R   0.761776 0.598585 0.478949 -0.356284
C20   C     C_R   0.762951 0.662075 0.785677 0.512007
C21   C     C_R   0.805251 0.729806 0.871801 0.421631
C22   C     C_R   0.847765 0.718249 0.940864 -0.351509
C23   C     C_R   0.380514 0.380049 0.501205 0.917263
C24   C     C_R   0.852638 0.642619 0.923462 -0.211668
C25   C     C_R   0.807506 0.573169 0.836948 0.016065
C26   C     C_R   0.752856 0.578524 0.768833 -0.152636
C27   C     C_R   0.817251 0.499235 0.816942 -0.128099
C28   C     C_R   0.763562 0.424563 0.734278 0.059651
C29   C     C_R   0.694122 0.422000 0.671368 0.077235
C30   C     C_R   0.691307 0.500822 0.687272 -0.197570
C31   C     C_R   0.774888 0.350571 0.714909 -0.167383
C32   C     C_R   0.714146 0.273204 0.637352 -0.120565
C33   C     C_R   0.640071 0.267265 0.579238 -0.167788
C34   C     C_R   0.622238 0.500603 0.621120 0.933615
C35   C     C_R   0.629109 0.339835 0.596173 -0.178983
C36   C     C_R   0.380806 0.396246 0.664915 0.492675
C37   C     C_R   0.365439 0.417187 0.735570 -0.359408
C38   C     C_R   0.287191 0.363220 0.726901 0.446255
C39   C     C_R   0.226946 0.286412 0.648499 -0.168480
C40   C     C_R   0.240224 0.265980 0.575618 -0.081374
C41   C     C_R   0.312311 0.326494 0.580377 -0.047354
C42   C     C_R   0.183498 0.185595 0.498489 -0.133712
C43   C     C_R   0.185309 0.170696 0.420391 0.077994
C44   C     C_R   0.244991 0.238931 0.419874 0.054941
C45   C     C_3   0.263445 0.549234 0.330380 -0.189767
C46   C     C_R   0.312857 0.313996 0.501024 -0.190373
C47   C     C_R   0.126663 0.090189 0.341878 -0.161894
C48   C     C_R   0.121705 0.080914 0.263136 -0.144499
C49   C     C_R   0.173513 0.151519 0.260738 -0.125052
C50   C     C_R   0.233995 0.229916 0.337814 -0.115944
C51   C     C_R   0.001830 0.619670 0.122340 0.868503
C52   C     C_R   0.124461 0.499853 0.124356 0.949788
C53   C     C_R   0.004495 0.380422 0.884249 0.857501
C54   C     C_R   0.883437 0.499799 0.883254 0.841881
C55   C     C_R   0.000471 0.879933 0.381008 0.839846
C56   C     C_3   0.176420 0.467348 0.253579 -0.293809
C57   C     C_R   0.880300 0.880553 0.500234 0.844084
C58   C     C_R   0.998821 0.119647 0.619183 0.842078
C59   C     C_R   0.119316 0.118572 0.498636 0.844657
C60   C     C_R   0.166052 0.765964 0.278329 0.466982
C61   C     C_R   0.240914 0.847810 0.330047 0.492332
C62   C     C_R   0.235189 0.919934 0.375249 -0.363811
C63   C     C_R   0.156555 0.909331 0.371624 -0.199663
C64   C     C_R   0.079665 0.827503 0.316466 0.033416
C65   C     C_R   0.082309 0.757871 0.261394 -0.129822
C66   C     C_R   0.000237 0.813719 0.315056 -0.142446
C67   C     C_3   0.191397 0.500363 0.191882 -0.099081
C68   C     C_R   0.920769 0.736921 0.250512 0.089375
C69   C     C_R   0.920413 0.675570 0.182523 0.091420
C70   C     C_R   0.001693 0.684623 0.190257 -0.188398
C71   C     C_R   0.841111 0.720891 0.250789 -0.142676
C72   C     C_R   0.762099 0.650090 0.180554 -0.132527
C73   C     C_R   0.760569 0.594712 0.108598 -0.143331
C74   C     C_R   0.838502 0.607165 0.108929 -0.158881
C75   C     C_R   0.984925 0.386939 0.727313 -0.156849
C76   C     C_R   0.987587 0.396685 0.657460 -0.130566
C77   C     C_R   0.002681 0.341754 0.601125 -0.133559
C78   C     C_3   0.277196 0.582244 0.267683 -0.144235
C79   C     C_R   0.010059 0.273929 0.611582 -0.137146
C80   C     C_R   0.001941 0.259487 0.679112 0.098276
C81   C     C_R   0.996770 0.320895 0.741731 0.072478
C82   C     C_R   0.998596 0.185539 0.685644 -0.171401
C83   C     C_R   0.997501 0.175766 0.757325 -0.018196
C84   C     C_R   0.008515 0.244888 0.827187 0.071226
C85   C     C_R   0.003993 0.314878 0.817036 -0.172969
C86   C     C_R   0.986187 0.098871 0.761452 -0.162141
C87   C     C_R   0.995816 0.094785 0.837106 0.505999
C88   C     C_R   0.016647 0.167833 0.910062 -0.289183
C89   C     C_3   0.327642 0.533256 0.250486 -0.322448
C90   C     C_R   0.023047 0.241861 0.905346 -0.164240
H1    H     H_    0.113760 0.440095 0.253275 0.175565
H2    H     H_    0.705990 0.991772 0.589768 0.161358
H3    H     H_    0.817780 0.969361 0.566676 0.164744
H4    H     H_    0.915675 0.760387 0.443744 0.186302
H5    H     H_    0.727240 0.555608 0.496694 0.186616
H6    H     H_    0.590534 0.206143 0.520629 0.136073
H7    H     H_    0.881917 0.769801 0.007831 0.165958
H8    H     H_    0.891458 0.638861 0.978429 0.156889
H9    H     H_    0.274548 0.589750 0.395849 0.179556
H10   H     H_    0.829733 0.351089 0.759943 0.134323
H11   H     H_    0.723028 0.216955 0.623849 0.141042
H12   H     H_    0.567125 0.327970 0.550702 0.170274
H13   H     H_    0.167082 0.145574 0.199023 0.150888
H14   H     H_    0.416515 0.473133 0.798312 0.150112
H15   H     H_    0.169076 0.243601 0.645088 0.165415
H16   H     H_    0.083198 0.034030 0.339996 0.141796
H17   H     H_    0.075718 0.019521 0.203513 0.138814
H18   H     H_    0.297360 0.649451 0.279661 0.227908
H19   H     H_    0.269925 0.283125 0.331199 0.201131
H20   H     H_    0.698819 0.541397 0.052689 0.138847
H21   H     H_    0.292380 0.983771 0.416369 0.159644
H22   H     H_    0.156381 0.966356 0.410845 0.166859
H23   H     H_    0.838553 0.762646 0.304667 0.144817
H24   H     H_    0.701747 0.639341 0.181193 0.137056
H25   H     H_    0.832804 0.562928 0.050403 0.148797
H26   H     H_    0.027191 0.167371 0.970457 0.142332
H27   H     H_    0.390845 0.560546 0.251802 0.166328
H28   H     H_    0.972920 0.431505 0.768948 0.148592
H29   H     H_    0.979383 0.447953 0.647948 0.147989
H30   H     H_    0.007554 0.350954 0.548415 0.142928
H31   H     H_    0.022768 0.233999 0.566371 0.151029
H32   H     H_    0.969013 0.040681 0.706177 0.160751
H33   H     H_    0.040239 0.296588 0.964058 0.196804
O1    O     O_R   0.592010 0.539900 0.448660 -0.656019
O2    O     O_R   0.054870 0.643310 0.094700 -0.581182
O3    O     O_R   0.044440 0.448270 0.096110 -0.646145
O4    O     O_R   0.147870 0.551680 0.096080 -0.572977
O5    O     O_R   0.952810 0.356650 0.912880 -0.634020
O6    O     O_R   0.056240 0.460060 0.912840 -0.614160
O7    O     O_R   0.859800 0.448280 0.911500 -0.631299
O8    O     O_R   0.963240 0.551690 0.911470 -0.628748
O9    O     O_R   0.052860 0.908430 0.461230 -0.606493
O10   O     O_R   0.948620 0.908400 0.356980 -0.633589
O11   O     O_R   0.960510 0.908410 0.552140 -0.625487
O12   O     O_R   0.591210 0.643320 0.551330 -0.546914
O13   O     O_R   0.856270 0.908390 0.447890 -0.621063
O14   O     O_R   0.051380 0.091620 0.643040 -0.613396
O15   O     O_R   0.947140 0.091600 0.538800 -0.631223
O16   O     O_R   0.143730 0.091640 0.552130 -0.618480
O17   O     O_R   0.039490 0.091610 0.447890 -0.626841
O18   O     O_R   0.408080 0.448290 0.356360 -0.629133
O19   O     O_R   0.407280 0.551710 0.459030 -0.612826
O20   O     O_R   0.408790 0.356680 0.448670 -0.653937
O21   O     O_R   0.407990 0.460100 0.551340 -0.582101
O22   O     O_R   0.592720 0.448290 0.540970 -0.664458
O23   O     O_R   0.591920 0.551710 0.643640 -0.550133
O24   O     O_R   0.951440 0.539900 0.094740 -0.630792
Zn1   Zn    Zn3+2 0.500540 0.430950 0.431450 0.926659
Zn2   Zn    Zn3+2 0.499460 0.569050 0.568550 1.070877
Zn3   Zn    Zn3+2 0.934770 0.430930 0.003810 0.947172
Zn4   Zn    Zn3+2 0.072900 0.569020 0.003770 1.010581
Zn5   Zn    Zn3+2 0.069600 0.000030 0.569620 0.976611
Zn6   Zn    Zn3+2 0.930400 0.000000 0.430410 0.946297
O25   O     O_3   0.937070 0.629396 0.421310 -0.758951
H34   H     H_    0.931570 0.572558 0.412900 0.364436
O26   O     O_3   0.747614 0.683250 0.720067 -0.609689
C91   C     C_3   0.823074 0.707999 0.710864 0.032454
H35   H     H_    0.805687 0.659388 0.646078 0.145437
H36   H     H_    0.880050 0.710371 0.759527 0.125875
C92   C     C_3   0.852988 0.797176 0.717502 -0.266114
H37   H     H_    0.799098 0.795904 0.667503 0.228349
H38   H     H_    0.870013 0.845853 0.782551 0.274997
C93   C     C_3   0.932655 0.824615 0.705281 -0.856731
H39   H     H_    0.990961 0.840034 0.762962 0.264028
H40   H     H_    0.945409 0.882951 0.697676 0.298825
H41   H     H_    0.921810 0.772216 0.646247 0.256318
O27   O     O_3   0.807976 0.807814 0.885757 -0.752509
H42   H     H_    0.841183 0.848864 0.949442 0.325478
O28   O     O_3   0.466008 0.435477 0.682418 -0.628333
C94   C     C_3   0.508887 0.393789 0.714732 0.058918
H43   H     H_    0.537358 0.373470 0.674069 0.149970
H44   H     H_    0.465254 0.333219 0.710473 0.129698
C95   C     C_3   0.582051 0.456849 0.809404 -0.331784
H45   H     H_    0.628637 0.514620 0.813207 0.240129
H46   H     H_    0.554504 0.479068 0.850814 0.211251
C96   C     C_3   0.630408 0.414164 0.845334 -0.930424
H47   H     H_    0.651701 0.383683 0.800986 0.279504
H48   H     H_    0.587247 0.363629 0.852857 0.259087
H49   H     H_    0.688987 0.463658 0.909983 0.259717
O29   O     O_3   0.270035 0.380843 0.795109 -0.758422
H50   H     H_    0.319357 0.437112 0.846079 0.331827
O30   O     O_3   0.178292 0.695468 0.251162 -0.738218
H51   H     H_    0.134650 0.648295 0.251471 0.304934
O31   O     O_3   0.319121 0.854697 0.336955 -0.758816
H52   H     H_    0.364363 0.916792 0.371981 0.313091
O32   O     O_3   0.986031 0.019171 0.838153 -0.794026
H53   H     H_    0.994778 0.026790 0.896058 0.331211
O33   O     O_3   0.220371 0.399547 0.089057 -0.668073
C97   C     C_3   0.287377 0.379652 0.091375 0.074930
H54   H     H_    0.300352 0.350371 0.134001 0.170698
H55   H     H_    0.348222 0.439347 0.115619 0.146232
C98   C     C_3   0.259305 0.314696 0.998877 -0.299166
H56   H     H_    0.200882 0.253299 0.975298 0.232491
H57   H     H_    0.241725 0.341118 0.954538 0.255955
C99   C     C_3   0.331848 0.295392 0.995801 -0.945836
H58   H     H_    0.390485 0.355549 0.017178 0.262498
H59   H     H_    0.309022 0.247662 0.927913 0.278700
H60   H     H_    0.349624 0.267738 0.038755 0.260177
O34   O     O_3   0.203297 0.335288 0.221427 -0.806302
H61   H     H_    0.145956 0.297773 0.166964 0.334293
O35   O     O_3   0.833874 0.512907 0.458101 -0.661550
C100  C     C_3   0.755399 0.432640 0.399186 0.055994
H62   H     H_    0.767101 0.391761 0.350948 0.160611
H63   H     H_    0.698530 0.437480 0.360608 0.135547
C101  C     C_3   0.732157 0.386885 0.448875 -0.305631
H64   H     H_    0.785585 0.374671 0.480136 0.227104
H65   H     H_    0.725220 0.428837 0.501093 0.232711
C102  C     C_3   0.646980 0.300847 0.387847 -0.940064
H66   H     H_    0.591894 0.312155 0.359571 0.257771
H67   H     H_    0.633356 0.267568 0.424723 0.268182
H68   H     H_    0.651878 0.258065 0.334316 0.256982
O36   O     O_3   0.524275 0.699076 0.455577 -0.779728
H69   H     H_    0.478930 0.716565 0.450330 0.362904
O37   O     O_3   0.551401 0.866831 0.548196 -0.654151
C103  C     C_3   0.527595 0.919873 0.517867 0.069771
H70   H     H_    0.455605 0.883237 0.475141 0.206927
H71   H     H_    0.555547 0.935650 0.477345 0.125829
C104  C     C_3   0.551676 0.002967 0.595294 -0.316808
H72   H     H_    0.522731 0.985963 0.634427 0.243205
H73   H     H_    0.623663 0.042047 0.638065 0.212753
C105  C     C_3   0.518390 0.057590 0.564882 -0.989250
H74   H     H_    0.541901 0.070617 0.520945 0.257349
H75   H     H_    0.542740 0.120341 0.622212 0.276855
H76   H     H_    0.445932 0.023313 0.529749 0.264633

loop_
_geom_bond_atom_site_label_1
_geom_bond_atom_site_label_2
_ccdc_geom_bond_type
C8    C9    A    
C66   C68   A    
C79   C80   A    
C91   H35   S    
O13   Zn6   S    
C97   C98   S    
C34   O23   A    
O35   C100  S    
O8    Zn4   S    
C93   H39   S    
C43   C44   A    
C77   H30   S    
O22   Zn1   S    
C27   C54   S    
C7    C8    A    
C101  H64   S    
O31   H52   S    
C54   O8    A    
C79   H31   S    
C36   O28   S    
O21   Zn2   S    
C100  H63   S    
C24   H8    S    
C59   O17   A    
O19   Zn2   S    
C28   C29   A    
C93   H40   S    
C37   C38   A    
O6    Zn4   S    
C105  H76   S    
C10   C15   A    
C103  H71   S    
C5    C6    A    
C34   O22   A    
C95   C96   S    
C48   H17   S    
C94   H43   S    
C7    H2    S    
C65   C70   A    
O23   Zn2   S    
C72   H24   S    
O16   Zn5   S    
C12   O18   A    
C71   H23   S    
C78   H18   S    
C18   C19   A    
C90   H33   S    
C63   H22   S    
C97   H55   S    
O30   H51   S    
O2    Zn4   S    
O18   Zn1   S    
O4    Zn4   S    
C96   H49   S    
C62   H21   S    
C31   C32   A    
C45   C56   S    
O12   Zn2   S    
C16   C17   A    
C100  C101  S    
C86   H32   S    
C47   C48   A    
C3    O34   S    
C41   C46   A    
O14   Zn5   S    
C45   C78   S    
C1    C15   S    
C51   C70   S    
C59   O16   A    
C4    C12   S    
C9    C10   A    
O3    Zn3   S    
O17   Zn6   S    
C72   C73   A    
C99   H60   S    
C35   H12   S    
C40   C42   A    
O34   H61   S    
C91   H36   S    
C23   C46   S    
C13   C14   A    
C23   O20   A    
C36   C41   A    
C97   H54   S    
C75   H28   S    
C84   C90   A    
C17   O25   S    
C52   O4    A    
C44   C46   A    
C87   O32   S    
C2    O33   S    
C4    C45   S    
C56   H1    S    
C78   C89   S    
C60   O30   S    
O20   Zn1   S    
C54   O7    A    
C76   H29   S    
C38   O29   S    
C100  H62   S    
C30   C34   S    
C51   O2    A    
C98   C99   S    
C73   H20   S    
C93   H41   S    
C24   C25   A    
C80   C82   A    
C2    C67   S    
C45   H9    S    
C103  C104  S    
C102  H66   S    
O27   H42   S    
C52   O3    A    
O37   C103  S    
C68   C69   A    
C25   C26   A    
C95   H45   S    
C82   C83   A    
C50   H19   S    
C63   C64   A    
O33   C97   S    
O26   C91   S    
C88   H26   S    
C2    C89   S    
C75   C76   A    
C92   C93   S    
O7    Zn3   S    
C29   C30   A    
C53   O5    A    
C105  H74   S    
O1    Zn1   S    
C3    C56   S    
C104  H73   S    
C83   C84   A    
C6    O37   S    
C51   O24   A    
C47   H16   S    
O11   Zn5   S    
O24   Zn3   S    
C62   C63   A    
C14   C15   A    
C17   C18   A    
C77   C79   A    
C69   C74   A    
C57   O13   A    
O28   C94   S    
C31   H10   S    
C84   C85   A    
C9    C11   A    
C64   C66   A    
O25   H34   S    
C95   H46   S    
C11   C57   S    
O15   Zn6   S    
O5    Zn3   S    
C96   H47   S    
C88   C90   A    
C60   C65   A    
C26   C30   A    
C91   C92   S    
C102  H68   S    
O9    Zn5   S    
C49   C50   A    
O10   Zn6   S    
C57   O11   A    
C53   O6    A    
C42   C43   A    
C3    C4    S    
C33   H6    S    
C92   H38   S    
C39   C40   A    
C55   C66   S    
C19   H5    S    
O29   H50   S    
C58   O14   A    
C104  C105  S    
C4    C89   S    
C101  C102  S    
C44   C50   A    
C39   H15   S    
C5    O36   S    
C40   C41   A    
C61   O31   S    
C20   O26   S    
C20   C21   A    
C86   C87   A    
C14   C19   A    
C28   C31   A    
C75   C81   A    
C8    H3    S    
C89   H27   S    
C80   C81   A    
C42   C59   S    
C49   H13   S    
C37   H14   S    
C6    C7    A    
C25   C27   A    
C56   C67   S    
C29   C35   A    
C16   H4    S    
C21   O27   S    
C67   C78   S    
C73   C74   A    
C98   H56   S    
C58   C82   S    
C2    C3    S    
C1    O1    A    
C5    C10   A    
C105  H75   S    
C102  H67   S    
C55   O10   A    
C32   C33   A    
C76   C77   A    
C11   C13   A    
C58   O15   A    
C104  H72   S    
C38   C39   A    
C20   C26   A    
C52   C67   S    
C68   C71   A    
C48   C49   A    
C74   H25   S    
C64   C65   A    
C96   H48   S    
C33   C35   A    
C12   O19   A    
C18   O35   S    
C22   C24   A    
C103  H70   S    
C61   C62   A    
C23   O21   A    
C92   H37   S    
C69   C70   A    
C99   H58   S    
C71   C72   A    
C83   C86   A    
O36   H69   S    
C87   C88   A    
C36   C37   A    
C55   O9    A    
C13   C16   A    
C1    O12   A    
C27   C28   A    
C22   H7    S    
C32   H11   S    
C60   C61   A    
C53   C85   S    
C94   H44   S    
O32   H53   S    
C21   C22   A    
C101  H65   S    
C43   C47   A    
C81   C85   A    
C98   H57   S    
C99   H59   S    
C94   C95   S    
