data_mof_unit_29347.cif
_audit_creation_date              2012-12-11T14:36:09-0500
_audit_creation_method            fapswitch 2.2
_symmetry_space_group_name_H-M    P1
_symmetry_Int_Tables_number       1
_space_group_crystal_system       triclinic
_cell_length_a                    14.688453
_cell_length_b                    15.97156
_cell_length_c                    6.932694
_cell_angle_alpha                 90.000486
_cell_angle_beta                  81.03623
_cell_angle_gamma                 90.000364
_cell_volume                      1606.52970474

loop_
_atom_site_label
_atom_site_type_symbol
_atom_type_description
_atom_site_fract_x
_atom_site_fract_y
_atom_site_fract_z
_atom_type_partial_charge
O1    O     O_R   0.337460 0.413110 0.524760 -0.534043
O2    O     O_R   0.662540 0.913110 0.475240 -0.534052
O3    O     O_R   0.348690 0.587910 0.191230 -0.532416
O4    O     O_R   0.651310 0.087910 0.808770 -0.532419
O5    O     O_R   0.166530 0.586890 0.082470 -0.495441
O6    O     O_R   0.833470 0.086890 0.917530 -0.495432
C1    C     C_R   0.370112 0.616252 0.353619 0.779162
C2    C     C_R   0.629891 0.116253 0.646382 0.779153
O7    O     O_R   0.348700 0.413830 0.191250 -0.506565
O8    O     O_R   0.651300 0.913830 0.808750 -0.506590
O9    O     O_R   0.166530 0.411570 0.082490 -0.539562
O10   O     O_R   0.833470 0.911570 0.917510 -0.539548
C3    C     C_R   0.370740 0.385111 0.354071 0.741207
C4    C     C_R   0.629265 0.885107 0.645931 0.741223
O11   O     O_R   0.337460 0.588430 0.524740 -0.550352
O12   O     O_R   0.662540 0.088430 0.475260 -0.550349
O13   O     O_3   0.192230 0.499460 0.407330 -0.366035
O14   O     O_3   0.807770 0.999460 0.592670 -0.366020
V1    V     V_3+5 0.263080 0.500100 0.108540 1.694471
V2    V     V_3+5 0.736920 0.000100 0.891460 1.694468
O15   O     O_R   0.155290 0.412090 0.756570 -0.555462
O16   O     O_R   0.844710 0.912090 0.243430 -0.555464
C5    C     C_R   0.132768 0.382918 0.933635 0.770746
C6    C     C_R   0.867232 0.882918 0.066364 0.770715
O17   O     O_R   0.155290 0.586170 0.756550 -0.543190
O18   O     O_R   0.844710 0.086170 0.243450 -0.543187
C7    C     C_R   0.134142 0.616573 0.932912 0.778658
C8    C     C_R   0.865861 0.116571 0.067086 0.778711
V3    V     V_3+5 0.240910 0.499900 0.616030 1.607680
V4    V     V_3+5 0.759090 0.999900 0.383970 1.607679
O19   O     O_3   0.311760 0.500540 0.867100 -0.362021
O20   O     O_3   0.688240 0.000540 0.132900 -0.362046
C9    C     C_3   0.104414 0.768645 0.061875 0.711883
C10   C     C_3   0.895586 0.268639 0.938133 0.711844
C11   C     C_3   0.026705 0.835594 0.114457 -0.417811
C12   C     C_3   0.973275 0.335615 0.885648 -0.417848
H1    H     H_    0.008687 0.841954 0.275795 0.179686
H2    H     H_    0.991267 0.342045 0.724327 0.179684
C13   C     C_3   0.973439 0.658103 0.102855 0.159500
C14   C     C_3   0.026563 0.158099 0.897134 0.159603
C15   C     C_3   0.032314 0.716756 0.776146 -0.370326
C16   C     C_3   0.967689 0.216752 0.223854 -0.370383
C17   C     C_3   0.063972 0.688399 0.970756 -0.187937
C18   C     C_3   0.936032 0.188395 0.029241 -0.187970
C19   C     C_3   0.938137 0.811841 0.029994 -0.150778
C20   C     C_3   0.061863 0.311840 0.970001 -0.150788
C21   C     C_3   0.899177 0.728959 0.130353 0.237285
C22   C     C_3   0.100800 0.228974 0.869541 0.237256
C23   C     C_3   0.968037 0.794126 0.807803 -0.293849
C24   C     C_3   0.032005 0.294094 0.192184 -0.293946
H3    H     H_    0.907177 0.783226 0.733653 0.208802
H4    H     H_    0.092884 0.283148 0.266228 0.208819
H5    H     H_    0.946918 0.603766 0.027740 0.162568
H6    H     H_    0.053107 0.103788 0.972307 0.162582
H7    H     H_    0.431100 0.694577 0.646554 0.183788
H8    H     H_    0.568911 0.194590 0.353461 0.183802
C25   C     C_2   0.440485 0.681414 0.342426 -0.188716
C26   C     C_2   0.559528 0.181420 0.657583 -0.188708
C27   C     C_2   0.466155 0.714357 0.504456 -0.097241
C28   C     C_2   0.533864 0.214375 0.495562 -0.097260
C29   C     C_2   0.555903 0.821102 0.654515 0.162824
C30   C     C_2   0.444105 0.321109 0.345498 0.162805
C31   C     C_2   0.542593 0.775194 0.495239 0.332858
C32   C     C_2   0.457439 0.275227 0.504798 0.332898
Cl1   Cl    Cl    0.155583 0.747383 0.275091 -0.563846
Cl2   Cl    Cl    0.844470 0.247375 0.724855 -0.563927
Cl3   Cl    Cl    0.799265 0.693841 0.033844 -0.526524
Cl4   Cl    Cl    0.200773 0.193866 0.965801 -0.526534
Cl5   Cl    Cl    0.618479 0.781101 0.269790 -0.528370
Cl6   Cl    Cl    0.381613 0.281197 0.730321 -0.528249
Cl7   Cl    Cl    0.479912 0.812752 0.878076 -0.545879
Cl8   Cl    Cl    0.520072 0.312729 0.121917 -0.545850
H9    H     H_    0.472508 0.700774 0.198138 0.232305
H10   H     H_    0.527509 0.200776 0.801877 0.232330
Cl9   Cl    Cl    0.197035 0.813118 0.892365 -0.518945
Cl10  Cl    Cl    0.802923 0.313076 0.107602 -0.518955
H11   H     H_    0.051171 0.898414 0.059448 0.197745
H12   H     H_    0.948806 0.398408 0.940812 0.197758
Cl11  Cl    Cl    0.989119 0.615962 0.334871 -0.623261
Cl12  Cl    Cl    0.010887 0.115896 0.665164 -0.623184
H13   H     H_    0.876575 0.741340 0.288504 0.152288
H14   H     H_    0.123328 0.241374 0.711384 0.152227
H15   H     H_    0.994959 0.664597 0.716966 0.234833
H16   H     H_    0.005011 0.164582 0.283088 0.234800
H17   H     H_    0.092419 0.731538 0.664153 0.267657
H18   H     H_    0.907574 0.231569 0.335812 0.267673
H19   H     H_    0.004604 0.849763 0.736577 0.202682
H20   H     H_    0.995487 0.349732 0.263500 0.202622

loop_
_geom_bond_atom_site_label_1
_geom_bond_atom_site_label_2
_ccdc_geom_bond_type
H7    C27   S    
O13   V3    S    
C23   H19   S    
O4    C2    A    
V1    O19   S    
C10   Cl2   S    
C9    Cl1   S    
O9    V1    S    
C6    C19   S    
C11   H1    S    
O3    C1    A    
C9    C11   S    
C25   C27   D    
O12   V4    S    
C15   H15   S    
C15   C23   S    
C29   C31   D    
O7    C3    A    
C30   C32   D    
C2    C26   S    
O5    C7    A    
O7    V1    S    
O6    C8    A    
C3    C30   S    
C31   Cl5   S    
O8    V2    S    
C23   H3    S    
C24   H4    S    
C14   Cl12  S    
O3    V1    S    
O14   V4    S    
C32   Cl6   S    
C10   C12   S    
C24   H20   S    
C29   Cl7   S    
C1    O11   A    
C2    O12   A    
C5    C20   S    
C15   C17   S    
C16   C18   S    
C21   Cl3   S    
C25   H9    S    
C9    Cl9   S    
O11   V3    S    
C19   C21   S    
O17   V3    S    
C20   C22   S    
C9    C17   S    
C16   H16   S    
O8    C4    A    
C13   C17   S    
C4    C29   S    
O15   V3    S    
C8    C18   S    
H8    C28   S    
C13   Cl11  S    
C22   H14   S    
C19   C23   S    
O10   V2    S    
O1    V3    S    
C30   Cl8   S    
C22   Cl4   S    
C12   C20   S    
C16   C24   S    
C16   H18   S    
O18   V4    S    
C14   H6    S    
O15   C5    A    
O16   C6    A    
O1    C3    A    
C11   C19   S    
C15   H17   S    
C26   H10   S    
C13   C21   S    
V2    O20   S    
C14   C22   S    
C10   C18   S    
O10   C6    A    
O16   V4    S    
C27   C31   S    
O5    V1    S    
O17   C7    A    
O6    V2    S    
C20   C24   S    
O18   C8    A    
O2    V4    S    
C28   C32   S    
C12   H2    S    
V3    O19   S    
C12   H12   S    
V4    O20   S    
C13   H5    S    
O9    C5    A    
O13   V1    S    
C11   H11   S    
O14   V2    S    
C21   H13   S    
O2    C4    A    
O4    V2    S    
C7    C17   S    
C14   C18   S    
C26   C28   D    
C1    C25   S    
C10   Cl10  S    
