data_mof_unit_26293.cif
_audit_creation_date              2012-12-10T17:10:24-0500
_audit_creation_method            fapswitch 2.2
_symmetry_space_group_name_H-M    P1
_symmetry_Int_Tables_number       1
_space_group_crystal_system       triclinic
_cell_length_a                    10.804978
_cell_length_b                    12.979408
_cell_length_c                    11.6427
_cell_angle_alpha                 99.530325
_cell_angle_beta                  96.515393
_cell_angle_gamma                 92.807605
_cell_volume                      1596.03107682

loop_
_atom_site_label
_atom_site_type_symbol
_atom_type_description
_atom_site_fract_x
_atom_site_fract_y
_atom_site_fract_z
_atom_type_partial_charge
C1    C     C_R   0.502189 0.299138 0.478644 0.899495
C2    C     C_R   0.497936 0.700853 0.521292 0.877678
C3    C     C_R   0.499712 0.814314 0.534427 -0.021184
C4    C     C_R   0.500222 0.185606 0.465373 -0.015740
C5    C     C_R   0.443306 0.014725 0.347121 -0.143779
C6    C     C_R   0.556201 0.985213 0.652713 -0.150059
C7    C     C_R   0.455526 0.122961 0.356952 -0.113710
C8    C     C_R   0.544211 0.876997 0.642872 -0.095578
C9    C     C_R   0.536522 0.139476 0.563081 -0.167473
C10   C     C_R   0.463049 0.860379 0.436742 -0.198345
C11   C     C_R   0.523471 0.031372 0.554281 0.168548
C12   C     C_R   0.475956 0.968520 0.445552 0.182012
C13   C     C_R   0.372781 0.405486 0.017447 -0.220285
C14   C     C_R   0.626940 0.594623 0.982558 -0.222679
C15   C     C_R   0.385959 0.414332 0.140537 0.111067
C16   C     C_R   0.613499 0.586148 0.859534 0.097585
C17   C     C_R   0.557091 0.539549 0.159356 0.074930
C18   C     C_R   0.443528 0.459698 0.840474 0.058585
C19   C     C_R   0.546734 0.533905 0.035877 0.062863
C20   C     C_R   0.453418 0.465744 0.964014 0.050191
C21   C     C_R   0.260305 0.491276 0.495359 0.875017
C22   C     C_R   0.739589 0.509313 0.504901 0.857929
C23   C     C_R   0.114238 0.356005 0.627913 0.332026
C24   C     C_R   0.887909 0.650718 0.380878 0.287812
C25   C     C_R   0.071781 0.338533 0.732608 -0.291573
C26   C     C_R   0.929780 0.670802 0.276876 -0.291840
C27   C     C_R   0.973894 0.392252 0.775389 0.415273
C28   C     C_R   0.026449 0.616877 0.231386 0.438160
C29   C     C_R   0.911774 0.457763 0.708191 -0.222304
C30   C     C_R   0.088227 0.548761 0.295607 -0.190469
C31   C     C_R   0.949937 0.473573 0.599493 -0.034105
C32   C     C_R   0.049976 0.529842 0.403204 -0.044823
C33   C     C_R   0.064540 0.436184 0.570313 -0.023341
C34   C     C_R   0.935710 0.567105 0.433208 -0.016812
C35   C     C_R   0.877660 0.524452 0.518773 -0.062692
C36   C     C_R   0.122125 0.477388 0.482886 -0.072192
Cu1   Cu    Cu3+1 0.509250 0.507730 0.615930 0.997361
Cu2   Cu    Cu3+1 0.490750 0.492270 0.384070 0.990253
H1    H     H_    0.299721 0.352303 0.964643 0.169457
H2    H     H_    0.699728 0.648033 0.035449 0.162798
H3    H     H_    0.109918 0.277954 0.777039 0.191359
H4    H     H_    0.893792 0.734367 0.236404 0.186184
H5    H     H_    0.837492 0.498615 0.745396 0.203576
H6    H     H_    0.162434 0.508822 0.257178 0.203730
H7    H     H_    0.427482 0.811993 0.353216 0.166107
H8    H     H_    0.572105 0.187819 0.646606 0.149793
H9    H     H_    0.572916 0.842297 0.719242 0.164677
H10   H     H_    0.426924 0.157701 0.280589 0.167131
H11   H     H_    0.407304 0.967386 0.263213 0.164401
H12   H     H_    0.592191 0.032575 0.736615 0.161515
H13   H     H_    0.372129 0.407350 0.784640 0.160392
H14   H     H_    0.629584 0.590734 0.214962 0.099069
H15   H     H_    0.676034 0.633062 0.819463 0.150136
H16   H     H_    0.322932 0.367943 0.180702 0.146479
N1    N     N_R   0.523180 0.519350 0.790130 -0.204947
N2    N     N_R   0.476820 0.480650 0.209870 -0.196458
O1    O     O_R   0.506570 0.354460 0.582000 -0.568503
O2    O     O_R   0.493430 0.645540 0.418000 -0.598700
O3    O     O_R   0.490940 0.341410 0.386200 -0.591406
O4    O     O_R   0.509060 0.658590 0.613800 -0.582571
O5    O     O_R   0.327470 0.506520 0.597900 -0.578481
O6    O     O_R   0.672530 0.493480 0.402100 -0.587624
O7    O     O_R   0.311840 0.493460 0.402100 -0.598701
O8    O     O_R   0.688160 0.506540 0.597900 -0.603664
S1    S     S_3+6 0.083800 0.647804 0.104482 0.047504
O9    O     O_2   0.181980 0.737055 0.140055 -0.304870
O10   O     O_2   0.141760 0.555147 0.041901 -0.237960
O11   O     O_3   0.967497 0.682825 0.013036 -0.497649
H17   H     H_    0.959504 0.758087 0.041924 0.352592
S2    S     S_3+6 0.916113 0.364700 0.903502 0.051104
O12   O     O_2   0.018724 0.329801 0.983623 -0.240187
O13   O     O_2   0.863750 0.459931 0.967059 -0.259305
O14   O     O_3   0.802202 0.268032 0.865540 -0.506075
H18   H     H_    0.734899 0.297986 0.818974 0.329777
S3    S     S_3+6 0.189818 0.251321 0.554902 -0.001282
O15   O     O_2   0.223895 0.270188 0.438302 -0.297781
O16   O     O_2   0.304219 0.232917 0.632683 -0.355099
O17   O     O_3   0.092007 0.142961 0.531333 -0.453101
H19   H     H_    0.097207 0.117887 0.607484 0.366696
S4    S     S_3+6 0.826831 0.758402 0.465256 0.017875
O18   O     O_2   0.771316 0.729878 0.569107 -0.327148
O19   O     O_2   0.933272 0.839175 0.509851 -0.201450
O20   O     O_3   0.721197 0.812339 0.380318 -0.515749
H20   H     H_    0.670038 0.752638 0.330815 0.318556

loop_
_geom_bond_atom_site_label_1
_geom_bond_atom_site_label_2
_ccdc_geom_bond_type
C27   C29   A    
O14   H18   S    
C19   C20   A    
C30   H6    S    
C21   C36   S    
C22   C35   S    
C32   C36   A    
C24   C26   A    
S4    O20   S    
C2    O4    A    
C33   C36   A    
C34   C35   A    
C16   H15   S    
Cu2   O2    S    
C24   S4    S    
C21   O7    A    
O11   H17   S    
S1    O10   D    
C31   C33   A    
S2    O12   D    
C21   O5    A    
C9    H8    S    
C29   H5    S    
C5    H11   S    
S2    O14   S    
C4    C7    A    
C17   H14   S    
C18   H13   S    
C13   H1    S    
C15   H16   S    
C5    C12   A    
S4    O19   D    
C3    C8    A    
C25   H3    S    
C6    C11   A    
C5    C7    A    
O17   H19   S    
C6    C8    A    
C23   C33   A    
C22   O8    A    
C24   C34   A    
C32   C34   A    
S3    O15   D    
Cu1   Cu2   S    
C1    O1    A    
C22   O6    A    
C9    C11   A    
O20   H20   S    
S1    O11   S    
C10   H7    S    
C6    H12   S    
S3    O16   D    
C17   N2    A    
C27   S2    S    
C10   C12   A    
C18   N1    A    
C1    O3    A    
C13   C15   A    
C14   C16   A    
Cu1   O8    S    
C26   H4    S    
Cu2   O7    S    
C13   C20   A    
C14   C19   A    
C23   S3    S    
S4    O18   D    
Cu1   O5    S    
C11   C12   A    
C2    O2    A    
C25   C27   A    
C26   C28   A    
C1    C4    S    
C15   N2    A    
C28   C30   A    
C2    C3    S    
C8    H9    S    
C29   C31   A    
C3    C10   A    
C7    H10   S    
C30   C32   A    
C31   C35   A    
C17   C19   A    
C28   S1    S    
C18   C20   A    
C23   C25   A    
S3    O17   S    
C16   N1    A    
Cu1   O4    S    
C14   H2    S    
Cu2   O3    S    
Cu1   N1    S    
Cu2   N2    S    
S1    O9    D    
S2    O13   D    
C4    C9    A    
Cu1   O1    S    
Cu2   O6    S    
