data_mof_unit_29824.cif
_audit_creation_date              2012-12-10T17:18:55-0500
_audit_creation_method            fapswitch 2.2
_symmetry_space_group_name_H-M    P1
_symmetry_Int_Tables_number       1
_space_group_crystal_system       triclinic
_cell_length_a                    9.625538
_cell_length_b                    10.869931
_cell_length_c                    13.517127
_cell_angle_alpha                 93.215032
_cell_angle_beta                  72.560752
_cell_angle_gamma                 88.959544
_cell_volume                      1346.2438409

loop_
_atom_site_label
_atom_site_type_symbol
_atom_type_description
_atom_site_fract_x
_atom_site_fract_y
_atom_site_fract_z
_atom_type_partial_charge
C1    C     C_R   0.493523 0.737326 0.512146 0.848898
C2    C     C_R   0.441160 0.502634 0.979314 0.104498
C3    C     C_R   0.482965 0.475562 0.870068 0.010857
C4    C     C_R   0.549962 0.506248 0.031521 -0.031655
C5    C     C_R   0.696907 0.472254 0.974437 0.030873
C6    C     C_R   0.734464 0.439991 0.868238 0.395219
C7    C     C_R   0.627112 0.431207 0.819859 -0.138555
C8    C     C_R   0.520512 0.545088 0.137875 0.335405
C9    C     C_R   0.767180 0.488561 0.131553 -0.301947
C10   C     C_R   0.379266 0.494501 0.814899 -0.073179
C11   C     C_R   0.219782 0.881576 0.622968 -0.206525
C12   C     C_R   0.422610 0.496092 0.699935 0.787393
C13   C     C_R   0.088418 0.947223 0.660311 -0.216261
C14   C     C_R   0.083459 0.073417 0.652505 0.438860
C15   C     C_R   0.212112 0.136281 0.612669 -0.202681
C16   C     C_R   0.348856 0.070996 0.571122 -0.016877
C17   C     C_R   0.349382 0.940067 0.573033 0.111341
C18   C     C_R   0.482354 0.871886 0.534448 -0.160984
C19   C     C_R   0.609838 0.932289 0.526679 -0.244175
C20   C     C_R   0.615736 0.059571 0.525123 0.449685
C21   C     C_R   0.486027 0.130340 0.535085 -0.176642
C22   C     C_R   0.923774 0.349745 0.347914 -0.358626
C23   C     C_R   0.495602 0.263265 0.511855 0.787110
C24   C     C_R   0.030719 0.276247 0.272303 0.328410
C25   C     C_R   0.173291 0.277135 0.275101 0.308181
C26   C     C_R   0.208951 0.346171 0.352615 -0.254898
C27   C     C_R   0.107022 0.425672 0.426318 0.161087
C28   C     C_R   0.958352 0.426978 0.424949 0.118442
C29   C     C_R   0.897075 0.573309 0.568716 0.477036
C30   C     C_R   0.044116 0.571835 0.568938 -0.015340
C31   C     C_R   0.577602 0.508449 0.301544 0.836262
C32   C     C_R   0.804204 0.468645 0.024959 -0.171395
C33   C     C_R   0.623034 0.516619 0.188982 -0.072306
C34   C     C_R   0.234240 0.526578 0.871378 -0.148313
C35   C     C_R   0.190576 0.535191 0.979242 -0.170529
C36   C     C_R   0.291157 0.518069 0.032643 -0.059719
Cu1   Cu    Cu3+1 0.359340 0.500010 0.500010 0.977467
Cu2   Cu    Cu3+1 0.640660 0.499990 0.499990 1.006699
H1    H     H_    0.850618 0.477739 0.169438 0.162986
H2    H     H_    0.219344 0.786168 0.640224 0.165311
H3    H     H_    0.990026 0.899607 0.696619 0.202214
H4    H     H_    0.201240 0.235267 0.620960 0.220947
H5    H     H_    0.813984 0.332874 0.351306 0.219732
H6    H     H_    0.317336 0.329767 0.353768 0.236146
H7    H     H_    0.074186 0.629196 0.626408 0.148743
H8    H     H_    0.915183 0.440105 0.983604 0.183759
H9    H     H_    0.154353 0.546240 0.832141 0.203633
H10   H     H_    0.248475 0.515175 0.115775 0.179917
H11   H     H_    0.078771 0.558864 0.022622 0.151477
H12   H     H_    0.660864 0.386903 0.742794 0.230510
H13   H     H_    0.704115 0.878674 0.527198 0.202804
N1    N     N_R   0.852480 0.498790 0.499000 -0.206052
N2    N     N_R   0.148360 0.498710 0.498970 -0.202685
O1    O     O_R   0.381190 0.680360 0.500010 -0.579834
O2    O     O_R   0.618760 0.680340 0.500000 -0.548910
O3    O     O_R   0.323240 0.499990 0.650990 -0.585385
O4    O     O_R   0.560820 0.499960 0.650980 -0.541417
O5    O     O_R   0.381240 0.319660 0.500000 -0.617872
O6    O     O_R   0.618810 0.319640 0.499990 -0.556533
O7    O     O_R   0.439180 0.500040 0.349020 -0.554950
O8    O     O_R   0.676760 0.500010 0.349010 -0.613107
Cl1   Cl    Cl    0.913428 0.150942 0.695882 -0.562979
O9    O     O_3   0.740209 0.114454 0.534876 -0.545486
C37   C     C_3   0.861032 0.089723 0.444818 0.120840
H14   H     H_    0.936753 0.163636 0.448203 0.207584
H15   H     H_    0.829152 0.094963 0.372534 0.148047
C38   C     C_3   0.946277 0.967521 0.442364 -0.444569
H16   H     H_    0.934894 0.942224 0.522574 0.266550
H17   H     H_    0.903035 0.893051 0.401495 0.211254
C39   C     C_3   0.108043 0.974418 0.383238 -0.719097
H18   H     H_    0.121899 0.990610 0.300561 0.311005
H19   H     H_    0.158573 0.049596 0.417902 0.249685
H20   H     H_    0.165249 0.885851 0.386733 0.274654
Cl2   Cl    Cl    0.775531 0.677339 0.659172 -0.622883
O10   O     O_3   0.994027 0.179330 0.214897 -0.588826
C40   C     C_3   0.926093 0.221980 0.144066 0.060801
H21   H     H_    0.993041 0.292301 0.096170 0.155893
H22   H     H_    0.814664 0.259567 0.186286 0.137263
C41   C     C_3   0.912144 0.112476 0.071975 -0.325061
H23   H     H_    0.021979 0.069768 0.032103 0.253627
H24   H     H_    0.844240 0.042245 0.118910 0.232957
C42   C     C_3   0.842695 0.151021 0.990263 -0.779032
H25   H     H_    0.733932 0.196616 0.027949 0.269120
H26   H     H_    0.828974 0.068292 0.942521 0.283655
H27   H     H_    0.913956 0.214829 0.938086 0.285182
Cl3   Cl    Cl    0.309445 0.183013 0.185060 -0.604092
Cl4   Cl    Cl    0.917433 0.420246 0.790208 -0.648217
Cl5   Cl    Cl    0.384665 0.660581 0.200387 -0.622429

loop_
_geom_bond_atom_site_label_1
_geom_bond_atom_site_label_2
_ccdc_geom_bond_type
C23   O5    A    
C16   C21   A    
C11   C13   A    
C31   O8    A    
C30   H7    S    
C19   C20   A    
C40   C41   S    
C4    C8    A    
C13   H3    S    
C26   H6    S    
C23   O6    A    
C26   C27   A    
Cu1   Cu2   S    
C40   H22   S    
C18   C19   A    
C3    C7    A    
C5    C6    A    
Cu2   N1    S    
C15   C16   A    
C14   Cl1   S    
C9    H1    S    
C34   C35   A    
C9    C32   A    
Cu1   O3    S    
Cu2   O2    S    
C35   C36   A    
C16   C17   A    
C35   H11   S    
C31   C33   S    
C39   H18   S    
Cu1   O5    S    
C5    C32   A    
Cu1   N2    S    
Cu2   O6    S    
C22   C28   A    
C13   C14   A    
C9    C33   A    
C30   N2    A    
C38   H16   S    
C37   C38   S    
C40   H21   S    
C7    H12   S    
C41   H24   S    
C29   Cl2   S    
C25   C26   A    
C6    Cl4   S    
O9    C37   S    
C38   H17   S    
C37   H15   S    
C31   O7    A    
C2    C4    A    
O10   C40   S    
C29   C30   A    
Cu2   O4    S    
C22   H5    S    
C39   H20   S    
C17   C18   A    
C1    C18   S    
C10   C34   A    
C24   C25   A    
C12   O3    A    
C10   C12   S    
C1    O1    A    
Cu1   O1    S    
C42   H26   S    
C21   C23   S    
C22   C24   A    
C12   O4    A    
C2    C36   A    
C11   C17   A    
C32   H8    S    
C15   H4    S    
C4    C5    A    
C41   C42   S    
C27   N2    A    
C24   O10   S    
C6    C7    A    
C42   H27   S    
C38   C39   S    
C37   H14   S    
Cu2   O8    S    
C20   O9    S    
C2    C3    A    
C1    O2    A    
C3    C10   A    
C28   N1    A    
C25   Cl3   S    
C36   H10   S    
C8    C33   A    
C11   H2    S    
Cu1   O7    S    
C41   H23   S    
C19   H13   S    
C20   C21   A    
C42   H25   S    
C27   C28   A    
C14   C15   A    
C39   H19   S    
C34   H9    S    
C8    Cl5   S    
C29   N1    A    
