data_mof_unit_37593.cif
_audit_creation_date              2012-12-11T14:44:00-0500
_audit_creation_method            fapswitch 2.2
_symmetry_space_group_name_H-M    P1
_symmetry_Int_Tables_number       1
_space_group_crystal_system       triclinic
_cell_length_a                    19.142902
_cell_length_b                    10.999024
_cell_length_c                    18.926138
_cell_angle_alpha                 90.058874
_cell_angle_beta                  90.06623
_cell_angle_gamma                 90.03383
_cell_volume                      3984.95418523

loop_
_atom_site_label
_atom_site_type_symbol
_atom_type_description
_atom_site_fract_x
_atom_site_fract_y
_atom_site_fract_z
_atom_type_partial_charge
C1    C     C_R   0.731127 0.379723 0.147674 0.532205
C2    C     C_R   0.268854 0.379850 0.852291 0.540880
C3    C     C_R   0.231127 0.879725 0.147675 0.532210
C4    C     C_R   0.768854 0.879849 0.852292 0.540870
C5    C     C_R   0.517084 0.387439 0.927960 0.149055
C6    C     C_R   0.483006 0.387368 0.072505 0.149009
C7    C     C_R   0.017086 0.887432 0.927963 0.149056
C8    C     C_R   0.983008 0.887374 0.072508 0.149003
C9    C     C_R   0.008439 0.996404 0.964688 -0.092417
C10   C     C_R   0.991861 0.996375 0.035974 -0.091988
C11   C     C_R   0.508436 0.496408 0.964689 -0.092421
C12   C     C_R   0.491857 0.496372 0.035975 -0.091990
C13   C     C_R   0.691249 0.882134 0.031889 0.175266
C14   C     C_R   0.308603 0.881943 0.967958 0.174646
C15   C     C_R   0.191246 0.382143 0.031886 0.175225
C16   C     C_R   0.808598 0.381929 0.967954 0.174697
C17   C     C_R   0.690943 0.877382 0.957815 0.272195
C18   C     C_R   0.308908 0.877013 0.042023 0.272074
C19   C     C_R   0.190941 0.377389 0.957812 0.272142
C20   C     C_R   0.808905 0.377003 0.042019 0.272099
C21   C     C_R   0.746508 0.928929 0.920007 -0.067234
C22   C     C_R   0.253461 0.928692 0.079951 -0.067800
C23   C     C_R   0.246506 0.428936 0.920004 -0.067225
C24   C     C_R   0.753460 0.428685 0.079949 -0.067812
C25   C     C_R   0.792319 0.006490 0.953825 -0.106076
C26   C     C_R   0.207801 0.006541 0.046275 -0.107113
C27   C     C_R   0.292315 0.506502 0.953823 -0.106076
C28   C     C_R   0.707800 0.506534 0.046273 -0.107117
C29   C     C_R   0.791332 0.018528 0.025616 0.181683
C30   C     C_R   0.208853 0.018829 0.974493 0.180741
C31   C     C_R   0.291328 0.518539 0.025614 0.181687
C32   C     C_R   0.708851 0.518822 0.974491 0.180734
C33   C     C_R   0.742829 0.952385 0.067277 -0.025177
C34   C     C_R   0.257176 0.952512 0.932704 -0.025870
C35   C     C_R   0.242826 0.452394 0.067275 -0.025163
C36   C     C_R   0.757172 0.452503 0.932702 -0.025882
C37   C     C_R   0.475860 0.069231 0.456316 -0.157372
C38   C     C_R   0.466770 0.064605 0.528213 -0.175552
C39   C     C_R   0.975875 0.569221 0.456319 -0.157384
C40   C     C_R   0.966790 0.564595 0.528217 -0.175555
C41   C     C_R   0.485496 0.163603 0.571237 0.001912
C42   C     C_R   0.504209 0.172652 0.425054 0.018901
C43   C     C_R   0.985501 0.663604 0.571238 0.001918
C44   C     C_R   0.004210 0.672649 0.425054 0.018889
C45   C     C_R   0.531235 0.155239 0.146565 0.596878
C46   C     C_R   0.468736 0.155320 0.853473 0.602736
C47   C     C_R   0.031233 0.655240 0.146567 0.596873
C48   C     C_R   0.968733 0.655318 0.853476 0.602736
C49   C     C_R   0.510899 0.271242 0.540674 0.147617
C50   C     C_R   0.517767 0.277869 0.467006 0.167593
C51   C     C_R   0.010889 0.771252 0.540671 0.147619
C52   C     C_R   0.017758 0.777873 0.467003 0.167597
C53   C     C_R   0.813810 0.938582 0.459190 0.206524
C54   C     C_R   0.212036 0.023753 0.525442 0.215892
C55   C     C_R   0.313815 0.438554 0.459184 0.206522
C56   C     C_R   0.712045 0.523769 0.525439 0.215892
C57   C     C_R   0.818438 0.927908 0.531603 -0.156857
C58   C     C_R   0.214144 0.010813 0.452847 -0.156497
C59   C     C_R   0.318446 0.427873 0.531596 -0.156859
C60   C     C_R   0.714150 0.510825 0.452844 -0.156489
C61   C     C_R   0.759293 0.904632 0.572819 0.034851
C62   C     C_R   0.252049 0.917512 0.422253 0.002321
C63   C     C_R   0.259299 0.404615 0.572815 0.034850
C64   C     C_R   0.752052 0.417516 0.422251 0.002327
C65   C     C_R   0.693964 0.887715 0.541261 0.254140
C66   C     C_R   0.297783 0.845570 0.463570 0.221596
C67   C     C_R   0.193969 0.387703 0.541257 0.254135
C68   C     C_R   0.797786 0.345575 0.463568 0.221599
C69   C     C_R   0.689286 0.888016 0.466931 0.070131
C70   C     C_R   0.296218 0.856953 0.537590 0.072994
C71   C     C_R   0.189290 0.388003 0.466927 0.070131
C72   C     C_R   0.796222 0.356960 0.537589 0.073000
C73   C     C_R   0.748838 0.922567 0.426182 0.037577
C74   C     C_R   0.253558 0.946911 0.568565 0.043270
C75   C     C_R   0.248841 0.422554 0.426178 0.037585
C76   C     C_R   0.753563 0.446920 0.568563 0.043280
C77   C     C_R   0.738579 0.979421 0.143608 0.583662
C78   C     C_R   0.261446 0.979602 0.856404 0.588417
C79   C     C_R   0.238577 0.479427 0.143607 0.583669
C80   C     C_R   0.761444 0.479596 0.856402 0.588412
C81   C     C_R   0.730463 0.378410 0.351991 0.568916
C82   C     C_R   0.271552 0.376146 0.646679 0.591243
C83   C     C_R   0.230463 0.878410 0.351991 0.568913
C84   C     C_R   0.771550 0.876151 0.646681 0.591242
C85   C     C_R   0.532925 0.158448 0.353912 0.572546
C86   C     C_R   0.465479 0.156662 0.645279 0.574151
C87   C     C_R   0.032925 0.658447 0.353912 0.572546
C88   C     C_R   0.965480 0.656663 0.645280 0.574147
C89   C     C_R   0.740811 0.971012 0.354597 0.605054
C90   C     C_R   0.259751 0.976601 0.643612 0.605907
C91   C     C_R   0.240812 0.471010 0.354596 0.605061
C92   C     C_R   0.759752 0.476603 0.643611 0.605918
C93   C     C_R   0.499763 0.163040 0.925471 0.018776
C94   C     C_R   0.500113 0.162951 0.074635 0.019530
C95   C     C_R   0.999750 0.663035 0.925477 0.018748
C96   C     C_R   0.000105 0.662955 0.074642 0.019543
C97   C     C_R   0.504184 0.275093 0.962651 -0.054398
C98   C     C_R   0.495753 0.275046 0.037620 -0.052969
C99   C     C_R   0.004179 0.775089 0.962656 -0.054398
C100  C     C_R   0.995749 0.775049 0.037624 -0.052967
C101  C     C_R   0.496331 0.053026 0.036901 0.216462
C102  C     C_R   0.503473 0.053059 0.963075 0.216508
C103  C     C_R   0.996314 0.553029 0.036912 0.216506
C104  C     C_R   0.003447 0.553055 0.963086 0.216469
Cr1   Cr    Cr6+3 0.772000 0.169640 0.250110 1.152178
Cr2   Cr    Cr6+3 0.228000 0.169640 0.749890 1.165598
Cr3   Cr    Cr6+3 0.272000 0.669640 0.250110 1.152176
Cr4   Cr    Cr6+3 0.728000 0.669640 0.749890 1.165601
Cr5   Cr    Cr6+3 0.614960 0.323350 0.249260 1.137625
Cr6   Cr    Cr6+3 0.385040 0.323350 0.750740 1.132346
Cr7   Cr    Cr6+3 0.114960 0.823350 0.249260 1.137627
Cr8   Cr    Cr6+3 0.885040 0.823350 0.750740 1.132349
Cr9   Cr    Cr6+3 0.616670 0.010620 0.250840 1.148732
Cr10  Cr    Cr6+3 0.383330 0.010620 0.749160 1.147367
Cr11  Cr    Cr6+3 0.116670 0.510620 0.250840 1.148727
Cr12  Cr    Cr6+3 0.883330 0.510620 0.749160 1.147377
H1    H     H_    0.869771 0.935621 0.555391 0.186784
H2    H     H_    0.181925 0.069208 0.420211 0.193152
H3    H     H_    0.369782 0.435569 0.555383 0.186759
H4    H     H_    0.681933 0.569222 0.420207 0.193144
H5    H     H_    0.015453 0.082558 0.938026 0.201942
H6    H     H_    0.984950 0.082505 0.062781 0.202095
H7    H     H_    0.515448 0.582564 0.938028 0.201934
H8    H     H_    0.484944 0.582500 0.062783 0.202093
H9    H     H_    0.833910 0.050638 0.925096 0.223487
H10   H     H_    0.166370 0.050949 0.075120 0.222400
H11   H     H_    0.333905 0.550654 0.925092 0.223485
H12   H     H_    0.666369 0.550942 0.075118 0.222400
H13   H     H_    0.463155 0.989214 0.425376 0.192403
H14   H     H_    0.444211 0.982391 0.549933 0.184863
H15   H     H_    0.963178 0.489197 0.425382 0.192419
H16   H     H_    0.944244 0.482371 0.549939 0.184879
O1    O     O_R   0.787540 0.042690 0.170470 -0.464783
O2    O     O_R   0.212460 0.042690 0.829530 -0.463468
O3    O     O_R   0.287540 0.542690 0.170470 -0.464782
O4    O     O_R   0.712460 0.542690 0.829530 -0.463471
O5    O     O_R   0.556540 0.252920 0.323970 -0.442924
O6    O     O_R   0.443460 0.252920 0.676030 -0.458953
O7    O     O_R   0.056540 0.752920 0.323970 -0.442922
O8    O     O_R   0.943460 0.752920 0.676030 -0.458946
O9    O     O_R   0.545870 0.051100 0.330840 -0.485868
O10   O     O_R   0.454130 0.051100 0.669160 -0.504064
O11   O     O_R   0.045870 0.551100 0.330840 -0.485873
O12   O     O_R   0.954130 0.551100 0.669160 -0.504075
O13   O     O_R   0.681340 0.959300 0.325510 -0.476803
O14   O     O_R   0.318660 0.959300 0.674490 -0.485610
O15   O     O_R   0.181340 0.459300 0.325510 -0.476800
O16   O     O_R   0.818660 0.459300 0.674490 -0.485608
O17   O     O_3   0.667880 0.167870 0.250070 -0.323224
O18   O     O_3   0.332120 0.167870 0.749930 -0.335781
O19   O     O_3   0.167880 0.667870 0.250070 -0.323225
O20   O     O_3   0.832120 0.667870 0.749930 -0.335777
O21   O     O_R   0.765660 0.292160 0.175050 -0.480200
O22   O     O_R   0.234340 0.292160 0.824950 -0.476767
O23   O     O_R   0.265660 0.792160 0.175050 -0.480188
O24   O     O_R   0.734340 0.792160 0.824950 -0.476787
O25   O     O_R   0.670190 0.408980 0.168550 -0.510251
O26   O     O_R   0.329810 0.408980 0.831450 -0.505335
O27   O     O_R   0.170190 0.908980 0.168550 -0.510252
O28   O     O_R   0.829810 0.908980 0.831450 -0.505333
O29   O     O_R   0.556580 0.251450 0.175160 -0.475812
O30   O     O_R   0.443420 0.251450 0.824840 -0.473551
O31   O     O_R   0.056580 0.751450 0.175160 -0.475814
O32   O     O_R   0.943420 0.751450 0.824840 -0.473549
O33   O     O_R   0.545920 0.049510 0.170320 -0.424327
O34   O     O_R   0.454080 0.049510 0.829680 -0.420087
O35   O     O_R   0.045920 0.549510 0.170320 -0.424338
O36   O     O_R   0.954080 0.549510 0.829680 -0.420071
O37   O     O_R   0.681390 0.957840 0.176710 -0.465336
O38   O     O_R   0.318610 0.957840 0.823290 -0.459465
O39   O     O_R   0.181390 0.457840 0.176710 -0.465337
O40   O     O_R   0.818610 0.457840 0.823290 -0.459460
O41   O     O_R   0.787500 0.044280 0.330990 -0.404290
O42   O     O_R   0.212500 0.044280 0.669010 -0.405374
O43   O     O_R   0.287500 0.544280 0.330990 -0.404298
O44   O     O_R   0.712500 0.544280 0.669010 -0.405370
O45   O     O_R   0.765610 0.293630 0.323860 -0.445644
O46   O     O_R   0.234390 0.293630 0.676140 -0.436607
O47   O     O_R   0.265610 0.793630 0.323860 -0.445646
O48   O     O_R   0.734390 0.793630 0.676140 -0.436598
O49   O     O_R   0.670140 0.410570 0.329080 -0.481835
O50   O     O_R   0.329860 0.410570 0.670920 -0.500765
O51   O     O_R   0.170140 0.910570 0.329080 -0.481839
O52   O     O_R   0.829860 0.910570 0.670920 -0.500771
O53   O     O_3   0.486478 0.946965 0.074617 -0.640357
H17   H     H_    0.471564 0.880464 0.043507 0.388936
O54   O     O_3   0.513274 0.946999 0.925243 -0.638230
H18   H     H_    0.528276 0.880555 0.956242 0.389103
O55   O     O_3   0.986450 0.446976 0.074630 -0.640424
H19   H     H_    0.971580 0.380446 0.043528 0.389005
O56   O     O_3   0.013220 0.446980 0.925263 -0.638225
H20   H     H_    0.028304 0.380593 0.956253 0.389100
O57   O     O_3   0.872556 0.965249 0.419897 -0.610484
H21   H     H_    0.908151 0.001045 0.451717 0.370603
O58   O     O_3   0.168708 0.110401 0.554944 -0.591886
H22   H     H_    0.134276 0.137851 0.519349 0.385735
O59   O     O_3   0.372561 0.465214 0.419889 -0.610499
H23   H     H_    0.408155 0.501020 0.451707 0.370602
O60   O     O_3   0.668723 0.610425 0.554941 -0.591903
H24   H     H_    0.634287 0.637870 0.519349 0.385737
O61   O     O_3   0.636688 0.868922 0.584361 -0.624315
H25   H     H_    0.593473 0.888725 0.558167 0.363818
O62   O     O_3   0.340272 0.761100 0.430748 -0.628252
H26   H     H_    0.380733 0.742644 0.461420 0.366808
O63   O     O_3   0.136692 0.368915 0.584357 -0.624319
H27   H     H_    0.093477 0.388712 0.558163 0.363814
O64   O     O_3   0.840276 0.261106 0.430746 -0.628244
H28   H     H_    0.880737 0.242650 0.461417 0.366806
Br1   Br    Br    0.603636 0.828694 0.424068 -0.486510
Br2   Br    Br    0.344162 0.737940 0.595401 -0.459135
Br3   Br    Br    0.103641 0.328678 0.424064 -0.486524
Br4   Br    Br    0.844169 0.237950 0.595399 -0.459150
Br5   Br    Br    0.561211 0.398923 0.836115 -0.441881
Br6   Br    Br    0.438914 0.398804 0.164402 -0.459563
Br7   Br    Br    0.061219 0.898904 0.836121 -0.441902
Br8   Br    Br    0.938923 0.898820 0.164408 -0.459551
Br9   Br    Br    0.620663 0.789898 0.080653 -0.416965
Br10  Br    Br    0.379065 0.789651 0.919030 -0.408466
Br11  Br    Br    0.120658 0.289910 0.080648 -0.417049
Br12  Br    Br    0.879053 0.289627 0.919024 -0.408328
O65   O     O_3   0.637210 0.819273 0.923550 -0.603088
H29   H     H_    0.630045 0.859042 0.877104 0.357303
O66   O     O_3   0.362588 0.818779 0.076157 -0.603013
H30   H     H_    0.369880 0.858560 0.122630 0.354427
O67   O     O_3   0.137211 0.319276 0.923545 -0.603138
H31   H     H_    0.130041 0.359056 0.877102 0.357258
O68   O     O_3   0.862586 0.318768 0.076151 -0.602982
H32   H     H_    0.869877 0.358544 0.122627 0.354445
O69   O     O_3   0.838094 0.099471 0.052656 -0.600066
H33   H     H_    0.868786 0.053327 0.084126 0.372818
O70   O     O_3   0.162474 0.100382 0.947589 -0.600951
H34   H     H_    0.131437 0.054610 0.916175 0.372978
O71   O     O_3   0.338090 0.599482 0.052655 -0.600062
H35   H     H_    0.368783 0.553338 0.084123 0.372817
O72   O     O_3   0.662473 0.600378 0.947588 -0.600964
H36   H     H_    0.631435 0.554608 0.916174 0.372978
Br13  Br    Br    0.540493 0.406549 0.599028 -0.343548
Br14  Br    Br    0.544287 0.432945 0.427370 -0.396161
Br15  Br    Br    0.040460 0.906582 0.599021 -0.343551
Br16  Br    Br    0.044272 0.932950 0.427363 -0.396147

loop_
_geom_bond_atom_site_label_1
_geom_bond_atom_site_label_2
_ccdc_geom_bond_type
C58   C62   A    
Cr1   O21   S    
C62   C83   S    
C88   O12   A    
C101  C102  A    
Cr2   O18   S    
C48   C95   S    
C55   C59   A    
C92   O16   A    
C53   O57   S    
O61   H25   S    
C14   C18   A    
C19   C23   A    
O66   H30   S    
C81   O49   A    
C72   C76   A    
Cr5   O25   S    
C2    C23   S    
C91   O15   A    
C97   C98   A    
Cr6   O30   S    
Cr7   O7    S    
Cr8   O52   S    
Cr3   O23   S    
C4    O28   A    
O63   H27   S    
C92   O44   A    
C89   O13   A    
C41   C86   S    
C31   O71   S    
Cr4   O48   S    
C37   C38   A    
C20   O68   S    
C7    C99   A    
C56   C76   A    
C43   C88   S    
Cr10  O10   S    
Cr1   O1    S    
C15   C19   A    
Cr9   O33   S    
C95   C99   A    
C94   C98   A    
C79   O39   A    
Cr4   O44   S    
C29   C33   A    
C58   H2    S    
C45   O29   A    
Cr12  O40   S    
Cr5   O5    S    
C38   C41   A    
C26   H10   S    
Cr9   O13   S    
C37   C42   A    
C84   O48   A    
Cr8   O8    S    
Cr10  O38   S    
C88   O8    A    
Cr3   O3    S    
C103  C104  A    
C54   C74   A    
C27   H11   S    
C40   C43   A    
C20   C24   A    
C94   C101  A    
Cr9   O9    S    
Cr2   O22   S    
C6    Br6   S    
C70   C74   A    
Cr12  O36   S    
C9    H5    S    
O72   H36   S    
Cr8   O20   S    
C69   C73   A    
C103  O55   S    
C84   O52   A    
C89   O41   A    
C66   C70   A    
C44   C87   S    
Cr8   O28   S    
C9    C10   A    
C67   O63   S    
C59   H3    S    
C75   C91   S    
C56   O60   S    
C47   O31   A    
C44   C52   A    
C40   H16   S    
O60   H24   S    
C2    O22   A    
Cr1   O41   S    
C3    O27   A    
O59   H23   S    
C77   O1    A    
C101  O53   S    
C45   C94   S    
C41   C49   A    
Cr10  O34   S    
Cr11  O11   S    
Cr3   O19   S    
C25   C29   A    
Cr8   O32   S    
C63   C67   A    
C71   C75   A    
C30   C34   A    
C63   C82   S    
C27   C31   A    
O64   H28   S    
C6    C98   A    
Cr9   O17   S    
C28   C32   A    
C62   C66   A    
Cr7   O31   S    
Cr10  O14   S    
Cr12  O12   S    
C49   Br13  S    
C36   C80   S    
C47   C96   S    
C85   O9    A    
C39   C40   A    
Cr12  O16   S    
Cr4   O20   S    
Cr9   O37   S    
C10   H6    S    
C104  O56   S    
C17   C21   A    
C51   C52   A    
Cr7   O19   S    
C68   C72   A    
C30   O70   S    
C86   O6    A    
Cr5   O17   S    
C78   O38   A    
C13   C33   A    
O69   H33   S    
C61   C65   A    
O65   H29   S    
C47   O35   A    
C55   O59   S    
C93   C97   A    
O68   H32   S    
C12   H8    S    
C50   Br14  S    
C16   C20   A    
C5    Br5   S    
C7    C9    A    
C82   O46   A    
C68   O64   S    
Cr7   O51   S    
O67   H31   S    
Cr2   O42   S    
C83   O51   A    
C42   C85   S    
C1    O21   A    
C18   O66   S    
C78   O2    A    
C45   O33   A    
Cr7   O27   S    
C76   C92   S    
C66   O62   S    
Cr6   O6    S    
Cr11  O39   S    
C4    O24   A    
C42   C50   A    
C26   C30   A    
C23   C27   A    
C46   O30   A    
C70   Br2   S    
C49   C50   A    
C31   C35   A    
C59   C63   A    
Cr3   O43   S    
C69   Br1   S    
C3    O23   A    
Cr10  O18   S    
C15   Br11  S    
C64   C68   A    
Cr12  O20   S    
C79   O3    A    
C95   C104  A    
C86   O10   A    
Cr1   O45   S    
C57   H1    S    
O71   H35   S    
C85   O5    A    
Cr5   O49   S    
O56   H20   S    
C91   O43   A    
C77   O37   A    
C21   C25   A    
C53   C57   A    
C54   O58   S    
C46   O34   A    
C65   O61   S    
Cr3   O47   S    
C18   C22   A    
C53   C73   A    
C11   H7    S    
C24   C28   A    
C87   O7    A    
C8    Br8   S    
C61   C84   S    
Cr6   O26   S    
C93   C102  A    
C14   C34   A    
C81   O45   A    
C11   C12   A    
C32   C36   A    
C5    C11   A    
C39   C44   A    
C48   O32   A    
C13   C17   A    
C73   C89   S    
Cr1   O17   S    
C82   O50   A    
C71   Br3   S    
C102  O54   S    
C80   O4    A    
Cr4   O4    S    
C83   O47   A    
C57   C61   A    
C60   C64   A    
Cr11  O15   S    
C13   Br9   S    
C74   C90   S    
C1    O25   A    
C19   O67   S    
C55   C75   A    
O54   H18   S    
C90   O14   A    
Cr5   O29   S    
C99   C100  A    
C16   C36   A    
C6    C12   A    
C4    C21   S    
C33   C77   S    
O53   H17   S    
C72   Br4   S    
C46   C93   S    
C39   H15   S    
Cr6   O18   S    
C43   C51   A    
C65   C69   A    
C96   C100  A    
C25   H9    S    
C37   H13   S    
C16   Br12  S    
C67   C71   A    
C8    C100  A    
O55   H19   S    
Cr4   O24   S    
C7    Br7   S    
C64   C81   S    
C15   C35   A    
C17   O65   S    
C90   O42   A    
C52   Br16  S    
C60   H4    S    
C29   O69   S    
O58   H22   S    
C56   C60   A    
C5    C97   A    
Cr2   O2    S    
C54   C58   A    
C2    O26   A    
Cr6   O50   S    
C1    C24   S    
C8    C10   A    
O57   H21   S    
C22   C26   A    
C96   C103  A    
Cr11  O19   S    
O70   H34   S    
C80   O40   A    
C14   Br10  S    
C3    C22   S    
C51   Br15  S    
C35   C79   S    
O62   H26   S    
C87   O11   A    
C38   H14   S    
Cr11  O35   S    
C48   O36   A    
Cr2   O46   S    
C34   C78   S    
C28   H12   S    
C32   O72   S    
