data_mof_unit_5451.cif
_audit_creation_date              2012-10-26T19:58:23-0400
_audit_creation_method            fapswitch 2.2
_symmetry_space_group_name_H-M    P1
_symmetry_Int_Tables_number       1
_space_group_crystal_system       triclinic
_cell_length_a                    7.427255
_cell_length_b                    8.677186
_cell_length_c                    13.406338
_cell_angle_alpha                 93.373847
_cell_angle_beta                  76.985721
_cell_angle_gamma                 103.080569
_cell_volume                      819.943329768

loop_
_atom_site_label
_atom_site_type_symbol
_atom_type_description
_atom_site_fract_x
_atom_site_fract_y
_atom_site_fract_z
_atom_type_partial_charge
C1    C     C_R   0.544849 0.800122 0.503717 0.540527
C2    C     C_R   0.334493 0.479627 0.806724 -0.006570
C3    C     C_2   0.570508 0.968005 0.505529 -0.167996
C4    C     C_R   0.398198 0.493991 0.694562 0.530555
C5    C     C_2   0.425106 0.032053 0.504110 -0.171141
C6    C     C_R   0.453213 0.199880 0.499899 0.543827
C7    C     C_R   0.602946 0.514768 0.305840 0.536086
C8    C     C_R   0.868935 0.695559 0.049989 -0.128955
C9    C     C_R   0.666390 0.543873 0.195093 -0.020127
C10   C     C_R   0.157959 0.382283 0.847340 -0.130236
C11   C     C_R   0.112643 0.335022 0.948832 -0.135565
C12   C     C_R   0.422417 0.482368 0.973104 0.031098
C13   C     C_R   0.244622 0.379465 0.010217 -0.129582
C14   C     C_R   0.967882 0.741836 0.212901 0.049171
C15   C     C_R   0.924315 0.874651 0.269969 -0.070963
C16   C     C_R   0.064353 0.980747 0.308817 -0.107860
C17   C     C_R   0.248173 0.955026 0.290307 -0.105714
C18   C     C_R   0.290425 0.819847 0.237155 -0.092855
C19   C     C_R   0.150838 0.713775 0.198169 -0.079448
C20   C     C_R   0.460807 0.540848 0.871890 0.030017
C21   C     C_R   0.562304 0.531695 0.033092 0.019357
C22   C     C_R   0.731996 0.642092 0.992090 0.036581
C23   C     C_R   0.759749 0.706228 0.895707 -0.140318
C24   C     C_R   0.624323 0.659787 0.837761 -0.120741
C25   C     C_R   0.537497 0.478886 0.133519 -0.158813
C26   C     C_R   0.835419 0.652135 0.152231 -0.032729
Cu1   Cu    Cu3+1 0.321300 0.483160 0.488710 0.937921
Cu2   Cu    Cu3+1 0.678700 0.516840 0.511290 0.951891
H1    H     H_    0.284444 0.960677 0.503940 0.136168
H2    H     H_    0.648258 0.720894 0.766371 0.135386
H3    H     H_    0.710953 0.039210 0.506448 0.129661
H4    H     H_    0.784945 0.899882 0.280000 0.089320
H5    H     H_    0.032062 0.085485 0.350284 0.107303
H6    H     H_    0.358907 0.041187 0.315380 0.114092
H7    H     H_    0.432784 0.800076 0.223290 0.117170
H8    H     H_    0.186999 0.613592 0.153069 0.114004
H9    H     H_    0.010788 0.616974 0.578994 0.238635
H10   H     H_    0.989316 0.383281 0.420860 0.232643
H11   H     H_    0.885357 0.795797 0.865674 0.105156
H12   H     H_    0.996895 0.781637 0.017811 0.113178
H13   H     H_    0.413587 0.392606 0.168137 0.115841
H14   H     H_    0.058382 0.336157 0.799235 0.135648
H15   H     H_    0.200996 0.333527 0.086851 0.098687
H16   H     H_    0.976742 0.257984 0.979136 0.121255
N1    N     N_2   0.947230 0.542220 0.528320 -0.250309
N2    N     N_2   0.052770 0.457780 0.471680 -0.253880
O1    O     O_R   0.383920 0.714220 0.492660 -0.500737
O2    O     O_R   0.685730 0.742660 0.511730 -0.498453
O3    O     O_R   0.275440 0.478800 0.636790 -0.504459
O4    O     O_R   0.577250 0.507240 0.655860 -0.499856
O5    O     O_R   0.314270 0.257340 0.488270 -0.504321
O6    O     O_R   0.616080 0.285780 0.507340 -0.502036
O7    O     O_R   0.422750 0.492760 0.344140 -0.506297
O8    O     O_R   0.724560 0.521200 0.363210 -0.491219

loop_
_geom_bond_atom_site_label_1
_geom_bond_atom_site_label_2
_ccdc_geom_bond_type
C2    C4    S    
C23   C24   A    
Cu1   O7    S    
C1    O2    A    
C16   H5    S    
C10   H14   S    
C11   C13   A    
C18   H7    S    
C8    C22   A    
C4    O3    A    
C3    C5    D    
C21   C22   A    
C12   C20   A    
C17   C18   A    
C9    C25   A    
C15   H4    S    
N1    N2    D    
C14   C26   S    
C3    H3    S    
Cu2   O6    S    
Cu2   O4    S    
Cu1   O3    S    
C23   H11   S    
C12   C21   A    
Cu1   N2    S    
Cu1   O1    S    
Cu1   O5    S    
C9    C26   A    
C5    H1    S    
C19   H8    S    
C5    C6    S    
C6    O5    A    
C24   H2    S    
Cu2   N1    S    
H10   N2    S    
C10   C11   A    
C7    O7    A    
H9    N1    S    
C15   C16   A    
C2    C10   A    
C11   H16   S    
C13   H15   S    
C8    C26   A    
C12   C13   A    
C18   C19   A    
C17   H6    S    
C25   H13   S    
Cu1   Cu2   S    
C7    C9    S    
C21   C25   A    
C22   C23   A    
C1    O1    A    
Cu2   O8    S    
C8    H12   S    
C7    O8    A    
C6    O6    A    
C14   C15   A    
C2    C20   A    
C14   C19   A    
Cu2   O2    S    
C20   C24   A    
C4    O4    A    
C16   C17   A    
C1    C3    S    
