data_mof_unit_31555.cif
_audit_creation_date              2012-12-11T15:13:43-0500
_audit_creation_method            fapswitch 2.2
_symmetry_space_group_name_H-M    P1
_symmetry_Int_Tables_number       1
_space_group_crystal_system       triclinic
_cell_length_a                    6.949583
_cell_length_b                    13.512657
_cell_length_c                    20.129676
_cell_angle_alpha                 104.133956
_cell_angle_beta                  90.120975
_cell_angle_gamma                 90.459017
_cell_volume                      1833.02430306

loop_
_atom_site_label
_atom_site_type_symbol
_atom_type_description
_atom_site_fract_x
_atom_site_fract_y
_atom_site_fract_z
_atom_type_partial_charge
O1    O     O_R   0.506780 0.600060 0.449950 -0.537656
O2    O     O_R   0.179840 0.597110 0.589410 -0.546057
O3    O     O_R   0.004570 0.399940 0.550050 -0.537198
C1    C     C_R   0.348374 0.619038 0.616866 0.689777
O4    O     O_R   0.177380 0.612160 0.452890 -0.546766
O5    O     O_R   0.002100 0.415100 0.412560 -0.541946
C2    C     C_R   0.346223 0.638687 0.436203 0.734057
O6    O     O_R   0.509250 0.584900 0.587440 -0.539036
O7    O     O_3   0.337570 0.435330 0.486930 -0.369067
V1    V     V_3+5 0.064650 0.512000 0.502430 1.423980
O8    O     O_R   0.672090 0.402890 0.410590 -0.543938
C3    C     C_R   0.840246 0.382089 0.382937 0.695672
O9    O     O_R   0.674540 0.387840 0.547110 -0.539955
C4    C     C_R   0.843070 0.360357 0.562884 0.691054
V2    V     V_3+5 0.564040 0.488000 0.497570 1.436188
O10   O     O_3   0.840990 0.564670 0.513070 -0.371503
C5    C     C_R   0.839238 0.102291 0.603439 -0.148023
H1    H     H_    0.829691 0.975963 0.683876 0.122344
H2    H     H_    0.831628 0.022227 0.576773 0.138081
C6    C     C_R   0.850255 0.279454 0.599499 -0.127636
C7    C     C_R   0.874081 0.315192 0.928820 -0.192077
C8    C     C_R   0.877326 0.390898 0.893317 -0.117265
C9    C     C_R   0.871312 0.365600 0.822181 -0.151216
C10   C     C_R   0.860529 0.262455 0.784004 0.051201
C11   C     C_R   0.854885 0.183798 0.820578 0.065042
C12   C     C_R   0.855350 0.235455 0.710719 0.071624
C13   C     C_R   0.845290 0.131169 0.675289 0.036170
C14   C     C_R   0.839106 0.055644 0.711379 -0.238872
C15   C     C_R   0.842189 0.079968 0.782745 0.142414
C16   C     C_R   0.858401 0.308566 0.671069 -0.251857
C17   C     C_R   0.841112 0.175102 0.564936 0.343927
C18   C     C_R   0.863046 0.212492 0.893744 -0.077924
H3    H     H_    0.864103 0.389376 0.693904 0.108684
H4    H     H_    0.881289 0.336848 0.984303 0.104429
H5    H     H_    0.876000 0.429312 0.798969 0.101906
H6    H     H_    0.886007 0.470224 0.921215 0.117400
C19   C     C_3   0.683671 0.216219 0.231071 0.230444
C20   C     C_3   0.790132 0.199138 0.294420 -0.116229
H7    H     H_    0.734578 0.156638 0.331120 0.135720
C21   C     C_3   0.848304 0.313325 0.312222 -0.078411
C22   C     C_3   0.736106 0.330792 0.249514 -0.247753
C23   C     C_3   0.920408 0.302726 0.206710 0.205938
C24   C     C_3   0.034311 0.288640 0.269356 -0.104745
C25   C     C_3   0.975354 0.173592 0.250368 -0.201881
C26   C     C_3   0.864290 0.189444 0.187058 -0.038177
H8    H     H_    0.637429 0.394655 0.248557 0.112436
H9    H     H_    0.177933 0.322648 0.285411 0.113300
H10   H     H_    0.072116 0.108715 0.250292 0.171689
C27   C     C_3   0.475866 0.787493 0.709239 -0.134789
C28   C     C_3   0.299059 0.843661 0.747095 -0.154641
H11   H     H_    0.253070 0.921241 0.744834 0.111634
H12   H     H_    0.574430 0.817852 0.675494 0.110290
C29   C     C_3   0.358689 0.811168 0.812277 -0.008103
C30   C     C_3   0.536106 0.755795 0.775195 -0.133258
C31   C     C_3   0.414621 0.656647 0.752594 -0.145676
C32   C     C_3   0.237634 0.712748 0.790461 -0.138523
C33   C     C_3   0.177342 0.744524 0.724527 -0.118182
C34   C     C_3   0.354689 0.689151 0.687469 0.003673
H13   H     H_    0.684637 0.760362 0.796247 0.111756
H14   H     H_    0.462984 0.579235 0.754393 0.102302
H15   H     H_    0.139010 0.682420 0.824202 0.098539
H16   H     H_    0.028790 0.740045 0.703498 0.106737
C35   C     C_R   0.344892 0.895109 0.394363 -0.163813
H17   H     H_    0.330099 0.974042 0.421879 0.137658
C36   C     C_R   0.354552 0.718127 0.398280 -0.045407
C37   C     C_R   0.355722 0.681716 0.068695 -0.167097
C38   C     C_R   0.353691 0.605482 0.104085 -0.121111
C39   C     C_R   0.356097 0.630341 0.175459 -0.143159
C40   C     C_R   0.360133 0.733538 0.213787 0.089501
C41   C     C_R   0.359327 0.811215 0.177036 -0.013070
C42   C     C_R   0.362043 0.761974 0.287106 0.036044
C43   C     C_R   0.359593 0.867305 0.322226 0.006347
C44   C     C_R   0.365820 0.942815 0.284430 0.331994
C45   C     C_R   0.361230 0.914199 0.213253 -0.210719
C46   C     C_R   0.364085 0.688945 0.326864 -0.254457
C47   C     C_R   0.342094 0.821307 0.432508 0.198547
C48   C     C_R   0.358430 0.784279 0.104318 -0.055954
H18   H     H_    0.370993 0.608174 0.304125 0.098457
H19   H     H_    0.355561 0.660689 0.013174 0.096788
H20   H     H_    0.353498 0.566587 0.198698 0.103801
H21   H     H_    0.350751 0.526176 0.075955 0.124819
H22   H     H_    0.362088 0.974458 0.186357 0.162394
O11   O     O_R   0.203580 0.914920 0.912610 -0.537199
O12   O     O_R   0.535710 0.887810 0.047120 -0.539313
O13   O     O_R   0.710730 0.084950 0.087430 -0.533083
C49   C     C_R   0.366939 0.861687 0.064348 0.683915
O14   O     O_R   0.533010 0.902850 0.910600 -0.539982
O15   O     O_R   0.708010 0.100090 0.949930 -0.532750
C50   C     C_R   0.364572 0.881107 0.883033 0.675224
O16   O     O_R   0.206300 0.899780 0.050100 -0.542122
O17   O     O_3   0.375170 0.064580 0.013100 -0.368894
V3    V     V_3+5 0.648200 0.988020 0.997570 1.451412
O18   O     O_R   0.038030 0.112330 0.952840 -0.540710
C51   C     C_R   0.869658 0.138058 0.935614 0.775204
O19   O     O_R   0.040730 0.097300 0.089360 -0.539005
C52   C     C_R   0.872425 0.119236 0.116677 0.708876
V4    V     V_3+5 0.148780 0.012220 0.002360 1.450943
O20   O     O_3   0.871930 0.935430 0.986900 -0.370537
O21   O     O_3   0.833023 0.140560 0.494413 -0.650687
H23   H     H_    0.841223 0.198818 0.472825 0.267104
N1    N     N_3   0.492726 0.175401 0.210213 -0.643852
H24   H     H_    0.404992 0.196126 0.253205 0.250152
H25   H     H_    0.440605 0.212909 0.174279 0.231787
N2    N     N_3   0.994274 0.358328 0.158551 -0.684968
H26   H     H_    0.016816 0.433956 0.185730 0.227141
H27   H     H_    0.885228 0.359081 0.122855 0.210352
N3    N     N_3   0.327995 0.850502 0.505993 -0.687675
H28   H     H_    0.192319 0.827453 0.519175 0.221868
H29   H     H_    0.334089 0.929914 0.523899 0.234450
O22   O     O_3   0.375096 0.045859 0.314927 -0.656530
H30   H     H_    0.459799 0.056407 0.355657 0.287103
N4    N     N_3   0.827255 0.997517 0.815691 -0.657494
H31   H     H_    0.697610 0.959048 0.800310 0.229079
H32   H     H_    0.939419 0.946704 0.798744 0.218577

loop_
_geom_bond_atom_site_label_1
_geom_bond_atom_site_label_2
_ccdc_geom_bond_type
C39   H20   S    
C18   C51   S    
C31   C32   S    
O18   C51   A    
C44   C45   A    
C15   N4    S    
O19   C52   A    
C1    O6    A    
N4    H32   S    
V4    O20   S    
V3    O20   S    
C33   H16   S    
C6    C16   A    
C29   C30   S    
C37   H19   S    
C12   C13   A    
N1    H24   S    
C36   C47   A    
C7    C8    A    
C14   C15   A    
C20   C21   S    
O12   C49   A    
O5    C3    A    
C20   H7    S    
O13   C52   A    
C35   C47   A    
V2    O10   S    
C32   C33   S    
C22   C23   S    
C40   C42   A    
O22   H30   S    
N4    H31   S    
O8    V2    S    
C21   C24   S    
O15   V3    S    
C39   C40   A    
C41   C45   A    
C22   H8    S    
O1    V2    S    
C17   O21   S    
O7    V1    S    
O16   V4    S    
C11   C18   A    
C37   C38   A    
N1    H25   S    
C27   C30   S    
O9    C4    A    
C41   C48   A    
N3    H29   S    
C45   H22   S    
N2    H27   S    
N2    H26   S    
O13   V3    S    
C30   H13   S    
C8    C9    A    
C11   C15   A    
O11   C50   A    
C7    C18   A    
O15   C51   A    
C42   C46   A    
C28   C29   S    
C38   C39   A    
C5    C13   A    
C4    C6    S    
C44   O22   S    
H1    C14   S    
C10   C11   A    
C49   O16   A    
O17   V3    S    
O4    C2    A    
C7    H4    S    
C27   C34   S    
C23   C26   S    
C3    C21   S    
O2    C1    A    
C24   C25   S    
C20   C25   S    
C19   C20   S    
C2    C36   S    
O21   H23   S    
N3    H28   S    
C27   H12   S    
C28   H11   S    
O17   V4    S    
O3    C4    A    
C21   C22   S    
C48   C49   S    
C38   H21   S    
C47   N3    S    
C9    H5    S    
O14   C50   A    
C29   C50   S    
C5    C17   A    
C23   C24   S    
C19   C26   S    
O2    V1    S    
O18   V4    S    
O14   V3    S    
C25   C26   S    
C29   C32   S    
C37   C48   A    
C30   C31   S    
C16   H3    S    
O1    C2    A    
C28   C33   S    
C10   C12   A    
C43   C44   A    
C23   N2    S    
O5    V1    S    
O8    C3    A    
O19   V4    S    
C12   C16   A    
O6    V2    S    
C8    H6    S    
C36   C46   A    
O9    V2    S    
O7    V2    S    
O4    V1    S    
O3    V1    S    
V1    O10   S    
C19   N1    S    
C33   C34   S    
C5    H2    S    
C19   C22   S    
C40   C41   A    
C46   H18   S    
C9    C10   A    
C35   H17   S    
C42   C43   A    
C35   C43   A    
C27   C28   S    
O11   V4    S    
C31   C34   S    
C1    C34   S    
C13   C14   A    
C32   H15   S    
O12   V3    S    
C31   H14   S    
C26   C52   S    
C24   H9    S    
C25   H10   S    
C6    C17   A    
