data_mof_unit_65788.cif
_audit_creation_date              2012-12-10T17:14:21-0500
_audit_creation_method            fapswitch 2.2
_symmetry_space_group_name_H-M    P1
_symmetry_Int_Tables_number       1
_space_group_crystal_system       triclinic
_cell_length_a                    25.92963
_cell_length_b                    25.911406
_cell_length_c                    22.18758
_cell_angle_alpha                 90.066445
_cell_angle_beta                  125.743007
_cell_angle_gamma                 90.009446
_cell_volume                      12099.3761642

loop_
_atom_site_label
_atom_site_type_symbol
_atom_type_description
_atom_site_fract_x
_atom_site_fract_y
_atom_site_fract_z
_atom_type_partial_charge
C1    C     C_R   0.650255 0.749965 0.300533 0.845630
C2    C     C_R   0.724553 0.473222 0.438039 -0.180071
C3    C     C_R   0.056190 0.759230 0.559473 0.616383
C4    C     C_R   0.467840 0.791203 0.489308 -0.273496
C5    C     C_R   0.466929 0.208967 0.487508 -0.273283
C6    C     C_R   0.995540 0.282548 0.545180 -0.273048
C7    C     C_R   0.002751 0.759073 0.559174 -0.269559
C8    C     C_R   0.448958 0.746202 0.505800 -0.050223
C9    C     C_R   0.448849 0.253700 0.505604 -0.051000
C10   C     C_R   0.949620 0.244016 0.506382 -0.053959
C11   C     C_R   0.943478 0.746321 0.494867 -0.054052
C12   C     C_R   0.661058 0.946021 0.360554 -0.074339
C13   C     C_R   0.282127 0.026749 0.561769 -0.192001
C14   C     C_R   0.661187 0.053675 0.360507 -0.063559
C15   C     C_R   0.160022 0.446028 0.361135 -0.090054
C16   C     C_R   0.160043 0.553695 0.361140 -0.079381
C17   C     C_R   0.620164 0.972953 0.294601 -0.116992
C18   C     C_R   0.620231 0.026594 0.294577 -0.110132
C19   C     C_R   0.118415 0.472971 0.295401 -0.118378
C20   C     C_R   0.118418 0.526619 0.295407 -0.101855
C21   C     C_R   0.703999 0.027265 0.428002 0.023611
C22   C     C_R   0.703938 0.972580 0.428024 0.024873
C23   C     C_R   0.203525 0.527271 0.428383 0.013160
C24   C     C_R   0.282200 0.973392 0.561791 -0.188253
C25   C     C_R   0.203500 0.472587 0.428390 0.020160
C26   C     C_R   0.745207 0.946095 0.496007 -0.314127
C27   C     C_R   0.745310 0.053898 0.495969 -0.311956
C28   C     C_R   0.245450 0.446097 0.496176 -0.332890
C29   C     C_R   0.245528 0.553900 0.496147 -0.336621
C30   C     C_R   0.783660 0.973369 0.562704 0.561168
C31   C     C_R   0.783712 0.026775 0.562685 0.572832
C32   C     C_R   0.284723 0.473361 0.562724 0.598156
C33   C     C_R   0.284768 0.526781 0.562709 0.592392
C34   C     C_R   0.610421 0.749238 0.501101 0.970240
C35   C     C_3   0.501434 0.201638 0.024806 -0.195079
C36   C     C_R   0.610417 0.250732 0.501055 0.973372
C37   C     C_R   0.107868 0.252151 0.496275 0.858158
C38   C     C_R   0.109423 0.749366 0.499080 0.974619
C39   C     C_R   0.748898 0.890071 0.499083 0.899871
C40   C     C_R   0.748944 0.109928 0.499071 0.919284
C41   C     C_R   0.249010 0.390071 0.499173 0.945877
C42   C     C_R   0.249048 0.609929 0.499162 0.955432
C43   C     C_R   0.749788 0.609884 0.500768 0.830170
C44   C     C_R   0.749848 0.390120 0.500810 0.814393
C45   C     C_R   0.250138 0.109888 0.498740 0.770258
C46   C     C_3   0.500425 0.797914 0.025090 -0.199995
C47   C     C_R   0.250202 0.890108 0.498766 0.775079
C48   C     C_R   0.791527 0.554046 0.636995 -0.318710
C49   C     C_R   0.791627 0.446268 0.637044 -0.317618
C50   C     C_R   0.194183 0.053669 0.358369 -0.371081
C51   C     C_R   0.194377 0.946014 0.358420 -0.380363
C52   C     C_R   0.811635 0.527103 0.701726 0.636220
C53   C     C_R   0.811685 0.473356 0.701750 0.635269
C54   C     C_R   0.166609 0.026608 0.291894 0.636139
C55   C     C_R   0.166710 0.972921 0.291920 0.627243
C56   C     C_R   0.771467 0.472734 0.570920 0.016003
C57   C     C_3   0.995991 0.703006 0.024865 -0.169397
C58   C     C_R   0.771404 0.527433 0.570890 0.013303
C59   C     C_R   0.221492 0.972563 0.426438 0.014436
C60   C     C_R   0.221402 0.027272 0.426413 0.013270
C61   C     C_3   0.002821 0.298652 0.025120 -0.184308
C62   C     C_3   0.938860 0.739804 0.975102 -0.160421
C63   C     C_3   0.940808 0.266713 0.975106 -0.169244
C64   C     C_3   0.440458 0.234668 0.975055 -0.189431
C65   C     C_R   0.650264 0.249977 0.300532 0.799929
C66   C     C_3   0.440262 0.763943 0.975086 -0.182801
C67   C     C_1   0.889155 0.749779 0.778870 -0.071406
C68   C     C_1   0.889305 0.250274 0.778871 -0.074307
C69   C     C_1   0.389284 0.249896 0.778869 -0.085878
C70   C     C_1   0.389444 0.750152 0.778877 -0.081623
C71   C     C_1   0.610465 0.249807 0.221144 -0.097490
C72   C     C_1   0.610456 0.750020 0.221150 -0.086732
C73   C     C_1   0.110380 0.749777 0.221153 -0.070340
C74   C     C_1   0.110330 0.250081 0.221148 -0.067348
C75   C     C_3   0.019345 0.712350 0.975235 -0.305668
C76   C     C_R   0.150228 0.249978 0.300531 0.810493
C77   C     C_3   0.024454 0.282755 0.975489 -0.303090
C78   C     C_3   0.523493 0.216264 0.975216 -0.302370
C79   C     C_3   0.522901 0.784616 0.975488 -0.309174
C80   C     C_3   0.962807 0.749180 0.926738 -0.055019
C81   C     C_3   0.963027 0.250788 0.926739 -0.050750
C82   C     C_3   0.463104 0.249323 0.926730 -0.037257
C83   C     C_3   0.463320 0.750613 0.926745 -0.040346
C84   C     C_3   0.557836 0.264027 0.024584 0.642363
C85   C     C_3   0.558362 0.737091 0.024590 0.658429
C86   C     C_3   0.058879 0.758776 0.024552 0.630186
C87   C     C_R   0.150250 0.749972 0.300535 0.840635
C88   C     C_3   0.057234 0.234681 0.024547 0.635793
C89   C     C_3   0.536038 0.249589 0.073288 -0.032723
C90   C     C_3   0.536149 0.750222 0.073300 -0.039097
C91   C     C_3   0.035807 0.749541 0.073299 -0.050208
C92   C     C_3   0.035861 0.250371 0.073296 -0.048278
C93   C     C_R   0.849660 0.749960 0.699474 0.837834
C94   C     C_R   0.849703 0.250068 0.699477 0.846280
C95   C     C_R   0.349698 0.249998 0.699474 0.842293
C96   C     C_R   0.349741 0.750030 0.699478 0.851293
C97   C     C_3   0.002588 0.795057 0.975564 0.652265
C98   C     C_R   0.748999 0.553879 0.503936 -0.002084
C99   C     C_3   0.996127 0.203188 0.975306 0.653532
C100  C     C_3   0.497748 0.296595 0.975598 0.655206
C101  C     C_3   0.499069 0.703594 0.975345 0.652874
C102  C     C_3   0.475662 0.282660 0.024802 -0.300396
C103  C     C_3   0.476585 0.716209 0.024559 -0.301204
C104  C     C_3   0.979283 0.786381 0.024807 -0.275313
C105  C     C_3   0.974447 0.218391 0.024551 -0.274789
C106  C     C_1   0.922393 0.749528 0.845637 0.093009
C107  C     C_1   0.922596 0.250498 0.845638 0.091436
C108  C     C_1   0.422610 0.249680 0.845634 0.074436
C109  C     C_R   0.749143 0.446136 0.504001 0.004790
C110  C     C_1   0.422823 0.750333 0.845644 0.078929
C111  C     C_1   0.576895 0.249691 0.154381 0.061861
C112  C     C_1   0.576934 0.750100 0.154390 0.074125
C113  C     C_1   0.076733 0.749652 0.154392 0.094696
C114  C     C_1   0.076714 0.250197 0.154388 0.088571
C115  C     C_R   0.579104 0.655350 0.549985 0.450422
C116  C     C_R   0.580223 0.344081 0.552237 0.449430
C117  C     C_R   0.985697 0.196679 0.378702 0.524023
C118  C     C_R   0.986603 0.713531 0.365050 0.454284
C119  C     C_R   0.561981 0.611065 0.569943 0.476187
C120  C     C_R   0.250746 0.053881 0.494897 0.005782
C121  C     C_R   0.563825 0.388063 0.573674 0.476599
C122  C     C_R   0.945769 0.153802 0.346954 0.440180
C123  C     C_R   0.927889 0.698378 0.301895 0.458775
C124  C     C_R   0.508314 0.610883 0.569671 0.483929
C125  C     C_R   0.510240 0.388184 0.573573 0.484605
C126  C     C_R   0.916869 0.134007 0.378633 0.432849
C127  C     C_R   0.874267 0.698502 0.301702 0.474095
C128  C     C_R   0.470974 0.655020 0.549571 0.448180
C129  C     C_R   0.472212 0.344302 0.552094 0.447289
C130  C     C_R   0.921365 0.160745 0.436153 0.508764
C131  C     C_R   0.250899 0.946107 0.494941 0.005508
C132  C     C_R   0.878475 0.713728 0.364689 0.447991
C133  C     C_R   0.485776 0.700356 0.526431 -0.200507
C134  C     C_R   0.486371 0.299275 0.527625 -0.200604
C135  C     C_R   0.955613 0.207887 0.462673 -0.219300
C136  C     C_R   0.937233 0.730859 0.429390 -0.195821
C137  C     C_R   0.540799 0.700511 0.526487 -0.270726
C138  C     C_R   0.541359 0.299153 0.527618 -0.270688
C139  C     C_R   0.997332 0.219953 0.443578 -0.288120
C140  C     C_R   0.992310 0.730829 0.429568 -0.268032
C141  C     C_R   0.889568 0.749287 0.498969 0.933339
C142  C     C_R   0.724479 0.526643 0.438005 -0.168907
C143  C     C_R   0.891731 0.247487 0.503184 0.884848
C144  C     C_R   0.390673 0.250813 0.501181 0.932503
C145  C     C_R   0.390736 0.749128 0.501274 0.929458
C146  C     C_R   0.556673 0.746450 0.505586 -0.107937
C147  C     C_R   0.556583 0.253479 0.505401 -0.108149
C148  C     C_R   0.048562 0.254409 0.490625 -0.109375
C149  C     C_R   0.051462 0.746432 0.495186 -0.110793
C150  C     C_R   0.520971 0.791429 0.489028 0.614567
C151  C     C_R   0.520081 0.208754 0.487251 0.614482
C152  C     C_R   0.046189 0.286146 0.540393 0.630790
F1    F     F_    0.536754 0.835611 0.470427 -0.654389
F2    F     F_    0.601292 0.430654 0.596611 -0.499951
F3    F     F_    0.936251 0.130757 0.286272 -0.533345
F4    F     F_    0.923312 0.682178 0.240756 -0.547122
F5    F     F_    0.882614 0.089718 0.351967 -0.539757
F6    F     F_    0.817747 0.682455 0.240364 -0.515272
F7    F     F_    0.493202 0.567860 0.591098 -0.480034
F8    F     F_    0.495788 0.430905 0.596347 -0.478615
F9    F     F_    0.422152 0.653062 0.556103 -0.597081
F10   F     F_    0.423269 0.346187 0.558419 -0.596630
F11   F     F_    0.897319 0.137926 0.469871 -0.578855
F12   F     F_    0.535134 0.164864 0.467168 -0.655439
F13   F     F_    0.824972 0.709545 0.361923 -0.615823
F14   F     F_    0.822880 0.948016 0.628026 -0.578193
F15   F     F_    0.822968 0.052275 0.627995 -0.573373
F16   F     F_    0.324676 0.447982 0.627838 -0.547868
F17   F     F_    0.324754 0.552303 0.627814 -0.550562
F18   F     F_    0.830408 0.553346 0.764441 -0.588528
F19   F     F_    0.830518 0.447257 0.764493 -0.589347
F20   F     F_    0.140711 0.052720 0.227321 -0.571354
F21   F     F_    0.140914 0.946665 0.227371 -0.577954
F22   F     F_    0.006230 0.842350 0.949474 -0.571689
F23   F     F_    0.091902 0.321798 0.583357 -0.622658
F24   F     F_    0.992938 0.154054 0.948954 -0.569267
F25   F     F_    0.496095 0.345449 0.949547 -0.575014
F26   F     F_    0.498615 0.655084 0.949025 -0.571109
F27   F     F_    0.618545 0.279738 0.050821 -0.595510
F28   F     F_    0.619464 0.722669 0.050844 -0.565200
F29   F     F_    0.121012 0.769154 0.050741 -0.599524
F30   F     F_    0.117431 0.217584 0.050731 -0.596804
F31   F     F_    0.112847 0.773280 0.622563 -0.652732
F32   F     F_    0.634722 0.653707 0.557081 -0.623722
F33   F     F_    0.635595 0.345792 0.558778 -0.623221
F34   F     F_    0.006785 0.218306 0.341088 -0.581359
F35   F     F_    0.037491 0.709059 0.362614 -0.634101
F36   F     F_    0.598893 0.568249 0.591755 -0.500816
H1    H     H_    0.440204 0.826304 0.474801 0.175003
H2    H     H_    0.458077 0.687932 0.045140 0.201906
H3    H     H_    0.963365 0.816940 0.045608 0.216355
H4    H     H_    0.954425 0.191761 0.045146 0.219582
H5    H     H_    0.706377 0.546908 0.386489 0.166994
H6    H     H_    0.706482 0.452838 0.386539 0.160012
H7    H     H_    0.305458 0.047056 0.614276 0.159076
H8    H     H_    0.305558 0.953205 0.614307 0.160716
H9    H     H_    0.657621 0.904409 0.357993 0.129579
H10   H     H_    0.657849 0.095284 0.357901 0.127645
H11   H     H_    0.156722 0.404404 0.358619 0.126787
H12   H     H_    0.438682 0.174084 0.471811 0.174416
H13   H     H_    0.156757 0.595315 0.358632 0.140296
H14   H     H_    0.790798 0.595737 0.639033 0.204037
H15   H     H_    0.790976 0.404581 0.639112 0.205797
H16   H     H_    0.195038 0.095260 0.355708 0.202852
H17   H     H_    0.195393 0.904423 0.355807 0.200499
H18   H     H_    0.888822 0.731775 0.953723 0.206526
H19   H     H_    0.892281 0.280135 0.953728 0.203549
H20   H     H_    0.391531 0.222358 0.953641 0.188063
H21   H     H_    0.391031 0.775223 0.953680 0.192000
H22   H     H_    0.503249 0.162433 0.046085 0.180246
H23   H     H_    0.992625 0.310013 0.579943 0.203702
H24   H     H_    0.501274 0.836854 0.046588 0.180679
H25   H     H_    0.993560 0.665024 0.046186 0.197908
H26   H     H_    0.005868 0.338072 0.046644 0.190383
H27   H     H_    0.035770 0.682230 0.954444 0.203396
H28   H     H_    0.044918 0.308880 0.954903 0.201041
H29   H     H_    0.543083 0.189301 0.954423 0.198443
H30   H     H_    0.541873 0.812411 0.954908 0.199416
H31   H     H_    0.007412 0.770079 0.609316 0.178812
H32   H     H_    0.587665 0.952083 0.243435 0.141974
H33   H     H_    0.587787 0.047350 0.243393 0.142163
H34   H     H_    0.085445 0.452106 0.244393 0.149489
H35   H     H_    0.085447 0.547380 0.244407 0.157264
H36   H     H_    0.456524 0.310116 0.045597 0.200337
O1    O     O_3   0.749980 0.749980 0.500000 -0.527608
O2    O     O_R   0.612630 0.280390 0.456900 -0.604137
O3    O     O_R   0.112630 0.219610 0.456900 -0.592496
O4    O     O_R   0.112630 0.780390 0.456900 -0.598054
O5    O     O_R   0.698160 0.780350 0.335610 -0.607525
O6    O     O_R   0.698160 0.219650 0.335610 -0.634745
O7    O     O_R   0.198160 0.280350 0.335610 -0.655566
O8    O     O_R   0.198160 0.719650 0.335610 -0.652317
O9    O     O_R   0.801810 0.780340 0.664400 -0.607666
O10   O     O_R   0.801810 0.219660 0.664400 -0.605141
O11   O     O_R   0.301810 0.280340 0.664400 -0.598571
O12   O     O_3   0.749980 0.250020 0.500000 -0.527621
O13   O     O_R   0.301810 0.719660 0.664400 -0.599104
O14   O     O_R   0.637430 0.719620 0.335600 -0.641865
O15   O     O_R   0.637430 0.280380 0.335600 -0.638179
O16   O     O_R   0.137430 0.219620 0.335600 -0.585585
O17   O     O_R   0.137430 0.780380 0.335600 -0.599466
O18   O     O_R   0.862530 0.719620 0.664390 -0.640643
O19   O     O_R   0.862530 0.280380 0.664390 -0.636669
O20   O     O_R   0.362530 0.219620 0.664390 -0.634769
O21   O     O_R   0.362530 0.780380 0.664390 -0.635987
O22   O     O_R   0.844250 0.780360 0.456900 -0.584972
O23   O     O_3   0.249980 0.249980 0.500000 -0.530303
O24   O     O_R   0.844250 0.219640 0.456900 -0.580541
O25   O     O_R   0.344250 0.280360 0.456900 -0.590122
O26   O     O_R   0.344250 0.719640 0.456900 -0.592063
O27   O     O_R   0.655730 0.780340 0.543100 -0.613140
O28   O     O_R   0.655730 0.219660 0.543100 -0.614518
O29   O     O_R   0.155730 0.280340 0.543100 -0.592823
O30   O     O_R   0.155730 0.719660 0.543100 -0.621628
O31   O     O_R   0.758810 0.865800 0.456900 -0.659843
O32   O     O_R   0.758810 0.134200 0.456900 -0.614199
O33   O     O_R   0.258810 0.365800 0.456900 -0.621497
O34   O     O_3   0.249980 0.750020 0.500000 -0.527038
O35   O     O_R   0.258810 0.634200 0.456900 -0.619885
O36   O     O_R   0.698070 0.634180 0.456900 -0.596909
O37   O     O_R   0.698070 0.365820 0.456900 -0.599018
O38   O     O_R   0.198070 0.134180 0.456900 -0.631545
O39   O     O_R   0.198070 0.865820 0.456900 -0.638801
O40   O     O_R   0.741180 0.865790 0.543100 -0.585231
O41   O     O_R   0.741180 0.134210 0.543100 -0.592042
O42   O     O_R   0.241180 0.365790 0.543100 -0.589908
O43   O     O_R   0.241180 0.634210 0.543100 -0.598150
O44   O     O_R   0.801890 0.634180 0.543100 -0.642834
O45   O     O_R   0.887340 0.719630 0.543100 -0.642981
O46   O     O_R   0.801890 0.365820 0.543100 -0.649251
O47   O     O_R   0.301890 0.134180 0.543100 -0.644413
O48   O     O_R   0.301890 0.865820 0.543100 -0.644526
O49   O     O_R   0.887340 0.280370 0.543100 -0.661170
O50   O     O_R   0.387340 0.219630 0.543100 -0.638468
O51   O     O_R   0.387340 0.780370 0.543100 -0.640807
O52   O     O_R   0.612630 0.719610 0.456900 -0.607705
Zn1   Zn    Zn3+2 0.824150 0.706610 0.561580 1.035640
Zn2   Zn    Zn3+2 0.737390 0.206640 0.561580 1.090849
Zn3   Zn    Zn3+2 0.237390 0.293360 0.561580 1.094265
Zn4   Zn    Zn3+2 0.237390 0.706640 0.561580 1.102123
Zn5   Zn    Zn3+2 0.675820 0.706600 0.438420 1.064531
Zn6   Zn    Zn3+2 0.675820 0.293400 0.438420 1.044477
Zn7   Zn    Zn3+2 0.175820 0.206600 0.438420 1.040787
Zn8   Zn    Zn3+2 0.175820 0.793400 0.438420 1.048209
Zn9   Zn    Zn3+2 0.824150 0.293390 0.561580 1.013838
Zn10  Zn    Zn3+2 0.324150 0.206610 0.561580 1.015491
Zn11  Zn    Zn3+2 0.324150 0.793390 0.561580 1.018592
Zn12  Zn    Zn3+2 0.762580 0.793370 0.438420 1.050397
Zn13  Zn    Zn3+2 0.762580 0.206630 0.438420 1.051025
Zn14  Zn    Zn3+2 0.262580 0.293370 0.438420 1.045673
Zn15  Zn    Zn3+2 0.262580 0.706630 0.438420 1.060029
Zn16  Zn    Zn3+2 0.737390 0.793360 0.561580 1.081778

loop_
_geom_bond_atom_site_label_1
_geom_bond_atom_site_label_2
_ccdc_geom_bond_type
O34   Zn15  S    
C72   C112  T    
C133  C137  A    
C29   C42   S    
O49   Zn9   S    
C96   O13   A    
C8    C145  S    
C136  C140  A    
O51   Zn11  S    
C81   C107  S    
C102  H36   S    
C135  C139  A    
C59   C131  A    
C65   O6    A    
C14   C21   A    
C145  O51   A    
C93   O18   A    
C46   C79   S    
C87   O17   A    
C39   O31   A    
C74   C114  T    
C29   C33   A    
C144  O50   A    
O40   Zn16  S    
C61   C63   S    
C119  F36   S    
C55   F21   S    
C146  C150  A    
C47   O48   A    
C99   F24   S    
C19   C20   A    
C77   C88   S    
O16   Zn7   S    
C63   C105  S    
C40   O41   A    
C59   C60   A    
C101  C103  S    
C21   C22   A    
C117  C139  A    
C118  C140  A    
C5    H12   S    
C123  F4    S    
C3    C149  A    
C121  F2    S    
C27   C31   A    
C84   C100  S    
C137  C146  A    
C28   C32   A    
C52   F18   S    
C44   O37   A    
C94   O10   A    
C81   C99   S    
O31   Zn12  S    
C47   C131  S    
O48   Zn11  S    
O2    Zn6   S    
C78   C82   S    
C75   C86   S    
C88   F30   S    
O38   Zn7   S    
C16   C20   A    
O1    Zn16  S    
O9    Zn16  S    
C103  H2    S    
C10   C135  A    
C35   C89   S    
C45   C120  S    
C38   O30   A    
C31   F15   S    
C32   F16   S    
C48   H14   S    
C96   O21   A    
C79   C85   S    
C66   C103  S    
C69   C95   S    
C85   C90   S    
C4    C150  A    
C116  F33   S    
C35   C78   S    
C5    C151  A    
C39   O40   A    
O11   Zn3   S    
C11   C136  A    
C34   C146  S    
C24   C131  A    
C49   C53   A    
O23   Zn14  S    
C75   H27   S    
C36   O28   A    
C51   C55   A    
C88   C99   S    
C22   C26   A    
C40   O32   A    
C125  C129  A    
C48   C52   A    
C126  C130  A    
O12   Zn9   S    
C62   H18   S    
C77   H28   S    
C144  O25   A    
C2    C109  A    
O20   Zn10  S    
O10   Zn2   S    
C80   C97   S    
O21   Zn11  S    
C122  F3    S    
O22   Zn12  S    
C58   C98   A    
C117  C122  A    
C115  F32   S    
C125  F8    S    
C64   C102  S    
C74   C76   S    
O12   Zn2   S    
C23   C29   A    
C62   C80   S    
C117  F34   S    
C78   H29   S    
O41   Zn2   S    
C15   C25   A    
C80   C106  S    
O43   Zn4   S    
C143  O24   A    
C18   H33   S    
O7    Zn14  S    
C101  F26   S    
C70   C110  T    
C20   H35   S    
C115  C137  A    
C61   C77   S    
C86   F29   S    
O50   Zn10  S    
C82   C108  S    
O12   Zn13  S    
C98   C142  A    
C19   H34   S    
O32   Zn13  S    
C62   C104  S    
C139  C148  A    
C1    C72   S    
C54   F20   S    
O12   Zn6   S    
C132  F13   S    
C6    H23   S    
C68   C94   S    
O39   Zn8   S    
O34   Zn11  S    
C70   C96   S    
C94   O19   A    
C5    C9    A    
C123  C127  A    
C27   C40   S    
C132  C136  A    
C17   C18   A    
C83   C110  S    
O45   Zn1   S    
C41   O33   A    
C11   C141  S    
C57   H25   S    
C26   C30   A    
C16   C23   A    
C115  C119  A    
O34   Zn4   S    
C2    C142  A    
C56   C109  A    
C13   C120  A    
C52   C53   A    
O47   Zn10  S    
C126  F5    S    
C43   O36   A    
C54   C55   A    
C83   C101  S    
C148  C152  A    
O3    Zn7   S    
C118  F35   S    
C51   H17   S    
O42   Zn3   S    
C50   C60   A    
C57   C75   S    
C85   F28   S    
C147  C151  A    
C56   C58   A    
O23   Zn3   S    
C151  F12   S    
C61   H26   S    
C67   C93   S    
O1    Zn1   S    
O34   Zn8   S    
C42   O43   A    
C3    F31   S    
C140  C149  A    
C49   H15   S    
C130  C135  A    
C33   F17   S    
O36   Zn5   S    
C25   C28   A    
C15   C19   A    
C50   C54   A    
O24   Zn13  S    
C38   O4    A    
C35   H22   S    
C46   C66   S    
C3    C7    A    
C86   C91   S    
C30   C31   A    
C26   C39   S    
C24   H8    S    
C87   O8    A    
C28   C41   S    
C73   C113  T    
O28   Zn2   S    
C73   C87   S    
O23   Zn7   S    
O29   Zn3   S    
C66   C83   S    
C152  F23   S    
O30   Zn4   S    
O5    Zn12  S    
C150  F1    S    
C12   C17   A    
C34   O27   A    
C68   C107  T    
C141  O45   A    
C38   C149  S    
C61   C92   S    
C95   O20   A    
C124  C128  A    
C6    C152  A    
C44   C109  S    
C21   C27   A    
C63   H19   S    
O27   Zn16  S    
C41   O42   A    
O23   Zn10  S    
C9    C144  S    
O15   Zn6   S    
O1    Zn12  S    
C116  C121  A    
C93   O9    A    
C104  H3    S    
C34   O52   A    
C2    H6    S    
C84   F27   S    
C64   H20   S    
C36   C147  S    
C77   C81   S    
C127  F6    S    
C17   H32   S    
O19   Zn9   S    
C37   O29   A    
O46   Zn9   S    
C16   H13   S    
C36   O2    A    
C97   F22   S    
C57   C91   S    
C6    C10   A    
C67   C106  T    
C48   C58   A    
C46   C90   S    
C76   O16   A    
C32   C33   A    
O14   Zn5   S    
C79   C83   S    
O25   Zn14  S    
O44   Zn1   S    
C128  F9    S    
C142  H5    S    
C60   C120  A    
C118  C123  A    
C37   C148  S    
C90   C103  S    
C97   C104  S    
C53   F19   S    
C129  C134  A    
C92   C105  S    
C37   O3    A    
C13   H7    S    
C143  O49   A    
O18   Zn1   S    
O1    Zn5   S    
C130  F11   S    
C12   C22   A    
C89   C102  S    
C14   C18   A    
C43   C98   S    
C90   C112  S    
C91   C104  S    
C4    C8    A    
O8    Zn15  S    
C57   C62   S    
C119  C124  A    
C7    C11   A    
C14   H10   S    
C63   C81   S    
O52   Zn5   S    
C124  F7    S    
C86   C97   S    
C127  C132  A    
C121  C125  A    
C88   C92   S    
C71   C111  T    
C12   H9    S    
C35   C64   S    
C75   C80   S    
C7    H31   S    
C9    C134  A    
O4    Zn8   S    
C105  H4    S    
C95   O11   A    
O6    Zn13  S    
C100  F25   S    
C69   C108  T    
O33   Zn14  S    
C116  C138  A    
C99   C105  S    
C145  O26   A    
O13   Zn4   S    
C30   F14   S    
C79   H30   S    
C47   O39   A    
C65   C71   S    
O26   Zn15  S    
C91   C113  S    
C13   C24   A    
C122  C126  A    
C42   O35   A    
C78   C84   S    
C15   H11   S    
O35   Zn15  S    
C138  C147  A    
C76   O7    A    
C100  C102  S    
C141  O22   A    
C66   H21   S    
C64   C82   S    
C51   C59   A    
C84   C89   S    
C85   C101  S    
C44   O46   A    
C45   O47   A    
C8    C133  A    
C82   C100  S    
C4    H1    S    
C134  C138  A    
C50   H16   S    
C1    O14   A    
C49   C56   A    
C89   C111  S    
C43   O44   A    
C128  C133  A    
C45   O38   A    
C46   H24   S    
C129  F10   S    
C10   C143  S    
C23   C25   A    
O37   Zn6   S    
C1    O5    A    
C65   O15   A    
O17   Zn8   S    
C92   C114  S    
