data_mof_unit_47566.cif
_audit_creation_date              2012-12-11T20:51:17-0500
_audit_creation_method            fapswitch 2.2
_symmetry_space_group_name_H-M    P1
_symmetry_Int_Tables_number       1
_space_group_crystal_system       triclinic
_cell_length_a                    30.512837
_cell_length_b                    33.789404
_cell_length_c                    8.40258
_cell_angle_alpha                 90.0
_cell_angle_beta                  89.976594
_cell_angle_gamma                 89.994898
_cell_volume                      8663.14809334

loop_
_atom_site_label
_atom_site_type_symbol
_atom_type_description
_atom_site_fract_x
_atom_site_fract_y
_atom_site_fract_z
_atom_type_partial_charge
Ba1   Ba    Ba6+2 0.999930 0.472870 0.844940 1.686744
Ba2   Ba    Ba6+2 0.999930 0.527130 0.344940 1.693204
Ba3   Ba    Ba6+2 0.499930 0.972870 0.844940 1.685232
Ba4   Ba    Ba6+2 0.499930 0.027130 0.344940 1.692901
C1    C     C_3   0.015582 0.277713 0.576630 -0.314876
C2    C     C_3   0.015997 0.722392 0.081957 -0.313912
C3    C     C_3   0.514858 0.777792 0.569771 -0.317445
C4    C     C_3   0.515699 0.222241 0.076652 -0.316020
C5    C     C_R   0.246651 0.696480 0.034500 -0.043300
C6    C     C_R   0.246613 0.303488 0.533644 -0.040254
C7    C     C_R   0.746622 0.196509 0.034140 -0.043701
C8    C     C_R   0.746594 0.803332 0.531929 -0.043614
C9    C     C_R   0.214069 0.668501 0.992302 0.610286
C10   C     C_R   0.214001 0.331449 0.491453 0.609553
C11   C     C_R   0.714032 0.168540 0.991904 0.610707
C12   C     C_R   0.713976 0.831287 0.489715 0.604706
C13   C     C_R   0.158278 0.718295 0.014446 0.586926
C14   C     C_R   0.158185 0.281752 0.515883 0.586761
C15   C     C_R   0.658224 0.218283 0.015108 0.586922
C16   C     C_R   0.658028 0.781845 0.518382 0.587483
C17   C     C_R   0.190001 0.746959 0.056440 -0.018172
C18   C     C_R   0.189937 0.253101 0.557746 -0.018588
C19   C     C_R   0.689958 0.246944 0.057042 -0.017898
C20   C     C_R   0.689789 0.753187 0.560130 -0.018706
C21   C     C_R   0.234433 0.735928 0.066719 -0.051435
C22   C     C_R   0.234396 0.264093 0.566902 -0.051401
C23   C     C_R   0.734401 0.235932 0.066827 -0.051494
C24   C     C_R   0.734317 0.764057 0.567197 -0.051070
C25   C     C_R   0.291214 0.685973 0.045033 -0.048466
C26   C     C_R   0.291200 0.313959 0.543157 -0.053974
C27   C     C_R   0.791195 0.186015 0.044255 -0.047457
C28   C     C_R   0.791245 0.813689 0.539486 -0.053536
C29   C     C_R   0.822937 0.214007 0.086386 -0.068214
C30   C     C_R   0.823011 0.785712 0.581635 -0.070218
C31   C     C_R   0.322949 0.713977 0.087111 -0.068728
C32   C     C_R   0.322960 0.285973 0.585280 -0.069252
C33   C     C_R   0.811185 0.253440 0.120034 -0.027000
C34   C     C_R   0.811210 0.746425 0.617758 -0.026308
C35   C     C_R   0.311199 0.753432 0.120332 -0.026875
C36   C     C_R   0.311212 0.246569 0.619485 -0.026040
C37   C     C_R   0.766717 0.264443 0.109962 -0.049952
C38   C     C_R   0.766663 0.735553 0.610205 -0.050116
C39   C     C_R   0.266739 0.764447 0.109864 -0.049967
C40   C     C_R   0.266730 0.235587 0.609985 -0.050202
C41   C     C_R   0.178225 0.786416 0.089336 -0.072859
C42   C     C_R   0.178164 0.213696 0.591612 -0.072675
C43   C     C_R   0.678181 0.286379 0.090370 -0.073165
C44   C     C_R   0.677963 0.713897 0.595922 -0.073267
C45   C     C_3   0.007338 0.313240 0.087849 0.323045
C46   C     C_3   0.007188 0.686646 0.588511 0.323876
C47   C     C_3   0.507494 0.813289 0.084964 0.326122
C48   C     C_3   0.507473 0.186815 0.588299 0.322905
C49   C     C_R   0.709865 0.314341 0.132722 -0.071708
C50   C     C_R   0.709681 0.685934 0.637997 -0.071657
C51   C     C_R   0.209896 0.814382 0.131762 -0.071306
C52   C     C_R   0.209866 0.185739 0.633875 -0.071306
C53   C     C_R   0.754403 0.303822 0.143228 -0.025644
C54   C     C_R   0.754300 0.696314 0.645868 -0.026068
C55   C     C_R   0.254421 0.803846 0.142729 -0.025869
C56   C     C_R   0.254418 0.196236 0.643778 -0.026103
C57   C     C_R   0.786821 0.331707 0.187233 0.588123
C58   C     C_R   0.786760 0.668430 0.689570 0.588109
C59   C     C_R   0.286823 0.831735 0.186808 0.588221
C60   C     C_R   0.286854 0.168355 0.687693 0.588187
C61   C     C_R   0.842847 0.282082 0.163596 0.594562
C62   C     C_R   0.842897 0.717800 0.661351 0.594201
C63   C     C_R   0.342852 0.782088 0.163846 0.594661
C64   C     C_R   0.342889 0.217933 0.663048 0.593638
C65   C     C_2   0.108367 0.656353 0.811069 -0.079357
C66   C     C_2   0.108128 0.343489 0.311760 -0.081321
C67   C     C_2   0.608258 0.156422 0.811326 -0.080465
C68   C     C_2   0.607902 0.843340 0.312578 -0.084343
C69   C     C_3   0.070005 0.632170 0.787970 -0.107354
C70   C     C_3   0.069787 0.367698 0.288431 -0.107723
C71   C     C_3   0.569908 0.132222 0.788132 -0.107198
C72   C     C_3   0.569637 0.867641 0.288936 -0.104768
C73   C     C_1   0.096970 0.588248 0.001854 0.025909
C74   C     C_1   0.096823 0.411695 0.502090 0.027289
C75   C     C_1   0.596938 0.088255 0.001841 0.025006
C76   C     C_1   0.596809 0.911683 0.502239 0.025214
C77   C     C_2   0.129946 0.614476 0.040891 -0.047240
C78   C     C_2   0.129905 0.385545 0.540819 -0.050060
C79   C     C_2   0.629945 0.114461 0.040769 -0.047567
C80   C     C_2   0.629988 0.885606 0.540618 -0.053189
C81   C     C_2   0.136956 0.650326 0.941028 0.223937
C82   C     C_2   0.136831 0.349628 0.441300 0.228101
C83   C     C_2   0.636899 0.150352 0.941106 0.223906
C84   C     C_2   0.636749 0.849585 0.441605 0.226176
C85   C     C_R   0.885923 0.344608 0.382232 -0.096957
C86   C     C_R   0.886051 0.655500 0.881864 -0.097124
C87   C     C_R   0.385813 0.844687 0.382453 -0.097413
C88   C     C_R   0.385985 0.155440 0.882101 -0.097002
C89   C     C_3   0.988727 0.275972 0.012306 -0.306200
C90   C     C_3   0.988755 0.724101 0.513866 -0.305821
C91   C     C_3   0.490318 0.775412 0.009623 -0.311060
C92   C     C_3   0.488559 0.223930 0.512543 -0.306499
C93   C     C_R   0.919182 0.374108 0.429889 -0.058623
C94   C     C_R   0.919341 0.626014 0.929488 -0.061309
C95   C     C_R   0.419013 0.874227 0.430228 -0.055882
C96   C     C_R   0.419227 0.125923 0.929807 -0.058617
C97   C     C_R   0.903685 0.411799 0.190530 0.044034
C98   C     C_R   0.903711 0.588229 0.690443 0.044380
C99   C     C_R   0.403660 0.911820 0.190562 0.043738
C100  C     C_R   0.403716 0.088220 0.690479 0.044324
C101  C     C_R   0.871312 0.383633 0.150054 -0.081932
C102  C     C_R   0.871293 0.616373 0.650089 -0.082011
C103  C     C_R   0.371316 0.883640 0.149989 -0.081760
C104  C     C_R   0.371349 0.116398 0.649993 -0.081880
C105  C     C_R   0.863413 0.349617 0.244992 0.228273
C106  C     C_R   0.863457 0.650428 0.744857 0.229417
C107  C     C_R   0.363379 0.849650 0.245024 0.227935
C108  C     C_R   0.363469 0.150427 0.744883 0.228616
C109  C     C_2   0.068723 0.595987 0.877117 -0.282252
C110  C     C_2   0.068400 0.403824 0.377989 -0.283729
C111  C     C_2   0.568634 0.096038 0.877303 -0.282018
C112  C     C_2   0.568240 0.903732 0.378685 -0.282643
C113  C     C_3   0.124626 0.474012 0.178817 0.282971
C114  C     C_3   0.125086 0.525898 0.677896 0.256395
C115  C     C_3   0.624701 0.974153 0.180045 0.306568
C116  C     C_3   0.625143 0.025852 0.678125 0.255776
C117  C     C_3   0.162250 0.444913 0.151958 0.339872
C118  C     C_3   0.162877 0.554741 0.649701 0.296385
C119  C     C_3   0.662438 0.945125 0.154357 0.266785
C120  C     C_3   0.663013 0.054644 0.650514 0.300700
C121  C     C_3   0.874769 0.526330 0.018599 0.293239
C122  C     C_3   0.874687 0.473716 0.518512 0.293550
C123  C     C_3   0.374727 0.026310 0.018527 0.293288
C124  C     C_3   0.374620 0.973747 0.518434 0.293417
C125  C     C_3   0.834034 0.552289 0.021360 -0.344910
C126  C     C_3   0.833929 0.447793 0.521408 -0.345440
C127  C     C_3   0.333970 0.052242 0.021253 -0.345024
C128  C     C_3   0.333835 0.947858 0.521371 -0.345329
C129  C     C_3   0.001416 0.320564 0.557876 0.341643
C130  C     C_3   0.000649 0.680055 0.057673 0.335000
C131  C     C_3   0.502088 0.821160 0.557648 0.347528
C132  C     C_3   0.501485 0.179409 0.057850 0.343018
C133  C     C_R   0.928450 0.406670 0.320241 -0.294389
C134  C     C_R   0.928554 0.593410 0.819938 -0.294249
C135  C     C_R   0.428349 0.906743 0.320473 -0.295114
C136  C     C_R   0.428487 0.093350 0.820179 -0.294212
H1    H     H_    0.030631 0.339919 0.570322 0.045359
H2    H     H_    0.029502 0.660078 0.063653 0.040133
H3    H     H_    0.531717 0.839679 0.576753 0.050997
H4    H     H_    0.530679 0.160016 0.070230 0.044352
H5    H     H_    0.152305 0.415056 0.192893 -0.038325
H6    H     H_    0.152857 0.584863 0.687268 -0.039360
H7    H     H_    0.652658 0.915334 0.196590 -0.021761
H8    H     H_    0.653018 0.084771 0.688136 -0.040362
H9    H     H_    0.169759 0.443083 0.022895 0.034637
H10   H     H_    0.170839 0.555669 0.520696 0.092012
H11   H     H_    0.669876 0.942981 0.025324 0.012221
H12   H     H_    0.671074 0.055608 0.521595 0.092668
H13   H     H_    0.885915 0.523054 0.894184 0.010458
H14   H     H_    0.885774 0.477014 0.394037 0.010644
H15   H     H_    0.385863 0.023018 0.894108 0.010765
H16   H     H_    0.385676 0.977066 0.393930 0.011025
H17   H     H_    0.900609 0.540772 0.091323 0.060670
H18   H     H_    0.900548 0.459235 0.591040 0.059968
H19   H     H_    0.400562 0.040779 0.091200 0.060097
H20   H     H_    0.400484 0.959234 0.590844 0.059262
H21   H     H_    0.807801 0.538663 0.947963 0.143492
H22   H     H_    0.807659 0.461485 0.448365 0.143507
H23   H     H_    0.307733 0.038569 0.948015 0.143849
H24   H     H_    0.307548 0.961607 0.448582 0.143884
H25   H     H_    0.841508 0.581991 0.972822 0.073488
H26   H     H_    0.841337 0.418112 0.472530 0.072920
H27   H     H_    0.341403 0.081931 0.972508 0.072882
H28   H     H_    0.341186 0.918194 0.472221 0.072706
H29   H     H_    0.822148 0.555688 0.145580 0.129864
H30   H     H_    0.822122 0.444339 0.645703 0.129844
H31   H     H_    0.322108 0.055678 0.145487 0.129865
H32   H     H_    0.322078 0.944358 0.645707 0.129817
H33   H     H_    0.987290 0.323695 0.436596 -0.081356
H34   H     H_    0.985399 0.678450 0.937727 -0.073859
H35   H     H_    0.489132 0.826014 0.435468 -0.087842
H36   H     H_    0.487354 0.176307 0.936565 -0.082105
H37   H     H_    0.035553 0.268675 0.472437 0.124857
H38   H     H_    0.035355 0.732104 0.977212 0.125029
H39   H     H_    0.535729 0.769553 0.466822 0.124989
H40   H     H_    0.535617 0.231290 0.972360 0.124665
H41   H     H_    0.035366 0.274198 0.686507 0.149255
H42   H     H_    0.036730 0.724380 0.190152 0.151167
H43   H     H_    0.533282 0.772436 0.681640 0.147241
H44   H     H_    0.535547 0.225714 0.186361 0.149115
H45   H     H_    0.970030 0.258981 0.102777 0.118264
H46   H     H_    0.970004 0.740963 0.604561 0.118365
H47   H     H_    0.470905 0.758601 0.098706 0.117640
H48   H     H_    0.470038 0.241005 0.603213 0.117161
H49   H     H_    0.699290 0.344316 0.157530 0.127110
H50   H     H_    0.699066 0.656071 0.664710 0.127261
H51   H     H_    0.199322 0.844374 0.156248 0.127611
H52   H     H_    0.199293 0.155786 0.659103 0.127692
H53   H     H_    0.144345 0.795848 0.082595 0.122984
H54   H     H_    0.144262 0.204296 0.585731 0.123218
H55   H     H_    0.644291 0.295797 0.084006 0.122463
H56   H     H_    0.644009 0.704591 0.591664 0.122779
H57   H     H_    0.856825 0.204591 0.092843 0.127589
H58   H     H_    0.856959 0.795023 0.586108 0.126725
H59   H     H_    0.356830 0.704550 0.093885 0.126980
H60   H     H_    0.356859 0.295370 0.591278 0.124606
H61   H     H_    0.879412 0.319447 0.458435 0.093148
H62   H     H_    0.879578 0.680698 0.957918 0.092066
H63   H     H_    0.379280 0.819541 0.458709 0.093229
H64   H     H_    0.379482 0.180610 0.958271 0.092470
H65   H     H_    0.301749 0.655955 0.020830 0.150224
H66   H     H_    0.301735 0.343934 0.518137 0.138613
H67   H     H_    0.801733 0.156016 0.019697 0.151196
H68   H     H_    0.801825 0.843571 0.512927 0.150626
H69   H     H_    0.150140 0.609486 0.145321 0.117795
H70   H     H_    0.150241 0.390642 0.644801 0.109923
H71   H     H_    0.650194 0.109432 0.145027 0.118437
H72   H     H_    0.650497 0.890817 0.644063 0.107072
H73   H     H_    0.112441 0.682563 0.737811 0.094971
H74   H     H_    0.112146 0.317212 0.238851 0.094555
H75   H     H_    0.612297 0.182666 0.738245 0.094518
H76   H     H_    0.611775 0.816948 0.240233 0.093715
H77   H     H_    0.851933 0.388214 0.043726 0.102492
H78   H     H_    0.851829 0.611749 0.543996 0.101531
H79   H     H_    0.351987 0.888190 0.043518 0.102782
H80   H     H_    0.351954 0.111813 0.543707 0.102297
H81   H     H_    0.952975 0.428301 0.352977 0.071079
H82   H     H_    0.953106 0.571794 0.852609 0.071167
H83   H     H_    0.452856 0.928385 0.353270 0.071172
H84   H     H_    0.453008 0.071713 0.852929 0.071101
H85   H     H_    0.986371 0.258175 0.583217 0.113365
H86   H     H_    0.987339 0.742403 0.094918 0.112060
H87   H     H_    0.485047 0.758909 0.568138 0.113213
H88   H     H_    0.486516 0.241797 0.083527 0.112060
H89   H     H_    0.040335 0.577106 0.860374 0.073923
H90   H     H_    0.039914 0.422615 0.361715 0.074932
H91   H     H_    0.540234 0.077166 0.860654 0.074320
H92   H     H_    0.539714 0.922488 0.362677 0.074890
H93   H     H_    0.979547 0.332616 0.124365 0.015979
H94   H     H_    0.979322 0.667243 0.623885 0.016087
H95   H     H_    0.479040 0.832386 0.117223 0.020642
H96   H     H_    0.479822 0.167425 0.626022 0.015036
H97   H     H_    0.026165 0.303712 0.194313 -0.031879
H98   H     H_    0.025879 0.695923 0.695633 -0.033871
H99   H     H_    0.525569 0.804403 0.194102 -0.034496
H100  H     H_    0.526515 0.196510 0.694021 -0.031277
H101  H     H_    0.966224 0.283659 0.913606 0.165775
H102  H     H_    0.966361 0.716655 0.414580 0.165781
H103  H     H_    0.468791 0.782283 0.907010 0.164708
H104  H     H_    0.465847 0.216037 0.414793 0.166119
H105  H     H_    0.015695 0.257038 0.966743 0.105266
H106  H     H_    0.015819 0.743054 0.469307 0.104558
H107  H     H_    0.518120 0.756639 0.969458 0.105825
H108  H     H_    0.515340 0.242860 0.465691 0.104444
H109  H     H_    0.118997 0.477870 0.307529 -0.000562
H110  H     H_    0.119531 0.522264 0.806798 -0.010515
H111  H     H_    0.619070 0.978294 0.308598 -0.003376
H112  H     H_    0.619489 0.022170 0.806943 -0.009142
H113  H     H_    0.094881 0.461194 0.122745 -0.007027
H114  H     H_    0.095366 0.538768 0.621803 0.011497
H115  H     H_    0.594988 0.961152 0.124424 -0.005168
H116  H     H_    0.595484 0.038787 0.621845 0.011179
N1    N     N_R   0.170378 0.679522 0.982355 -0.434076
N2    N     N_R   0.170284 0.320462 0.482640 -0.432623
N3    N     N_R   0.670327 0.179541 0.982460 -0.434051
N4    N     N_R   0.670193 0.820421 0.483005 -0.433718
N5    N     N_R   0.830517 0.320719 0.197259 -0.427228
N6    N     N_R   0.830524 0.679300 0.697226 -0.427312
N7    N     N_R   0.330510 0.820739 0.197212 -0.427255
N8    N     N_R   0.330561 0.179321 0.697181 -0.427183
O1    O     O_2   0.914200 0.445720 0.903420 -0.458044
O2    O     O_2   0.914200 0.554280 0.403420 -0.458007
O3    O     O_2   0.414200 0.945720 0.903420 -0.458300
O4    O     O_2   0.414200 0.054280 0.403420 -0.458238
O5    O     O_3   0.135663 0.489249 0.610439 -0.590722
O6    O     O_3   0.135477 0.510531 0.110686 -0.580503
O7    O     O_3   0.635690 0.989219 0.610468 -0.592521
O8    O     O_3   0.635448 0.010523 0.110495 -0.581341
O9    O     O_3   0.034972 0.332875 0.979243 -0.558614
O10   O     O_3   0.034909 0.667185 0.479693 -0.558748
O11   O     O_3   0.535639 0.832982 0.978218 -0.559677
O12   O     O_3   0.534931 0.167121 0.479263 -0.558815
O13   O     O_3   0.049930 0.518940 0.045960 -0.499338
O14   O     O_3   0.049930 0.481060 0.545960 -0.496941
O15   O     O_3   0.549930 0.018940 0.045960 -0.499719
O16   O     O_3   0.549930 0.981060 0.545960 -0.496972
O17   O     O_2   0.224693 0.634420 0.963031 -0.504325
O18   O     O_2   0.224616 0.365481 0.461197 -0.520632
O19   O     O_2   0.724659 0.134485 0.962162 -0.503908
O20   O     O_2   0.724638 0.865200 0.457561 -0.505225
O21   O     O_2   0.119721 0.727807 0.008328 -0.620668
O22   O     O_2   0.119603 0.272289 0.510920 -0.620592
O23   O     O_2   0.619654 0.227770 0.009558 -0.620855
O24   O     O_2   0.619389 0.772515 0.515432 -0.619965
O25   O     O_2   0.776080 0.365686 0.218357 -0.592151
O26   O     O_2   0.776003 0.634561 0.722513 -0.591988
O27   O     O_2   0.276075 0.865729 0.217658 -0.591842
O28   O     O_2   0.276119 0.134398 0.719217 -0.591843
O29   O     O_2   0.881467 0.272679 0.170730 -0.609658
O30   O     O_2   0.881571 0.727094 0.666570 -0.610265
O31   O     O_2   0.381473 0.772687 0.171185 -0.608874
O32   O     O_2   0.381518 0.227317 0.669775 -0.610573
O33   O     O_3   0.950020 0.480960 0.143730 -0.495694
O34   O     O_3   0.950020 0.519040 0.643730 -0.495579
O35   O     O_3   0.450020 0.980960 0.143730 -0.495566
O36   O     O_3   0.450020 0.019040 0.643730 -0.495449
O37   O     O_3   0.985090 0.412220 0.642040 -0.476859
O38   O     O_3   0.985090 0.587780 0.142040 -0.476940
O39   O     O_3   0.485090 0.912220 0.642040 -0.477484
O40   O     O_3   0.485090 0.087780 0.142040 -0.477548
O41   O     O_2   0.911280 0.380972 0.759292 -0.473786
O42   O     O_2   0.911153 0.618891 0.258544 -0.473340
O43   O     O_2   0.411405 0.880810 0.760041 -0.473917
O44   O     O_2   0.411295 0.119061 0.259247 -0.473847
O45   O     O_3   0.863874 0.489247 0.080604 -0.627196
O46   O     O_3   0.863851 0.510790 0.580722 -0.627339
O47   O     O_3   0.363864 0.989234 0.080639 -0.627059
O48   O     O_3   0.363833 0.010814 0.580801 -0.627168
O49   O     O_3   0.970696 0.329808 0.676661 -0.575075
O50   O     O_3   0.970654 0.670149 0.177983 -0.573407
O51   O     O_3   0.470726 0.829767 0.675063 -0.577070
O52   O     O_3   0.470752 0.170193 0.176640 -0.575083
O53   O     O_2   0.085560 0.445380 0.786390 -0.462238
O54   O     O_2   0.085560 0.554620 0.286390 -0.458189
O55   O     O_2   0.585560 0.945380 0.786390 -0.460084
O56   O     O_2   0.585560 0.054620 0.286390 -0.458867
O57   O     O_3   0.014550 0.412170 0.047860 -0.462268
O58   O     O_3   0.014550 0.587830 0.547860 -0.463206
O59   O     O_3   0.514550 0.912170 0.047860 -0.462909
O60   O     O_3   0.514550 0.087830 0.547860 -0.462849
O61   O     O_2   0.095141 0.387817 0.973733 -0.489514
O62   O     O_2   0.095075 0.612249 0.472909 -0.488452
O63   O     O_2   0.595433 0.888262 0.975549 -0.489397
O64   O     O_2   0.595118 0.112182 0.473297 -0.488470
P1    P     P_3+3 0.909970 0.458430 0.077330 0.997238
P2    P     P_3+3 0.909970 0.541570 0.577330 0.997103
P3    P     P_3+3 0.409970 0.958430 0.077330 0.997256
P4    P     P_3+3 0.409970 0.041570 0.577330 0.997304
P5    P     P_3+3 0.089830 0.458070 0.612460 1.018289
P6    P     P_3+3 0.089830 0.541930 0.112460 1.031049
P7    P     P_3+3 0.589830 0.958070 0.612460 1.016444
P8    P     P_3+3 0.589830 0.041930 0.112460 1.029695
P9    P     P_3+3 0.054715 0.375563 0.073246 0.969379
P10   P     P_3+3 0.054728 0.624431 0.572985 0.969052
P11   P     P_3+3 0.554858 0.875684 0.073592 0.968332
P12   P     P_3+3 0.554731 0.124425 0.573043 0.969295
P13   P     P_3+3 0.945726 0.625448 0.126599 0.976217
P14   P     P_3+3 0.945706 0.374581 0.626700 0.976902
P15   P     P_3+3 0.445729 0.125440 0.126669 0.976484
P16   P     P_3+3 0.445671 0.874615 0.626741 0.977490
S1    S     S_3+6 0.210718 0.458659 0.257633 0.014376
O65   O     O_2   0.221580 0.501436 0.228727 -0.194203
O66   O     O_2   0.203844 0.451932 0.432470 -0.241736
O67   O     O_3   0.252398 0.430240 0.193913 -0.473295
H117  H     H_    0.277236 0.436836 0.265007 0.381443
S2    S     S_3+6 0.210985 0.541570 0.758889 0.039474
O68   O     O_2   0.248286 0.567268 0.704671 -0.193934
O69   O     O_2   0.203507 0.548414 0.933398 -0.242702
O70   O     O_3   0.224385 0.493920 0.727850 -0.399759
H118  H     H_    0.206657 0.478701 0.805294 0.347999
S3    S     S_3+6 0.710897 0.959421 0.259203 0.032317
O71   O     O_2   0.720673 0.002582 0.234646 -0.193111
O72   O     O_2   0.704738 0.951667 0.433650 -0.203091
O73   O     O_3   0.753369 0.932320 0.193177 -0.437990
H119  H     H_    0.756073 0.939118 0.078906 0.339474
S4    S     S_3+6 0.711018 0.041348 0.760104 0.037647
O74   O     O_2   0.748485 0.066806 0.705568 -0.188796
O75   O     O_2   0.703546 0.048414 0.934473 -0.247647
O76   O     O_3   0.724149 0.993601 0.729970 -0.405200
H120  H     H_    0.706306 0.978553 0.807603 0.334996

loop_
_geom_bond_atom_site_label_1
_geom_bond_atom_site_label_2
_ccdc_geom_bond_type
C77   H69   S    
O48   P4    S    
C51   C55   A    
C74   C78   A    
C38   C54   A    
Ba2   O13   S    
O55   P7    D    
C127  H31   S    
C94   C134  S    
C43   H55   S    
C15   N3    Am   
C70   C110  A    
C100  P4    S    
O49   P14   S    
C47   H95   S    
C118  S2    S    
C5    C9    A    
C92   H104  S    
O42   P13   D    
C7    C11   A    
C8    C12   A    
Ba1   O53   S    
C66   C70   A    
Ba3   O55   S    
C130  O50   S    
C43   C49   A    
C114  O5    S    
Ba1   P1    S    
C45   O9    S    
C73   C109  A    
C94   P13   S    
O5    P5    S    
O34   P2    S    
C5    C21   A    
C66   H74   S    
C80   C84   S    
Ba1   O34   S    
C45   H97   S    
C114  H110  S    
C83   N3    S    
C97   C133  D    
C118  H6    S    
C13   C17   A    
C100  C136  D    
C115  H115  S    
C28   C30   A    
C12   O20   D    
C15   C19   A    
C27   H67   S    
C4    H40   S    
Ba3   O15   S    
S3    O71   D    
C7    C23   A    
C46   O10   S    
C60   N8    Am   
Ba2   O38   S    
S1    O67   S    
C89   H105  S    
C108  N8    S    
C103  H79   S    
C122  H14   S    
C131  O51   S    
C101  H77   S    
Ba4   O16   S    
C99   P3    S    
C71   C111  A    
C121  O45   S    
C48   H96   S    
C135  H83   S    
C130  H34   S    
C46   C90   S    
C116  H112  S    
C63   N7    Am   
C53   C57   A    
C14   O22   D    
C115  C119  S    
C25   C31   A    
C55   C59   A    
Ba2   P2    S    
C26   C32   A    
C56   C60   A    
O39   P16   S    
C57   N5    Am   
C3    H87   S    
O67   H117  S    
C117  H9    S    
O9    P9    S    
C3    H43   S    
O6    P6    S    
S2    O68   D    
C123  C127  S    
O61   P9    D    
C124  H16   S    
C121  C125  S    
C99   C103  A    
C128  H32   S    
C45   C89   S    
C117  S1    S    
C47   C91   S    
C86   H62   S    
C132  H36   S    
C44   H56   S    
C75   C111  A    
C21   C39   A    
C4    H88   S    
C22   C40   A    
C1    C129  S    
C2    H42   S    
C40   C56   A    
C16   O24   D    
C12   N4    Am   
C134  H82   S    
Ba2   O2    S    
C69   P10   S    
C25   H65   S    
C114  C118  S    
C9    N1    Am   
O51   P16   S    
C91   H107  S    
O46   P2    S    
C113  H113  S    
Ba3   O59   S    
C1    H85   S    
C33   C61   A    
C96   P15   S    
C28   H68   S    
Ba4   O56   S    
C39   C55   A    
C126  H22   S    
C131  H3    S    
C127  H27   S    
C112  H92   S    
C95   C135  S    
O1    P1    D    
C93   C133  S    
S4    O74   D    
O52   P15   S    
C42   H54   S    
C17   C41   A    
C74   P5    S    
C19   C43   A    
C20   C44   A    
C76   C112  A    
C6    C10   A    
C136  H84   S    
Ba2   O54   S    
C115  H111  S    
O58   P10   S    
Ba1   P5    S    
C30   H58   S    
Ba3   P7    S    
O40   P15   S    
C125  H21   S    
O64   P12   D    
S3    O72   D    
C18   C22   A    
Ba2   O33   S    
C13   N1    Am   
Ba3   Ba4   S    
O50   P13   S    
C64   N8    Am   
C65   C81   A    
C17   C21   A    
C50   H50   S    
C14   C18   A    
C103  C107  A    
O44   P15   D    
O45   P1    S    
C90   H46   S    
Ba2   O14   S    
C109  H89   S    
C113  C117  S    
C47   O11   S    
C60   O28   D    
C81   N1    S    
C89   H101  S    
O2    P2    D    
C9    O17   D    
C129  H33   S    
C67   H75   S    
C72   P11   S    
C33   C37   A    
C122  O46   S    
C119  S3    S    
C48   H100  S    
C102  H78   S    
C36   C40   A    
C41   C51   A    
C42   C52   A    
C87   C95   S    
C49   H49   S    
S4    O76   S    
C77   C81   S    
C78   H70   S    
C54   C58   A    
C79   C83   S    
C52   H52   S    
Ba2   P6    S    
C4    C132  S    
C129  O49   S    
C76   C80   A    
O70   H118  S    
C91   H47   S    
C48   O12   S    
C120  S4    S    
C120  H8    S    
C124  H20   S    
C58   O26   D    
C8    C24   A    
C118  H10   S    
C102  C106  A    
C121  H17   S    
C122  C126  S    
C133  H81   S    
C69   C109  A    
Ba4   O40   S    
C46   H94   S    
C82   N2    S    
C101  C105  A    
O7    P7    S    
O76   H120  S    
C65   C69   A    
S1    O66   D    
C88   H64   S    
O47   P3    S    
C2    H38   S    
O35   P3    S    
C74   C110  A    
C1    H41   S    
O63   P11   D    
C41   H53   S    
C119  H11   S    
Ba4   P4    S    
Ba3   O3    S    
C31   H59   S    
C75   P8    S    
C20   C24   A    
C65   H73   S    
C10   N2    Am   
C123  H15   S    
C49   C53   A    
C88   C108  D    
S2    O70   S    
C78   C82   S    
C29   C33   A    
C104  C108  A    
O8    P8    S    
O60   P12   S    
C107  N7    S    
C31   C35   A    
C128  H24   S    
C130  H2    S    
C126  H26   S    
C73   C77   A    
S2    O69   D    
C90   H106  S    
C67   C83   A    
C68   H76   S    
O12   P12   S    
C71   P12   S    
C105  N5    S    
C100  C104  A    
C113  H109  S    
O41   P14   D    
O54   P6    D    
C32   H60   S    
C59   N7    Am   
Ba1   O57   S    
C80   H72   S    
Ba4   O4    S    
Ba3   P3    S    
C129  H1    S    
C125  H25   S    
C37   C53   A    
Ba1   O14   S    
C132  H4    S    
C75   C79   A    
Ba3   O16   S    
C126  H30   S    
C2    H86   S    
O10   P10   S    
O62   P10   D    
Ba3   O36   S    
C14   N2    Am   
C84   N4    S    
O33   P1    S    
C104  H80   S    
C52   C56   A    
C36   C64   A    
C63   O31   D    
Ba4   O15   S    
C62   O30   D    
C47   H99   S    
C62   N6    Am   
C92   H108  S    
C87   H63   S    
C51   H51   S    
C89   H45   S    
C85   H61   S    
O59   P11   S    
C92   H48   S    
C11   O19   D    
C68   C72   A    
C58   N6    Am   
S4    O75   D    
C113  O6    S    
C97   P1    S    
C132  O52   S    
C46   H98   S    
C44   C50   A    
C115  O8    S    
C116  O7    S    
C125  H29   S    
C34   C38   A    
C70   P9    S    
C26   H66   S    
C85   C105  D    
C76   P7    S    
Ba1   Ba2   S    
C98   C134  D    
C87   C107  D    
O36   P4    S    
C6    C26   A    
C45   H93   S    
C96   C136  S    
C16   C20   A    
O53   P5    D    
Ba2   O58   S    
O13   P6    S    
C27   C29   A    
C98   C102  A    
Ba4   O35   S    
C19   C23   A    
O15   P8    S    
C114  H114  S    
C111  H91   S    
C5    C25   A    
O38   P13   S    
C4    H44   S    
C120  H12   S    
C7    C27   A    
C8    C28   A    
C59   O27   D    
O56   P8    D    
Ba1   O37   S    
C10   O18   D    
O11   P11   S    
C124  C128  S    
Ba3   O39   S    
C68   C84   A    
C121  H13   S    
C122  H18   S    
C97   C101  A    
C34   C62   A    
C32   C36   A    
C35   C39   A    
C85   C93   S    
C131  H35   S    
C116  H116  S    
C3    C131  S    
C99   C135  D    
C13   O21   D    
C23   C37   A    
O16   P7    S    
O57   P9    S    
C29   H57   S    
C15   O23   D    
Ba1   O13   S    
C98   P2    S    
C3    H39   S    
C73   P6    S    
C1    H37   S    
C16   N4    Am   
C119  H7    S    
Ba4   P8    S    
O4    P4    D    
C117  H5    S    
C86   C106  D    
C66   C82   A    
C123  H19   S    
C11   N3    Am   
C88   C96   S    
C50   C54   A    
C18   C42   A    
C30   C34   A    
C35   C63   A    
C128  H28   S    
O14   P5    S    
O43   P16   D    
C110  H90   S    
C123  O47   S    
C124  O48   S    
O37   P14   S    
C90   H102  S    
C2    C130  S    
O3    P3    D    
C67   C71   A    
C6    C22   A    
C57   O25   D    
C64   O32   D    
C24   C38   A    
C72   C112  A    
C48   C92   S    
C93   P14   S    
O73   H119  S    
C106  N6    S    
C95   P16   S    
C61   O29   D    
S3    O73   S    
Ba1   O1    S    
C127  H23   S    
Ba4   O60   S    
C61   N5    Am   
S1    O65   D    
C86   C94   S    
C79   H71   S    
C116  C120  S    
C91   H103  S    
