data_mof_unit_5752.cif
_audit_creation_date              2012-12-10T17:56:18-0500
_audit_creation_method            fapswitch 2.2
_symmetry_space_group_name_H-M    P1
_symmetry_Int_Tables_number       1
_space_group_crystal_system       triclinic
_cell_length_a                    12.987631
_cell_length_b                    10.846621
_cell_length_c                    9.509332
_cell_angle_alpha                 90.750151
_cell_angle_beta                  96.483327
_cell_angle_gamma                 89.618009
_cell_volume                      1330.89848869

loop_
_atom_site_label
_atom_site_type_symbol
_atom_type_description
_atom_site_fract_x
_atom_site_fract_y
_atom_site_fract_z
_atom_type_partial_charge
C1    C     C_R   0.504757 0.262399 0.499669 0.811002
C2    C     C_R   0.498551 0.737989 0.501336 0.821804
C3    C     C_R   0.499778 0.872115 0.505125 -0.065256
C4    C     C_R   0.508148 0.128673 0.499418 -0.074607
C5    C     C_R   0.441372 0.417720 0.063968 -0.009679
C6    C     C_R   0.557869 0.583125 0.935893 -0.016769
C7    C     C_R   0.441464 0.417526 0.915216 -0.019015
C8    C     C_R   0.558290 0.582751 0.084748 -0.016294
C9    C     C_R   0.300649 0.493064 0.473248 0.855728
C10   C     C_R   0.699257 0.505543 0.526758 0.851342
C11   C     C_R   0.811744 0.516899 0.542035 -0.125544
C12   C     C_R   0.187886 0.479983 0.458374 -0.127465
C13   C     C_R   0.027275 0.380651 0.360028 0.129398
C14   C     C_R   0.972191 0.615283 0.640692 0.132165
C15   C     C_R   0.135695 0.394760 0.363275 0.208673
C16   C     C_R   0.863828 0.602405 0.636561 0.206026
C17   C     C_R   0.134053 0.548534 0.550902 -0.308148
C18   C     C_R   0.865343 0.446331 0.451001 -0.306059
C19   C     C_R   0.026678 0.540067 0.548903 0.071429
C20   C     C_R   0.972754 0.455095 0.452485 0.071003
C21   C     C_R   0.557893 0.058742 0.400026 0.158434
C22   C     C_R   0.455525 0.942493 0.610222 0.161077
C23   C     C_R   0.550376 0.930910 0.402322 -0.215310
C24   C     C_R   0.459036 0.070102 0.603366 -0.224983
Cu1   Cu    Cu3+1 0.500000 0.500020 0.640660 0.964681
Cu2   Cu    Cu3+1 0.500000 0.499980 0.359340 0.966630
H1    H     H_    0.820337 0.384986 0.378246 0.167353
H2    H     H_    0.178637 0.608273 0.625482 0.175600
H3    H     H_    0.587808 0.876536 0.325891 0.154585
H4    H     H_    0.421641 0.124901 0.679442 0.152102
H5    H     H_    0.394707 0.351708 0.111571 0.172413
H6    H     H_    0.603304 0.650465 0.888117 0.171922
H7    H     H_    0.394535 0.351394 0.850918 0.130395
H8    H     H_    0.605024 0.649065 0.149044 0.129390
N1    N     N_R   0.500030 0.500030 0.852080 -0.163566
N2    N     N_R   0.499970 0.499970 0.147920 -0.163321
O1    O     O_R   0.499990 0.319660 0.618740 -0.596666
O2    O     O_R   0.500010 0.680340 0.381260 -0.595283
O3    O     O_R   0.499990 0.319630 0.381170 -0.568710
O4    O     O_R   0.500010 0.680370 0.618830 -0.574396
O5    O     O_R   0.349000 0.499990 0.599490 -0.593641
O6    O     O_R   0.651000 0.500010 0.400510 -0.599463
O7    O     O_R   0.348990 0.499960 0.361920 -0.541021
O8    O     O_R   0.651010 0.500040 0.638080 -0.542451
Br1   Br    Br    0.785067 0.707158 0.752209 -0.604522
Br2   Br    Br    0.214367 0.291924 0.245837 -0.598453
C25   C     C_3   0.971037 0.286392 0.258753 -0.382425
C26   C     C_3   0.923128 0.347495 0.122764 -0.775221
H9    H     H_    0.881223 0.277424 0.052273 0.242237
H10   H     H_    0.867465 0.421096 0.145898 0.250894
H11   H     H_    0.984832 0.388478 0.066470 0.270347
H12   H     H_    0.022877 0.211125 0.229951 0.248888
H13   H     H_    0.911399 0.236226 0.309849 0.178819
C27   C     C_3   0.028120 0.710655 0.740446 -0.387004
C28   C     C_3   0.076747 0.651382 0.877212 -0.783706
H14   H     H_    0.015357 0.611341 0.934845 0.272471
H15   H     H_    0.132296 0.577340 0.855154 0.251019
H16   H     H_    0.118868 0.722388 0.946083 0.242787
H17   H     H_    0.086696 0.760391 0.687365 0.184554
H18   H     H_    0.976349 0.786179 0.768619 0.250415
C29   C     C_3   0.624413 0.114291 0.296164 -0.397345
C30   C     C_3   0.567366 0.115036 0.146760 -0.774309
H19   H     H_    0.554721 0.019205 0.106142 0.236979
H20   H     H_    0.491126 0.161724 0.146382 0.262470
H21   H     H_    0.614133 0.164783 0.075010 0.237718
H22   H     H_    0.650543 0.208694 0.327977 0.205249
H23   H     H_    0.696865 0.059194 0.295259 0.193155
C31   C     C_3   0.402889 0.888011 0.729774 -0.373019
C32   C     C_3   0.298669 0.831256 0.676043 -0.814578
H24   H     H_    0.306553 0.761366 0.591912 0.244294
H25   H     H_    0.266537 0.786248 0.765580 0.242019
H26   H     H_    0.243926 0.904146 0.632921 0.249210
H27   H     H_    0.453969 0.820589 0.790541 0.222012
H28   H     H_    0.388060 0.960277 0.809218 0.189541

loop_
_geom_bond_atom_site_label_1
_geom_bond_atom_site_label_2
_ccdc_geom_bond_type
C12   C17   A    
C16   Br1   S    
C32   H26   S    
C6    H6    S    
C28   H14   S    
C11   C18   A    
C30   H19   S    
C14   C16   A    
C9    O5    A    
C10   O6    A    
C11   C16   A    
C29   H23   S    
C31   H28   S    
C21   C29   S    
C19   C20   A    
C30   H21   S    
C12   C15   A    
C1    O1    A    
C25   H13   S    
C1    C4    S    
Cu1   O1    S    
C26   H10   S    
C2    C3    S    
Cu1   Cu2   S    
Cu1   O4    S    
C14   C19   A    
C27   H18   S    
C4    C21   A    
C7    H7    S    
C22   C31   S    
C25   H12   S    
Cu1   N1    S    
C30   H20   S    
C23   H3    S    
Cu1   O8    S    
Cu2   N2    S    
C26   H9    S    
C14   C27   S    
Cu2   O7    S    
C18   C20   A    
C27   H17   S    
C28   H15   S    
C13   C15   A    
C29   C30   S    
C4    C24   A    
C9    C12   S    
C22   C24   A    
Cu2   O3    S    
C9    O7    A    
C24   H4    S    
C32   H25   S    
C10   C11   S    
C1    O3    A    
C10   O8    A    
C5    N2    A    
C2    O4    A    
C29   H22   S    
C6    N1    A    
Cu2   O6    S    
C5    C7    A    
C8    N2    A    
C28   H16   S    
Cu1   O5    S    
C13   C25   S    
C3    C23   A    
C2    O2    A    
C27   C28   S    
Cu2   O2    S    
C3    C22   A    
C6    C8    A    
C32   H24   S    
C15   Br2   S    
C17   C19   A    
C31   H27   S    
C8    H8    S    
C17   H2    S    
C7    N1    A    
C21   C23   A    
C13   C20   A    
C26   H11   S    
C18   H1    S    
C25   C26   S    
C31   C32   S    
C5    H5    S    
