data_mof_unit_42673.cif
_audit_creation_date              2013-03-05T16:31:43-0500
_audit_creation_method            fapswitch 2.2
_symmetry_space_group_name_H-M    P1
_symmetry_Int_Tables_number       1
_space_group_crystal_system       triclinic
_cell_length_a                    14.191417
_cell_length_b                    14.944005
_cell_length_c                    15.183192
_cell_angle_alpha                 89.890607
_cell_angle_beta                  68.066769
_cell_angle_gamma                 88.803443
_cell_volume                      2986.2239294

loop_
_atom_site_label
_atom_site_type_symbol
_atom_site_description
_atom_site_fract_x
_atom_site_fract_y
_atom_site_fract_z
_atom_type_partial_charge
O1    O     O_R   0.420530 0.630930 0.499990 -0.560694
O2    O     O_R   0.579470 0.369070 0.500010 -0.576094
O3    O     O_R   0.579480 0.630940 0.499990 -0.628664
O4    O     O_R   0.420520 0.369060 0.500010 -0.613626
C1    C     C_R   0.499977 0.672011 0.498664 0.960969
C2    C     C_R   0.499510 0.328264 0.503475 0.937959
O5    O     O_R   0.375120 0.499990 0.632240 -0.541874
O6    O     O_R   0.624880 0.500010 0.367760 -0.538297
O7    O     O_R   0.534080 0.500000 0.632240 -0.649514
O8    O     O_R   0.465920 0.500000 0.367760 -0.610086
C3    C     C_R   0.436198 0.499576 0.677546 0.921196
C4    C     C_R   0.563783 0.499406 0.322297 0.984043
Zn1   Zn    Zn3+2 0.393860 0.499990 0.500000 1.067813
Zn2   Zn    Zn3+2 0.606140 0.500010 0.500000 1.043613
C5    C     C_R   0.395597 0.486108 0.781242 -0.200335
C6    C     C_R   0.604153 0.486006 0.218122 -0.202745
C7    C     C_R   0.259044 0.462663 0.935084 0.117250
C8    C     C_R   0.739758 0.458953 0.063209 0.109362
C9    C     C_R   0.290936 0.483448 0.837340 0.321891
C10   C     C_R   0.708574 0.484085 0.160324 0.277808
C11   C     C_R   0.465900 0.467751 0.822661 -0.239318
C12   C     C_R   0.533553 0.467811 0.177733 -0.196475
C13   C     C_R   0.437158 0.436265 0.915147 0.042661
C14   C     C_R   0.561905 0.434969 0.085533 0.010858
C15   C     C_R   0.332317 0.435986 0.974612 -0.012645
C16   C     C_R   0.666427 0.430715 0.025895 -0.029254
C17   C     C_R   0.513117 0.414374 0.951481 -0.026567
C18   C     C_R   0.485990 0.415141 0.049537 -0.017710
C19   C     C_R   0.383673 0.397501 0.107750 0.170395
C20   C     C_R   0.615337 0.391661 0.893577 0.139193
C21   C     C_R   0.306250 0.409643 0.071041 0.135518
C22   C     C_R   0.692736 0.399935 0.930716 0.162828
H1    H     H_    0.454368 0.481403 0.219151 0.230796
H2    H     H_    0.545096 0.479586 0.781789 0.197287
C23   C     C_R   0.493599 0.910666 0.429667 -0.222680
C24   C     C_R   0.449643 0.093317 0.585785 -0.207210
H3    H     H_    0.482958 0.951111 0.374642 0.196403
H4    H     H_    0.401740 0.055643 0.646508 0.202106
C25   C     C_R   0.490814 0.818118 0.424412 0.318690
C26   C     C_R   0.442587 0.186054 0.588391 0.273543
C27   C     C_R   0.500773 0.767719 0.498973 -0.150922
C28   C     C_R   0.501179 0.232933 0.506174 -0.162282
C29   C     C_R   0.519110 0.808605 0.573531 -0.304481
C30   C     C_R   0.568640 0.188617 0.425929 -0.237101
H5    H     H_    0.528651 0.768312 0.629271 0.151918
H6    H     H_    0.614792 0.226382 0.364372 0.179811
C31   C     C_R   0.527844 0.900705 0.575677 0.231417
C32   C     C_R   0.578140 0.096122 0.424842 0.213639
C33   C     C_R   0.513782 0.951718 0.503337 0.041579
C34   C     C_R   0.515884 0.048509 0.504881 0.035299
C35   C     C_R   0.877811 0.573144 0.537864 -0.230366
C36   C     C_R   0.086467 0.435001 0.556008 -0.233978
H7    H     H_    0.902703 0.633000 0.562144 0.189396
H8    H     H_    0.037144 0.383557 0.597446 0.195364
C37   C     C_R   0.780792 0.573060 0.532752 -0.041257
C38   C     C_R   0.187405 0.436292 0.550863 0.020982
H9    H     H_    0.732227 0.632076 0.554919 0.160564
H10   H     H_    0.213513 0.386277 0.588497 0.214923
N1    N     N_R   0.747530 0.500020 0.500000 -0.145920
N2    N     N_R   0.252470 0.499980 0.500000 -0.167914
C39   C     C_R   0.808056 0.423846 0.475124 0.359060
C40   C     C_R   0.219014 0.564844 0.453868 0.311144
C41   C     C_R   0.904328 0.419874 0.483417 0.152049
C42   C     C_R   0.117946 0.565666 0.456195 0.144555
C43   C     C_R   0.942252 0.496789 0.511420 0.013381
C44   C     C_R   0.049937 0.499473 0.508215 0.006143
N3    N     N_2   0.204288 0.392384 0.131850 -0.311178
H11   H     H_    0.161785 0.355206 0.103718 0.262703
C45   C     C_3   0.150670 0.464404 0.196132 -0.541209
H12   H     H_    0.073994 0.475252 0.193882 0.279022
H13   H     H_    0.192708 0.528093 0.178369 0.242395
H14   H     H_    0.140971 0.446710 0.269642 0.259701
N4    N     N_2   0.793234 0.368615 0.875304 -0.291871
H15   H     H_    0.832137 0.334057 0.910426 0.252811
C46   C     C_3   0.854350 0.423982 0.797051 -0.720140
H16   H     H_    0.923509 0.445367 0.808159 0.279026
H17   H     H_    0.811395 0.484435 0.788762 0.227380
H18   H     H_    0.879106 0.384213 0.730408 0.236977
N5    N     N_R   0.777079 0.348912 0.434982 0.232959
O9    O     O_R   0.764287 0.271449 0.476599 -0.368961
O10   O     O_R   0.768430 0.356296 0.353015 -0.347923
N6    N     N_R   0.286714 0.632274 0.402075 0.257825
O11   O     O_R   0.280152 0.710968 0.440633 -0.305894
O12   O     O_R   0.332793 0.623359 0.310666 -0.348227
N7    N     N_R   0.963503 0.338194 0.460897 0.228403
O13   O     O_R   0.049110 0.333849 0.388466 -0.387322
O14   O     O_R   0.936621 0.270580 0.518371 -0.349426
N8    N     N_R   0.086298 0.632233 0.403773 0.220714
O15   O     O_R   0.041610 0.608945 0.346793 -0.378691
O16   O     O_R   0.097401 0.716839 0.416336 -0.298853
N9    N     N_R   0.781904 0.515330 0.196978 0.219531
O17   O     O_R   0.772750 0.595695 0.232493 -0.344470
O18   O     O_R   0.860471 0.465661 0.190921 -0.386333
N10   N     N_R   0.216598 0.506194 0.797309 0.206632
O19   O     O_R   0.150538 0.447781 0.795755 -0.402144
O20   O     O_R   0.213229 0.586195 0.764441 -0.403590
N11   N     N_2   0.154409 0.474018 0.993680 -0.314577
H19   H     H_    0.106188 0.436828 0.972486 0.269414
C47   C     C_3   0.119739 0.566094 0.015950 -0.689329
H20   H     H_    0.041660 0.567615 0.070856 0.270945
H21   H     H_    0.117641 0.601098 0.952245 0.264838
H22   H     H_    0.170371 0.602355 0.043848 0.253111
N12   N     N_2   0.842569 0.470906 0.001506 -0.305976
H23   H     H_    0.895833 0.440394 0.023268 0.267490
C48   C     C_3   0.867146 0.561895 0.969783 -0.685984
H24   H     H_    0.946241 0.563596 0.916921 0.254998
H25   H     H_    0.861255 0.606165 0.030335 0.266261
H26   H     H_    0.815122 0.587445 0.935562 0.246453
N13   N     N_2   0.360776 0.358424 0.199369 -0.315933
H27   H     H_    0.287607 0.366939 0.247566 0.270876
C49   C     C_3   0.399791 0.268041 0.198342 -0.709431
H28   H     H_    0.363500 0.222137 0.163521 0.256439
H29   H     H_    0.382597 0.245486 0.272369 0.246154
H30   H     H_    0.483522 0.264907 0.160192 0.237838
N14   N     N_2   0.637270 0.350650 0.802804 -0.318475
H31   H     H_    0.709491 0.357593 0.753232 0.256984
C50   C     C_3   0.599690 0.261018 0.805578 -0.646983
H32   H     H_    0.615323 0.237232 0.732085 0.255588
H33   H     H_    0.516282 0.260020 0.845515 0.264339
H34   H     H_    0.638255 0.214835 0.839506 0.231783
N15   N     N_R   0.484099 0.777156 0.341234 0.247256
O21   O     O_R   0.534830 0.703604 0.306320 -0.372229
O22   O     O_R   0.440189 0.820144 0.291824 -0.308755
N16   N     N_R   0.379457 0.230297 0.675375 0.195976
O23   O     O_R   0.327798 0.302879 0.674440 -0.391345
O24   O     O_R   0.365685 0.193043 0.756692 -0.391653
N17   N     N_2   0.548401 0.941269 0.651396 -0.311283
H35   H     H_    0.524783 0.904460 0.713144 0.237487
C51   C     C_3   0.651146 0.971961 0.626217 -0.714372
H36   H     H_    0.659755 0.001617 0.689732 0.248522
H37   H     H_    0.668372 0.024497 0.571085 0.261481
H38   H     H_    0.706324 0.915044 0.600035 0.240003
N18   N     N_2   0.648001 0.051697 0.342595 -0.318839
H39   H     H_    0.664140 0.087511 0.280681 0.234922
C52   C     C_3   0.739002 0.016334 0.352846 -0.660425
H40   H     H_    0.788944 0.984095 0.285207 0.249477
H41   H     H_    0.719966 0.964799 0.409110 0.242658
H42   H     H_    0.781088 0.071130 0.370231 0.269052

loop_
_geom_bond_atom_site_label_1
_geom_bond_atom_site_label_2
_geom_bond_distance
_ccdc_geom_bond_type
C15   C21   1.426430 A    
C52   H42   1.111736 S    
C41   C43   1.410756 A    
C16   C22   1.425348 A    
C37   N1    1.363982 A    
N4    C46   1.450826 S    
N4    H15   1.030956 S    
C23   C25   1.387726 A    
C49   H28   1.111267 S    
C8    C16   1.428893 A    
O7    Zn2   1.882352 S    
N11   H19   1.030426 S    
C36   C44   1.407504 A    
C52   H40   1.110406 S    
C31   C33   1.407674 A    
Zn1   N2    2.006528 S    
N7    O13   1.299411 A    
C5    C9    1.410804 A    
Zn2   N1    2.006528 S    
C48   H25   1.110185 S    
O1    C1    1.288557 A    
C19   N13   1.431377 S    
C18   C19   1.419658 A    
C23   H3    1.083797 S    
C14   C16   1.420249 A    
N13   C49   1.446902 S    
N14   H31   1.027415 S    
N2    C40   1.371948 A    
C35   C43   1.408324 A    
O4    Zn1   1.985100 S    
C45   H13   1.112231 S    
C40   C42   1.421270 A    
N11   C47   1.448769 S    
C3    C5    1.475554 S    
C4    C6    1.479725 S    
C30   H6    1.084962 S    
N14   C50   1.446778 S    
C23   C33   1.399589 A    
C6    C12   1.387385 A    
C13   C17   1.414980 A    
C8    C10   1.420835 A    
C6    C10   1.411997 A    
C51   H38   1.111582 S    
C32   C34   1.408740 A    
C40   N6    1.424731 S    
C41   N7    1.433996 S    
C17   C20   1.421390 A    
C27   C29   1.397093 A    
O2    C2    1.283142 A    
C28   C30   1.394556 A    
C10   N9    1.436894 S    
C36   H8    1.080944 S    
O5    C3    1.292187 A    
C20   N14   1.430665 S    
N7    O14   1.300781 A    
C26   N16   1.441769 S    
C48   H26   1.111254 S    
N1    C39   1.376492 A    
N3    H11   1.030694 S    
C32   N18   1.426145 S    
C24   C26   1.386962 A    
C49   H29   1.110651 S    
C50   H34   1.111168 S    
N9    O17   1.301386 A    
N5    O10   1.299667 A    
C11   H2    1.079994 S    
N6    O11   1.300659 A    
C38   N2    1.362351 A    
N3    C45   1.450833 S    
C42   C44   1.414652 A    
C45   H14   1.104627 S    
C21   N3    1.424558 S    
C46   H16   1.109414 S    
N17   C51   1.446855 S    
N9    O18   1.300639 A    
O7    C3    1.299731 A    
C47   H20   1.110044 S    
C5    C11   1.386651 A    
O6    C4    1.294532 A    
C39   C41   1.418120 A    
N10   O19   1.300839 A    
N12   C48   1.447192 S    
C37   H9    1.080998 S    
C51   H37   1.108807 S    
N10   O20   1.301452 A    
C46   H17   1.112419 S    
N15   O21   1.300596 A    
C9    N10   1.435677 S    
O8    C4    1.299501 A    
O4    C2    1.283143 A    
C47   H21   1.108619 S    
N8    O16   1.300575 A    
C33   C34   1.447786 S    
N6    O12   1.300245 A    
C11   C13   1.391850 A    
N18   H39   1.031958 S    
C12   C14   1.391410 A    
O1    Zn1   2.000771 S    
N17   H35   1.031916 S    
C22   N4    1.427657 S    
C24   C34   1.398277 A    
N16   O24   1.301599 A    
C51   H36   1.110524 S    
C52   H41   1.108889 S    
C12   H1    1.078217 S    
C1    C27   1.430575 S    
O6    Zn2   1.924366 S    
C14   C18   1.414561 A    
O3    C1    1.279876 A    
O8    Zn1   1.882352 S    
C31   N17   1.426501 S    
O3    Zn2   1.985101 S    
C48   H24   1.110338 S    
C25   N15   1.440142 S    
C7    C15   1.431226 A    
C50   H33   1.110638 S    
C29   H5    1.085084 S    
N13   H27   1.028148 S    
C24   H4    1.083940 S    
C20   C22   1.417172 A    
C29   C31   1.386024 A    
C39   N5    1.428990 S    
C26   C28   1.409268 A    
C7    C9    1.416372 A    
C38   H10   1.080460 S    
C49   H30   1.110528 S    
C35   C37   1.407695 A    
C8    N12   1.423899 S    
C13   C15   1.423226 A    
C45   H12   1.109902 S    
O2    Zn2   2.000768 S    
C46   H18   1.108367 S    
N15   O22   1.301727 A    
N5    O9    1.300985 A    
C36   C38   1.405692 A    
O5    Zn1   1.924366 S    
C47   H22   1.110812 S    
N8    O15   1.300775 A    
C25   C27   1.407361 A    
C19   C21   1.414059 A    
C43   C44   1.512083 S    
C2    C28   1.425095 S    
N12   H23   1.029605 S    
N18   C52   1.446592 S    
C35   H7    1.082842 S    
C50   H32   1.110859 S    
C7    N11   1.424228 S    
C42   N8    1.438819 S    
C30   C32   1.385534 A    
N16   O23   1.299484 A    
C17   C18   1.391606 A    
