data_mof_unit_25683.cif
_audit_creation_date              2012-10-26T19:17:10-0400
_audit_creation_method            fapswitch 2.2
_symmetry_space_group_name_H-M    P1
_symmetry_Int_Tables_number       1
_space_group_crystal_system       triclinic
_cell_length_a                    14.970309
_cell_length_b                    15.982798
_cell_length_c                    17.054928
_cell_angle_alpha                 95.128183
_cell_angle_beta                  94.891505
_cell_angle_gamma                 90.109116
_cell_volume                      4049.36543031

loop_
_atom_site_label
_atom_site_type_symbol
_atom_type_description
_atom_site_fract_x
_atom_site_fract_y
_atom_site_fract_z
_atom_type_partial_charge
C1    C     C_R   0.501522 0.489837 0.348513 0.564286
C2    C     C_R   0.548900 0.436457 0.856265 -0.021809
C3    C     C_R   0.529543 0.479406 0.098491 0.240542
C4    C     C_R   0.563207 0.513700 0.902926 0.227179
C5    C     C_R   0.569279 0.417512 0.142775 0.264574
C6    C     C_R   0.550312 0.589407 0.868226 0.235958
C7    C     C_R   0.562189 0.420713 0.224953 -0.002929
C8    C     C_R   0.517335 0.589675 0.788345 -0.031417
C9    C     C_R   0.448033 0.755336 0.464057 0.116279
C10   C     C_R   0.558009 0.245880 0.530656 0.121561
C11   C     C_R   0.462538 0.840481 0.448963 -0.027152
C12   C     C_R   0.498915 0.509623 0.651983 0.581825
C13   C     C_R   0.562036 0.156005 0.524501 -0.052395
C14   C     C_R   0.532160 0.887259 0.492929 0.229672
C15   C     C_R   0.487606 0.108538 0.487551 0.216920
C16   C     C_R   0.328831 0.501339 0.500517 0.600163
C17   C     C_R   0.671046 0.498424 0.501409 0.584662
C18   C     C_R   0.593226 0.844752 0.541573 0.224151
C19   C     C_R   0.416622 0.152171 0.451178 0.220449
C20   C     C_R   0.582195 0.757675 0.549883 0.130142
C21   C     C_R   0.421057 0.240591 0.447694 0.128156
C22   C     C_R   0.817416 0.489287 0.581836 -0.054339
C23   C     C_R   0.034139 0.424800 0.371829 0.021464
C24   C     C_R   0.175555 0.490428 0.435150 -0.059221
C25   C     C_R   0.768378 0.493414 0.507566 0.027318
C26   C     C_R   0.231700 0.502551 0.505274 0.027894
C27   C     C_R   0.810430 0.485090 0.437435 0.180480
C28   C     C_R   0.196869 0.501082 0.579197 0.199341
C29   C     C_R   0.900604 0.461602 0.439012 0.037242
C30   C     C_R   0.102499 0.494843 0.583389 0.035401
C31   C     C_R   0.953585 0.471568 0.512024 -0.014921
C32   C     C_R   0.047726 0.475475 0.511722 -0.014177
C33   C     C_R   0.912557 0.479674 0.584322 0.029615
C34   C     C_R   0.969282 0.480676 0.655631 0.019479
C35   C     C_R   0.086237 0.464090 0.438494 0.037166
C36   C     C_R   0.939728 0.426557 0.370790 0.038809
C37   C     C_R   0.060622 0.502605 0.655665 0.032505
C38   C     C_3   0.769306 0.507596 0.656518 -0.398645
C39   C     C_3   0.209395 0.515676 0.359557 -0.408550
C40   C     C_3   0.643317 0.110788 0.559788 -0.334323
C41   C     C_3   0.408536 0.878756 0.381966 -0.338575
C42   C     C_3   0.651176 0.718709 0.604902 -0.295085
C43   C     C_3   0.348673 0.279696 0.396047 -0.298861
C44   C     C_3   0.882575 0.382766 0.301042 -0.334344
C45   C     C_R   0.508535 0.483955 0.261568 0.013026
C46   C     C_3   0.106808 0.542643 0.732440 -0.341294
C47   C     C_3   0.077900 0.371555 0.307584 -0.393120
C48   C     C_3   0.939759 0.444480 0.728583 -0.390149
C49   C     C_3   0.467022 0.355233 0.738784 -0.336804
C50   C     C_3   0.388419 0.595123 0.246718 -0.386993
C51   C     C_3   0.578436 0.355048 0.888991 -0.331815
C52   C     C_3   0.438663 0.610439 0.084534 -0.339359
C53   C     C_3   0.608554 0.354752 0.272335 -0.313380
C54   C     C_3   0.486543 0.671941 0.757943 -0.313988
C55   C     C_3   0.631086 0.292306 0.584680 -0.325461
C56   C     C_R   0.505559 0.512201 0.740394 0.011207
C57   C     C_3   0.359387 0.715273 0.434129 -0.329937
C58   C     C_R   0.462568 0.542117 0.214663 -0.020257
C59   C     C_R   0.510766 0.435912 0.777789 -0.034195
C60   C     C_R   0.478535 0.543534 0.134429 -0.003066
Cl1   Cl    Cl    0.686357 0.901649 0.590811 -0.621805
Cl2   Cl    Cl    0.321656 0.093768 0.407531 -0.620599
Cl3   Cl    Cl    0.755282 0.523966 0.351861 -0.614436
Cl4   Cl    Cl    0.275539 0.498346 0.662757 -0.686344
Cl5   Cl    Cl    0.626042 0.334741 0.092669 -0.620122
Cl6   Cl    Cl    0.577291 0.684719 0.926625 -0.597157
Cu1   Cu    Cu3+1 0.495660 0.415220 0.496180 0.917728
Cu2   Cu    Cu3+1 0.504340 0.584780 0.503820 0.953736
H1    H     H_    0.699648 0.529063 0.645671 0.115704
H2    H     H_    0.442351 0.934082 0.362417 0.203501
H3    H     H_    0.401131 0.832981 0.328796 0.114371
H4    H     H_    0.341501 0.897595 0.400217 0.191837
H5    H     H_    0.661421 0.758346 0.661841 0.152149
H6    H     H_    0.631951 0.657221 0.621247 0.156830
H7    H     H_    0.716010 0.713344 0.577773 0.174095
H8    H     H_    0.336034 0.240862 0.338845 0.147058
H9    H     H_    0.285611 0.284015 0.426005 0.160330
H10   H     H_    0.366559 0.341695 0.379242 0.163894
H11   H     H_    0.812735 0.372016 0.314589 0.164803
H12   H     H_    0.763876 0.450284 0.687789 0.123358
H13   H     H_    0.883091 0.419925 0.249119 0.188870
H14   H     H_    0.906948 0.318671 0.285161 0.120258
H15   H     H_    0.148004 0.597503 0.721375 0.185527
H16   H     H_    0.057523 0.568417 0.773156 0.120754
H17   H     H_    0.147585 0.495658 0.763297 0.190141
H18   H     H_    0.052408 0.306015 0.303292 0.146272
H19   H     H_    0.063955 0.397900 0.249771 0.138460
H20   H     H_    0.151113 0.365126 0.320638 0.138554
H21   H     H_    0.997716 0.418724 0.763497 0.144046
H22   H     H_    0.908765 0.492948 0.767961 0.135511
H23   H     H_    0.803986 0.559463 0.694956 0.151164
H24   H     H_    0.894268 0.389819 0.711551 0.139378
H25   H     H_    0.407643 0.368210 0.698407 0.218962
H26   H     H_    0.515940 0.316878 0.706649 0.131020
H27   H     H_    0.440470 0.317307 0.783218 0.134488
H28   H     H_    0.361643 0.566612 0.296207 0.110325
H29   H     H_    0.413087 0.660073 0.265002 0.152315
H30   H     H_    0.329703 0.596069 0.202431 0.129204
H31   H     H_    0.637981 0.366081 0.932092 0.214129
H32   H     H_    0.522997 0.327285 0.917706 0.188637
H33   H     H_    0.599647 0.309053 0.841600 0.117653
H34   H     H_    0.237352 0.580215 0.370459 0.122838
H35   H     H_    0.493078 0.641740 0.057859 0.223618
H36   H     H_    0.390071 0.581417 0.036978 0.151483
H37   H     H_    0.404807 0.661604 0.118303 0.127094
H38   H     H_    0.558427 0.307882 0.285598 0.150077
H39   H     H_    0.661621 0.320740 0.241552 0.184877
H40   H     H_    0.642475 0.383827 0.328419 0.181686
H41   H     H_    0.464338 0.716657 0.805754 0.187959
H42   H     H_    0.541595 0.701645 0.730709 0.146951
H43   H     H_    0.426473 0.662267 0.715174 0.177247
H44   H     H_    0.617308 0.356919 0.604530 0.189220
H45   H     H_    0.262023 0.471671 0.339955 0.111024
H46   H     H_    0.640809 0.263207 0.641459 0.080851
H47   H     H_    0.694938 0.290595 0.555863 0.126290
H48   H     H_    0.370920 0.656489 0.398928 0.161480
H49   H     H_    0.320331 0.706218 0.485152 0.163696
H50   H     H_    0.315182 0.752675 0.395801 0.088636
H51   H     H_    0.155312 0.518848 0.311376 0.155961
H52   H     H_    0.673033 0.070470 0.512614 0.203303
H53   H     H_    0.700005 0.151191 0.585946 0.117101
H54   H     H_    0.622840 0.072857 0.606761 0.210880
N1    N     N_2   0.526498 0.468604 0.015149 -0.222096
N2    N     N_2   0.577225 0.517710 0.986778 -0.165489
N3    N     N_R   0.510860 0.712130 0.509560 -0.235128
N4    N     N_R   0.489140 0.287870 0.490440 -0.237377
N5    N     N_2   0.545353 0.975493 0.486552 -0.213225
N6    N     N_2   0.476441 0.019278 0.492483 -0.180628
O1    O     O_R   0.495940 0.420530 0.382500 -0.532509
O2    O     O_R   0.504060 0.579470 0.617500 -0.518699
O3    O     O_R   0.503270 0.563720 0.388950 -0.471515
O4    O     O_R   0.496730 0.436280 0.611050 -0.508812
O5    O     O_R   0.366590 0.428400 0.496760 -0.488328
O6    O     O_R   0.633410 0.571600 0.503240 -0.475870
O7    O     O_R   0.373920 0.571590 0.503210 -0.512098
O8    O     O_R   0.626080 0.428410 0.496790 -0.525998

loop_
_geom_bond_atom_site_label_1
_geom_bond_atom_site_label_2
_ccdc_geom_bond_type
C52   H35   S    
C55   H44   S    
C27   C29   A    
C34   C37   A    
C14   C18   A    
Cu1   O4    S    
C50   H28   S    
C8    C56   A    
N1    N2    D    
C43   H10   S    
C15   C19   A    
C40   H53   S    
C29   C36   A    
C54   H42   S    
C42   H7    S    
C12   O2    A    
C7    C45   A    
C19   C21   A    
C24   C26   A    
C44   H14   S    
C43   H9    S    
C11   C14   A    
C19   Cl2   S    
C58   C60   A    
C22   C38   S    
C43   H8    S    
C24   C39   S    
C4    N2    S    
C13   C40   S    
C52   C60   S    
C21   C43   S    
C53   H38   S    
C39   H45   S    
C22   C25   A    
C31   C33   A    
C49   H26   S    
C12   O4    A    
C9    C57   S    
C41   H3    S    
C46   H17   S    
C3    C60   A    
C38   H1    S    
C48   H22   S    
C51   H31   S    
Cu1   O1    S    
C16   O5    A    
C3    N1    S    
C57   H48   S    
C44   H11   S    
C16   C26   S    
C45   C58   A    
C42   H6    S    
C24   C35   A    
C23   C47   S    
Cu1   Cu2   S    
C50   C58   S    
C47   H18   S    
C4    C6    A    
C44   H13   S    
C50   H30   S    
C8    C54   S    
C5    C7    A    
C2    C59   A    
C6    C8    A    
C3    C5    A    
C38   H23   S    
C9    N3    A    
C14   N5    S    
C30   C37   A    
C47   H19   S    
Cu2   O3    S    
C2    C4    A    
C32   C35   A    
C53   H39   S    
C31   C32   A    
C17   O8    A    
C33   C34   A    
C49   H27   S    
Cu2   O2    S    
C10   C55   S    
C9    C11   A    
C12   C56   S    
C27   Cl3   S    
C41   H4    S    
C46   H16   S    
C28   Cl4   S    
C5    Cl5   S    
C40   H52   S    
C52   H37   S    
C23   C35   A    
C48   H21   S    
C13   C15   A    
Cu1   N4    S    
C51   H33   S    
C7    C53   S    
N5    N6    D    
C39   H34   S    
C57   H49   S    
C51   H32   S    
C22   C33   A    
C52   H36   S    
C42   H5    S    
C50   H29   S    
Cu1   O5    S    
C26   C28   A    
Cu2   O7    S    
C1    O3    A    
C10   C13   A    
C20   C42   S    
C18   Cl1   S    
C55   H46   S    
C25   C27   A    
C40   H54   S    
C1    O1    A    
C49   C59   S    
C56   C59   A    
C15   N6    S    
C17   C25   S    
C47   H20   S    
Cu2   O6    S    
Cu1   O8    S    
C21   N4    A    
C20   N3    A    
C29   C31   A    
C30   C32   A    
C55   H47   S    
C53   H40   S    
C1    C45   S    
C38   H12   S    
C39   H51   S    
C28   C30   A    
C54   H43   S    
C11   C41   S    
C18   C20   A    
C36   C44   S    
C2    C51   S    
C46   H15   S    
C6    Cl6   S    
C34   C48   S    
C54   H41   S    
C23   C36   A    
C48   H24   S    
C17   O6    A    
C57   H50   S    
C49   H25   S    
C37   C46   S    
C10   N4    A    
C16   O7    A    
Cu2   N3    S    
C41   H2    S    
