data_mof_unit_67865.cif
_audit_creation_date              2013-03-05T15:41:51-0500
_audit_creation_method            fapswitch 2.2
_symmetry_space_group_name_H-M    P1
_symmetry_Int_Tables_number       1
_space_group_crystal_system       triclinic
_cell_length_a                    7.905273
_cell_length_b                    8.745383
_cell_length_c                    10.618602
_cell_angle_alpha                 91.619915
_cell_angle_beta                  87.915718
_cell_angle_gamma                 91.202622
_cell_volume                      733.187943756

loop_
_atom_site_label
_atom_site_type_symbol
_atom_site_description
_atom_site_fract_x
_atom_site_fract_y
_atom_site_fract_z
_atom_type_partial_charge
O1    O     O_R   0.389250 0.738570 0.508410 -0.585645
O2    O     O_R   0.610750 0.261430 0.491590 -0.623892
O3    O     O_R   0.678390 0.711620 0.486450 -0.642896
O4    O     O_R   0.321610 0.288380 0.513550 -0.636811
C1    C     C_R   0.542702 0.793965 0.501054 0.900906
C2    C     C_R   0.457280 0.207114 0.498777 0.899120
O5    O     O_R   0.355460 0.513510 0.697030 -0.636304
O6    O     O_R   0.644540 0.486490 0.302970 -0.595373
O7    O     O_R   0.644600 0.486560 0.675070 -0.630792
O8    O     O_R   0.355400 0.513440 0.324930 -0.635822
C3    C     C_R   0.504990 0.505794 0.742147 0.922981
C4    C     C_R   0.494356 0.493485 0.257747 0.891316
Zn1   Zn    Zn3+2 0.306940 0.517990 0.514670 0.920992
Zn2   Zn    Zn3+2 0.693060 0.482010 0.485330 0.931451
N1    N     N_2   0.950320 0.457950 0.465730 -0.191762
N2    N     N_2   0.049680 0.542050 0.534270 -0.206025
C5    C     C_3   0.430033 0.631698 0.964665 -0.370325
C6    C     C_3   0.562900 0.365438 0.034282 -0.320532
C7    C     C_3   0.582939 0.613687 0.049345 0.634841
C8    C     C_3   0.411243 0.384627 0.949736 0.605182
C9    C     C_3   0.485987 0.490788 0.121908 -0.112245
C10   C     C_3   0.509930 0.506998 0.877800 -0.119148
C11   C     C_3   0.331461 0.506616 0.039442 -0.336852
C12   C     C_3   0.663057 0.490788 0.961278 -0.262005
C13   C     C_2   0.559577 0.957268 0.519246 0.151996
C14   C     C_2   0.440285 0.046092 0.474290 0.167016
O9    O     O_3   0.678977 0.723138 0.117114 -0.655141
C15   C     C_3   0.610684 0.868989 0.107217 0.076113
H1    H     H_    0.636484 0.935214 0.195486 0.116264
H2    H     H_    0.470940 0.866811 0.102860 0.130446
C16   C     C_3   0.698586 0.949225 0.996475 -0.458851
H3    H     H_    0.760667 0.053828 0.034557 0.202412
H4    H     H_    0.795881 0.873442 0.952129 0.254634
C17   C     C_3   0.580351 0.992140 0.894309 -0.824515
H5    H     H_    0.561474 0.894674 0.826772 0.269796
H6    H     H_    0.634202 0.091824 0.843234 0.306448
H7    H     H_    0.458041 0.025147 0.936319 0.282175
O10   O     O_3   0.335863 0.263856 0.880590 -0.645564
C18   C     C_3   0.165388 0.293477 0.856325 0.165015
H8    H     H_    0.140568 0.249011 0.759635 0.166696
H9    H     H_    0.133148 0.416937 0.857158 0.099869
C19   C     C_3   0.049038 0.208447 0.948824 -0.425727
H10   H     H_    0.034877 0.276289 0.038420 0.195393
H11   H     H_    0.922608 0.197150 0.907678 0.184544
C20   C     C_3   0.120912 0.052108 0.975823 -0.838098
H12   H     H_    0.027485 0.975591 0.020994 0.238397
H13   H     H_    0.224877 0.069097 0.041400 0.255566
H14   H     H_    0.170753 0.993992 0.889302 0.278139
H15   H     H_    0.370406 0.735291 0.930021 0.161321
H16   H     H_    0.608040 0.257691 0.071372 0.148048
H17   H     H_    0.198290 0.511853 0.075901 0.160760
H18   H     H_    0.797417 0.488652 0.927154 0.143942
H19   H     H_    0.012613 0.392068 0.397643 0.180507
H20   H     H_    0.986402 0.600479 0.605998 0.192794
O11   O     O_3   0.661499 0.016120 0.613828 -0.671756
C21   C     C_3   0.834763 0.996562 0.584280 0.126987
H21   H     H_    0.895328 0.111804 0.575785 0.171923
H22   H     H_    0.860246 0.930937 0.495353 0.156164
C22   C     C_3   0.915204 0.915700 0.691115 -0.445051
H23   H     H_    0.904528 0.988592 0.776924 0.250716
H24   H     H_    0.847386 0.805356 0.708434 0.232939
C23   C     C_3   0.101343 0.887894 0.661178 -0.867025
H25   H     H_    0.114846 0.834400 0.566436 0.316959
H26   H     H_    0.152416 0.809443 0.730222 0.245236
H27   H     H_    0.174613 0.997430 0.662884 0.281113
O12   O     O_3   0.299615 0.983165 0.416017 -0.636801
C24   C     C_3   0.255497 0.061014 0.307565 0.107157
H28   H     H_    0.328085 0.014177 0.226030 0.107471
H29   H     H_    0.280033 0.186188 0.309329 0.097461
C25   C     C_3   0.067291 0.034666 0.289519 -0.391365
H30   H     H_    0.998308 0.084504 0.372100 0.192810
H31   H     H_    0.024151 0.100090 0.209946 0.180317
C26   C     C_3   0.024229 0.863941 0.271335 -0.719072
H32   H     H_    0.067716 0.797091 0.350718 0.284529
H33   H     H_    0.084954 0.817121 0.183028 0.239823
H34   H     H_    0.885772 0.847385 0.268130 0.258713

loop_
_geom_bond_atom_site_label_1
_geom_bond_atom_site_label_2
_geom_bond_distance
_ccdc_geom_bond_type
C12   H18   1.110075 S    
O11   C21   1.406886 S    
C17   H7    1.090993 S    
C26   H32   1.108100 S    
C18   H9    1.114286 S    
C20   H12   1.093149 S    
O5    C3    1.295281 A    
C5    C11   1.550032 S    
O1    C1    1.297279 A    
N1    H19   1.029388 S    
C15   H1    1.110768 S    
C7    C9    1.518418 S    
O10   C18   1.411858 S    
N1    N2    1.294087 D    
C6    C9    1.538290 S    
C21   H21   1.111239 S    
C6    C8    1.538416 S    
C17   H5    1.109506 S    
O4    Zn1   2.013477 S    
C23   H26   1.110324 S    
C16   H4    1.109043 S    
C25   H30   1.099941 S    
C7    O9    1.407387 S    
C17   H6    1.108928 S    
O12   C24   1.412405 S    
C22   H23   1.098884 S    
C26   H33   1.109594 S    
O2    C2    1.294024 A    
C19   H11   1.106695 S    
C18   C19   1.520058 S    
C20   H13   1.101402 S    
C22   H24   1.110683 S    
C24   H28   1.095586 S    
C14   O12   1.388332 S    
O4    C2    1.301320 A    
C5    H15   1.107998 S    
C18   H8    1.110290 S    
C13   C14   1.343529 D    
C4    C9    1.445842 S    
C24   H29   1.107483 S    
C19   C20   1.530032 S    
O7    Zn2   2.036570 S    
C23   H25   1.100011 S    
C8    O10   1.404032 S    
C11   H17   1.109794 S    
C16   H3    1.102674 S    
C8    C11   1.539604 S    
O6    C4    1.300028 A    
C25   C26   1.532825 S    
C16   C17   1.517536 S    
O7    C3    1.302885 A    
O3    Zn2   2.013477 S    
O8    C4    1.300020 A    
C1    C13   1.439791 S    
C8    C10   1.518300 S    
C9    C11   1.539472 S    
C26   H34   1.102682 S    
C6    C12   1.548073 S    
O1    Zn1   2.024964 S    
C19   H10   1.110309 S    
C6    H16   1.102579 S    
C20   H14   1.101495 S    
C22   C23   1.517252 S    
O6    Zn2   1.989290 S    
C23   H27   1.109031 S    
C15   C16   1.524726 S    
C13   O11   1.391036 S    
O3    C1    1.306616 A    
O8    Zn1   2.036570 S    
C3    C10   1.442129 S    
C5    C10   1.539046 S    
C21   C22   1.519253 S    
C24   C25   1.518968 S    
C15   H2    1.107106 S    
C7    C12   1.536074 S    
C2    C14   1.429191 S    
C5    C7    1.545804 S    
C21   H22   1.105439 S    
C10   C12   1.537368 S    
O2    Zn2   2.024964 S    
N2    H20   1.025893 S    
O5    Zn1   1.989292 S    
Zn1   N2    2.051406 S    
O9    C15   1.403593 S    
Zn2   N1    2.051406 S    
C25   H31   1.101861 S    
