data_mof_unit_22459.cif
_audit_creation_date              2012-12-11T16:56:08-0500
_audit_creation_method            fapswitch 2.2
_symmetry_space_group_name_H-M    P1
_symmetry_Int_Tables_number       1
_space_group_crystal_system       triclinic
_cell_length_a                    6.964314
_cell_length_b                    14.533942
_cell_length_c                    16.196873
_cell_angle_alpha                 90.47062
_cell_angle_beta                  90.061503
_cell_angle_gamma                 90.007155
_cell_volume                      1639.3739844

loop_
_atom_site_label
_atom_site_type_symbol
_atom_type_description
_atom_site_fract_x
_atom_site_fract_y
_atom_site_fract_z
_atom_type_partial_charge
O1    O     O_R   0.505830 0.583360 0.413880 -0.540837
O2    O     O_R   0.175830 0.595460 0.585520 -0.545386
O3    O     O_R   0.005520 0.416640 0.586120 -0.511125
C1    C     C_R   0.344704 0.617404 0.614429 0.694971
O4    O     O_R   0.176120 0.594390 0.414490 -0.546340
O5    O     O_R   0.005810 0.415570 0.413870 -0.539796
C2    C     C_R   0.344837 0.616248 0.385913 0.683396
O6    O     O_R   0.505540 0.584430 0.586130 -0.539500
O7    O     O_3   0.339200 0.441330 0.500000 -0.354050
V1    V     V_3+5 0.064350 0.510880 0.500000 1.433147
O8    O     O_R   0.676100 0.404540 0.414480 -0.539932
C3    C     C_R   0.845086 0.382130 0.386115 0.701435
O9    O     O_R   0.675810 0.405610 0.585510 -0.547690
C4    C     C_R   0.845455 0.381745 0.611841 0.692039
V2    V     V_3+5 0.564340 0.489120 0.500000 1.437397
O10   O     O_3   0.839360 0.558670 0.500000 -0.379963
C5    C     C_2   0.726333 0.208413 0.784812 -0.074525
C6    C     C_2   0.884559 0.188001 0.828787 -0.268155
H1    H     H_    0.592603 0.172790 0.797469 0.151117
H2    H     H_    0.014664 0.227946 0.820830 0.180808
C7    C     C_2   0.719791 0.284137 0.723630 -0.197709
C8    C     C_2   0.862598 0.304740 0.670395 0.232935
H3    H     H_    0.587058 0.323279 0.721155 0.129459
C9    C     C_R   0.726007 0.245367 0.191557 0.101977
C10   C     C_R   0.882630 0.185525 0.183466 -0.109178
C11   C     C_R   0.034996 0.196564 0.239914 -0.177416
C12   C     C_R   0.023136 0.260860 0.305346 -0.164537
C13   C     C_R   0.857916 0.315493 0.316586 -0.106763
C14   C     C_R   0.713878 0.308703 0.256487 0.091065
C15   C     C_3   0.504341 0.292184 0.267003 -0.413644
C16   C     C_3   0.517459 0.223543 0.195998 -0.394270
H4    H     H_    0.471393 0.259602 0.327189 0.180498
H5    H     H_    0.438637 0.245814 0.139895 0.172860
H6    H     H_    0.491346 0.151236 0.214860 0.169574
C17   C     C_R   0.507960 0.681790 0.741250 0.103087
C18   C     C_R   0.353152 0.682157 0.685832 -0.112694
C19   C     C_R   0.201330 0.743351 0.703131 -0.174104
H7    H     H_    0.078482 0.746089 0.662469 0.135501
C20   C     C_R   0.212555 0.806205 0.769795 -0.162620
H8    H     H_    0.097454 0.855235 0.778462 0.135147
C21   C     C_R   0.376263 0.810100 0.821130 -0.112486
C22   C     C_R   0.519564 0.744265 0.806959 0.098239
C23   C     C_3   0.729829 0.757350 0.795148 -0.407757
C24   C     C_3   0.717352 0.688949 0.723905 -0.399580
H9    H     H_    0.814740 0.731540 0.848289 0.172549
H10   H     H_    0.764945 0.828370 0.775213 0.174187
H11   H     H_    0.794351 0.623424 0.736003 0.165179
H12   H     H_    0.746002 0.720062 0.662671 0.173073
C25   C     C_R   0.509677 0.746066 0.311601 0.109795
C26   C     C_R   0.352943 0.686380 0.319781 -0.109533
C27   C     C_R   0.200512 0.696792 0.263366 -0.178386
H13   H     H_    0.077057 0.652052 0.266878 0.130190
C28   C     C_R   0.212318 0.760213 0.198044 -0.179040
C29   C     C_R   0.377593 0.814680 0.186733 -0.110445
C30   C     C_R   0.521778 0.808498 0.246781 0.105024
C31   C     C_3   0.731234 0.791728 0.236159 -0.416184
C32   C     C_3   0.718148 0.724140 0.307002 -0.399328
H14   H     H_    0.818395 0.853726 0.251201 0.176232
H15   H     H_    0.763956 0.758233 0.175869 0.169379
H16   H     H_    0.797126 0.747229 0.363137 0.176932
H17   H     H_    0.744062 0.651537 0.287943 0.164338
O11   O     O_R   0.229930 0.912420 0.917160 -0.539428
O12   O     O_R   0.559420 0.902500 0.088780 -0.540502
O13   O     O_R   0.729660 0.081330 0.089380 -0.537895
C33   C     C_R   0.390422 0.880430 0.117192 0.689830
O14   O     O_R   0.559650 0.901420 0.917750 -0.539361
O15   O     O_R   0.729880 0.080250 0.917130 -0.538652
C34   C     C_R   0.390520 0.879601 0.888711 0.703265
O16   O     O_R   0.229700 0.913500 0.089410 -0.540765
O17   O     O_3   0.396250 0.055540 0.003280 -0.370223
V3    V     V_3+5 0.671130 0.986010 0.003260 1.403546
O18   O     O_R   0.059600 0.091310 0.917720 -0.537671
C35   C     C_R   0.890653 0.114446 0.890860 0.734470
O19   O     O_R   0.059370 0.092380 0.088750 -0.544884
C36   C     C_R   0.890686 0.114546 0.117336 0.690862
V4    V     V_3+5 0.171120 0.007820 0.003230 1.406533
O20   O     O_3   0.896130 0.938240 0.003240 -0.372748
H18   H     H_    0.096435 0.763237 0.153697 0.129949
Cl1   Cl    Cl    0.070828 0.235592 0.660144 -0.668787
H19   H     H_    0.158324 0.151690 0.236339 0.133466
H20   H     H_    0.138839 0.264468 0.349802 0.141601
H21   H     H_    0.417344 0.353990 0.252093 0.168836

loop_
_geom_bond_atom_site_label_1
_geom_bond_atom_site_label_2
_ccdc_geom_bond_type
O14   C34   A    
C30   C31   S    
C1    C18   S    
C21   C22   A    
C17   C18   A    
O18   V4    S    
O12   C33   A    
C20   C21   A    
C29   C33   S    
C28   C29   A    
C11   C12   A    
C19   H7    S    
O19   V4    S    
C3    C13   S    
C13   C14   A    
C8    Cl1   S    
O5    C3    A    
C15   C16   S    
V2    O10   S    
C25   C32   S    
C31   C32   S    
O16   V4    S    
O13   V3    S    
C17   C22   A    
C9    C14   A    
O8    V2    S    
C16   H5    S    
O17   V3    S    
O15   C35   A    
O7    V1    S    
O15   V3    S    
C24   H11   S    
C1    O6    A    
C7    C8    D    
O11   V4    S    
C5    C6    D    
C21   C34   S    
O19   C36   A    
C27   H13   S    
C12   H20   S    
V4    O20   S    
C20   H8    S    
O4    C2    A    
C32   H16   S    
C10   C11   A    
C25   C30   A    
C11   H19   S    
C10   C36   S    
C15   H21   S    
O2    C1    A    
C23   C24   S    
C14   C15   S    
O14   V3    S    
C26   C27   A    
C16   H6    S    
C9    C10   A    
C17   C24   S    
C23   H9    S    
O3    C4    A    
O1    V2    S    
O12   V3    S    
O6    V2    S    
O9    V2    S    
O17   V4    S    
C22   C23   S    
O2    V1    S    
V3    O20   S    
C29   C30   A    
C18   C19   A    
O1    C2    A    
C2    C26   S    
O18   C35   A    
O5    V1    S    
O8    C3    A    
C32   H17   S    
C6    C35   S    
C31   H15   S    
O11   C34   A    
C4    C8    S    
C7    H3    S    
C28   H18   S    
O7    V2    S    
C9    C16   S    
O4    V1    S    
C19   C20   A    
O3    V1    S    
V1    O10   S    
C15   H4    S    
C33   O16   A    
C5    H1    S    
O13   C36   A    
C31   H14   S    
C6    H2    S    
C23   H10   S    
C5    C7    S    
C25   C26   A    
C12   C13   A    
C27   C28   A    
O9    C4    A    
C24   H12   S    
