data_mof_unit_36956.cif
_audit_creation_date              2012-12-10T18:06:39-0500
_audit_creation_method            fapswitch 2.2
_symmetry_space_group_name_H-M    P1
_symmetry_Int_Tables_number       1
_space_group_crystal_system       triclinic
_cell_length_a                    12.59947
_cell_length_b                    13.145085
_cell_length_c                    15.460217
_cell_angle_alpha                 84.014975
_cell_angle_beta                  100.165878
_cell_angle_gamma                 97.246744
_cell_volume                      2491.37504262

loop_
_atom_site_label
_atom_site_type_symbol
_atom_type_description
_atom_site_fract_x
_atom_site_fract_y
_atom_site_fract_z
_atom_type_partial_charge
C1    C     C_R   0.444343 0.308260 0.512462 0.875959
C2    C     C_R   0.670022 0.460866 0.940088 0.068344
C3    C     C_R   0.558037 0.451004 0.903589 -0.035466
C4    C     C_R   0.434635 0.511962 0.335896 0.883948
C5    C     C_R   0.749445 0.472277 0.884596 0.516612
C6    C     C_R   0.712700 0.482175 0.792512 -0.360019
C7    C     C_R   0.527506 0.428348 0.815434 -0.097363
C8    C     C_R   0.731662 0.939790 0.536114 -0.213405
C9    C     C_R   0.594633 0.802852 0.486404 -0.123165
C10   C     C_R   0.298914 0.163457 0.501277 -0.202005
C11   C     C_R   0.266303 0.059682 0.493095 -0.134085
C12   C     C_R   0.434999 0.488513 0.097864 -0.035822
C13   C     C_R   0.343796 0.991457 0.499492 -0.150882
C14   C     C_R   0.456276 0.025711 0.519670 0.089265
C15   C     C_R   0.486673 0.127082 0.542722 0.061402
C16   C     C_R   0.556678 0.692270 0.488380 0.856867
C17   C     C_R   0.539599 0.964144 0.516114 0.069339
C18   C     C_R   0.650469 0.000443 0.544926 0.045432
C19   C     C_R   0.676653 0.096068 0.581877 -0.046943
C20   C     C_R   0.593827 0.156274 0.582888 -0.231520
C21   C     C_R   0.515201 0.867794 0.483048 -0.218590
C22   C     C_R   0.705295 0.843209 0.502946 -0.049140
C23   C     C_R   0.342422 0.536074 0.056771 0.099275
C24   C     C_R   0.409454 0.198143 0.522838 -0.090972
C25   C     C_R   0.144181 0.624556 0.641135 -0.156191
C26   C     C_R   0.755036 0.371262 0.402803 0.030321
C27   C     C_R   0.847361 0.324751 0.400599 -0.255850
C28   C     C_R   0.564067 0.482662 0.663895 0.955089
C29   C     C_R   0.945347 0.362358 0.449443 -0.124491
C30   C     C_R   0.951054 0.449361 0.497250 0.017024
C31   C     C_R   0.853321 0.484870 0.505803 0.241660
C32   C     C_R   0.049133 0.503699 0.535391 -0.118378
C33   C     C_R   0.047231 0.572044 0.600491 0.008346
C34   C     C_R   0.512162 0.470282 0.046926 0.069695
C35   C     C_R   0.947251 0.593414 0.617702 -0.239937
C36   C     C_R   0.852302 0.555219 0.566972 -0.177282
C37   C     C_R   0.146599 0.502184 0.503439 0.547111
C38   C     C_R   0.240498 0.613363 0.611438 -0.075401
C39   C     C_R   0.396187 0.516239 0.240699 -0.145665
C40   C     C_R   0.602013 0.462416 0.758311 -0.144491
C41   C     C_R   0.282757 0.580888 0.108174 -0.174115
C42   C     C_R   0.315347 0.577719 0.199440 -0.310726
C43   C     C_R   0.448590 0.463371 0.189223 0.429160
C44   C     C_3   0.935417 0.475001 0.869964 0.099780
C45   C     C_R   0.481464 0.470943 0.954743 0.121145
C46   C     C_3   0.932723 0.363620 0.847053 -0.383062
C47   C     C_3   0.019905 0.354197 0.792064 -0.827003
C48   C     C_2   0.794917 0.793137 0.480294 0.905088
C49   C     C_2   0.788873 0.138529 0.617477 0.905887
C50   C     C_2   0.341874 0.671558 0.651631 1.047485
C51   C     C_2   0.431283 0.351330 0.789073 0.913232
C52   C     C_2   0.145866 0.691833 0.713238 0.926988
C53   C     C_3   0.141511 0.530017 0.354034 0.095667
C54   C     C_3   0.025104 0.552502 0.315493 -0.419687
C55   C     C_3   0.022129 0.623002 0.230350 -0.916528
C56   C     C_R   0.380231 0.504406 0.915114 -0.101465
C57   C     C_3   0.468092 0.289859 0.206492 0.058255
C58   C     C_3   0.425675 0.229705 0.285843 -0.342232
C59   C     C_3   0.378525 0.120586 0.265086 -0.932266
C60   C     C_R   0.314052 0.541148 0.965264 -0.221334
C61   C     C_R   0.622212 0.464756 0.084398 -0.206497
C62   C     C_R   0.700262 0.463485 0.031437 -0.193771
H1    H     H_    0.241225 0.573886 0.932501 0.185170
H2    H     H_    0.015050 0.321986 0.450064 0.199653
H3    H     H_    0.842718 0.259127 0.362698 0.171216
H4    H     H_    0.779465 0.583353 0.575932 0.203686
H5    H     H_    0.768030 0.504856 0.746392 0.163937
H6    H     H_    0.784658 0.467816 0.062368 0.196375
H7    H     H_    0.215685 0.623436 0.077505 0.159549
H8    H     H_    0.277944 0.623498 0.237184 0.163838
H9    H     H_    0.355121 0.509862 0.844553 0.195883
H10   H     H_    0.651566 0.473085 0.153575 0.204919
H11   H     H_    0.016819 0.496811 0.908498 0.191328
H12   H     H_    0.816331 0.967244 0.553804 0.223528
H13   H     H_    0.929628 0.531189 0.811157 0.169800
H14   H     H_    0.946655 0.312592 0.909034 0.236769
H15   H     H_    0.852452 0.336906 0.809309 0.254935
H16   H     H_    0.004189 0.400665 0.727901 0.268182
H17   H     H_    0.018615 0.272532 0.779047 0.283556
H18   H     H_    0.101599 0.380888 0.827684 0.266396
H19   H     H_    0.955190 0.778179 0.503098 0.348138
H20   H     H_    0.943132 0.178477 0.597494 0.343598
H21   H     H_    0.440668 0.804277 0.650238 0.344859
H22   H     H_    0.346976 0.260279 0.697279 0.348106
H23   H     H_    0.433255 0.838841 0.457073 0.172739
H24   H     H_    0.186143 0.832524 0.758187 0.352411
H25   H     H_    0.172269 0.495769 0.302181 0.190571
H26   H     H_    0.193203 0.603598 0.368607 0.145915
H27   H     H_    0.973689 0.479568 0.300303 0.247880
H28   H     H_    0.991078 0.591178 0.363200 0.237341
H29   H     H_    0.072804 0.697171 0.242831 0.262356
H30   H     H_    0.937319 0.638927 0.204551 0.282162
H31   H     H_    0.052424 0.585643 0.179661 0.264518
H32   H     H_    0.532885 0.249496 0.189227 0.173407
H33   H     H_    0.401627 0.289457 0.148119 0.143994
H34   H     H_    0.238021 0.216862 0.487797 0.175769
H35   H     H_    0.493131 0.225668 0.342649 0.232353
H36   H     H_    0.361773 0.270078 0.304580 0.212927
H37   H     H_    0.310487 0.122490 0.208638 0.268744
H38   H     H_    0.347213 0.079262 0.323236 0.272476
H39   H     H_    0.442132 0.077853 0.248900 0.267282
H40   H     H_    0.312607 0.912887 0.488834 0.175890
H41   H     H_    0.180906 0.032831 0.476944 0.166604
H42   H     H_    0.614497 0.228384 0.613255 0.195211
H43   H     H_    0.941237 0.647539 0.664263 0.197591
H44   H     H_    0.677636 0.340552 0.367721 0.172110
N1    N     N_R   0.239390 0.551900 0.544730 -0.189478
N2    N     N_R   0.759950 0.448600 0.455730 -0.127384
O1    O     O_R   0.374950 0.371210 0.521360 -0.562581
O2    O     O_2   0.779685 0.743813 0.415548 -0.606734
O3    O     O_R   0.899612 0.810465 0.528312 -0.815823
O4    O     O_2   0.808038 0.171882 0.690218 -0.637365
O5    O     O_R   0.871101 0.146004 0.566383 -0.822396
O6    O     O_2   0.390466 0.639960 0.722825 -0.670134
O7    O     O_R   0.373753 0.769100 0.613944 -0.797645
O8    O     O_2   0.373429 0.313996 0.842660 -0.638462
O9    O     O_R   0.412575 0.313713 0.705903 -0.807579
O10   O     O_2   0.110226 0.656548 0.780024 -0.685089
O11   O     O_R   0.189066 0.794990 0.704748 -0.764286
O12   O     O_R   0.542050 0.338030 0.492790 -0.639174
O13   O     O_3   0.148173 0.455760 0.427635 -0.659794
O14   O     O_3   0.514925 0.389242 0.229276 -0.664844
O15   O     O_R   0.368720 0.526070 0.390200 -0.628766
O16   O     O_R   0.535820 0.492890 0.361630 -0.551030
O17   O     O_R   0.457950 0.661970 0.507210 -0.607054
O18   O     O_R   0.625050 0.628790 0.478640 -0.603099
O19   O     O_R   0.464180 0.507110 0.638370 -0.570327
O20   O     O_R   0.631280 0.473930 0.609800 -0.656128
O21   O     O_3   0.858631 0.484923 0.924469 -0.667800
Zn1   Zn    Zn3+2 0.388420 0.522150 0.519080 0.989920
Zn2   Zn    Zn3+2 0.611580 0.477850 0.480920 0.966754

loop_
_geom_bond_atom_site_label_1
_geom_bond_atom_site_label_2
_ccdc_geom_bond_type
C48   O2    D    
C27   C29   A    
O12   Zn2   S    
C59   H37   S    
C31   N2    A    
C49   O5    S    
C19   C20   A    
C58   H36   S    
C47   H17   S    
C55   H31   S    
C26   H44   S    
C46   H14   S    
C53   C54   S    
C12   C23   A    
C26   C27   A    
C29   C30   A    
C60   H1    S    
C27   H3    S    
C9    C16   S    
C37   N1    A    
C12   C43   A    
C3    C7    A    
C30   C31   A    
C33   C35   A    
C36   H4    S    
C9    C22   A    
C28   C40   S    
C42   H8    S    
C4    O16   A    
C50   O7    S    
C41   C42   A    
C38   N1    A    
N2    Zn2   S    
C55   H29   S    
C1    O1    A    
C57   O14   S    
C46   C47   S    
O17   Zn1   S    
H19   O3    S    
C45   C56   A    
H22   O9    S    
C8    C22   A    
C7    C40   A    
H24   O11   S    
C16   O17   A    
C61   C62   A    
C28   O19   A    
C5    O21   S    
C29   H2    S    
C13   C14   A    
C59   H38   S    
C14   C17   A    
C15   C20   A    
C58   H35   S    
C47   H18   S    
N1    Zn1   S    
C44   C46   S    
C39   C42   A    
C23   C60   A    
C21   H23   S    
C38   C50   S    
C59   H39   S    
H21   O7    S    
C54   H27   S    
C26   N2    A    
C18   C19   A    
C39   C43   A    
C10   C24   A    
C44   O21   S    
C3    C45   A    
C34   C61   A    
C8    C18   A    
C56   C60   A    
C4    O15   A    
C50   O6    D    
C1    O12   A    
C44   H13   S    
C55   H30   S    
C35   H43   S    
C25   C38   A    
C19   C49   S    
C4    C39   S    
C10   H34   S    
C56   H9    S    
C8    H12   S    
C17   C18   A    
C53   H25   S    
C34   C45   A    
C32   C37   A    
C43   O14   S    
C49   O4    D    
C37   O13   S    
C61   H10   S    
C6    H5    S    
C22   C48   S    
C57   H32   S    
O15   Zn1   S    
C6    C40   A    
C2    C5    A    
C12   C34   A    
O20   Zn2   S    
C41   H7    S    
C54   C55   S    
C15   C24   A    
C14   C15   A    
H20   O5    S    
C46   H15   S    
C54   H28   S    
C20   H42   S    
C51   O8    D    
C23   C41   A    
C62   H6    S    
C32   C33   A    
C2    C3    A    
C58   C59   S    
C25   C52   S    
C7    C51   S    
C53   O13   S    
C30   C32   A    
C11   C13   A    
C9    C21   A    
C57   C58   S    
C5    C6    A    
O18   Zn2   S    
C51   O9    S    
C53   H26   S    
C44   H11   S    
C17   C21   A    
O19   Zn1   S    
C10   C11   A    
C52   O11   S    
C28   O20   A    
C48   O3    S    
O16   Zn2   S    
C1    C24   S    
C57   H33   S    
O1    Zn1   S    
C31   C36   A    
C11   H41   S    
C35   C36   A    
C47   H16   S    
C13   H40   S    
C16   O18   A    
C2    C62   A    
C25   C33   A    
C52   O10   D    
