data_mof_unit_39568.cif
_audit_creation_date              2013-03-05T16:30:42-0500
_audit_creation_method            fapswitch 2.2
_symmetry_space_group_name_H-M    P1
_symmetry_Int_Tables_number       1
_space_group_crystal_system       triclinic
_cell_length_a                    11.019223
_cell_length_b                    10.890004
_cell_length_c                    9.544688
_cell_angle_alpha                 90.869105
_cell_angle_beta                  90.271215
_cell_angle_gamma                 90.663421
_cell_volume                      1145.13432725

loop_
_atom_site_label
_atom_site_type_symbol
_atom_site_description
_atom_site_fract_x
_atom_site_fract_y
_atom_site_fract_z
_atom_type_partial_charge
O1    O     O_R   0.500000 0.319640 0.618810 -0.547655
O2    O     O_R   0.500010 0.319680 0.381230 -0.546974
C1    C     C_R   0.497120 0.262326 0.498413 0.844883
O3    O     O_R   0.321940 0.499980 0.618760 -0.575048
O4    O     O_R   0.321950 0.500020 0.381180 -0.569311
C2    C     C_R   0.265999 0.496168 0.499472 0.874111
Cu1   Cu    Cu3+1 0.499990 0.499980 0.640670 0.981510
Cu2   Cu    Cu3+1 0.500010 0.500020 0.359330 1.017605
O5    O     O_R   0.499990 0.680320 0.618770 -0.604106
O6    O     O_R   0.500000 0.680360 0.381190 -0.559900
O7    O     O_R   0.678050 0.499980 0.618820 -0.564717
O8    O     O_R   0.678060 0.500020 0.381240 -0.553588
C3    C     C_R   0.491509 0.737319 0.500463 0.843421
C4    C     C_R   0.734744 0.502444 0.500334 0.773775
C5    C     C_2   0.935196 0.500884 0.386789 0.346716
C6    C     C_2   0.867108 0.513539 0.504496 0.195400
C7    C     C_2   0.068454 0.517428 0.391513 -0.244424
C8    C     C_2   0.136056 0.479346 0.498516 -0.338648
H1    H     H_    0.111496 0.559233 0.301459 0.192749
H2    H     H_    0.097335 0.430580 0.585450 0.204617
C9    C     C_R   0.512152 0.065976 0.618093 -0.039612
C10   C     C_R   0.493340 0.128606 0.493945 -0.241990
C11   C     C_R   0.460542 0.061688 0.370865 0.261170
C12   C     C_R   0.448155 0.933096 0.375149 0.251493
C13   C     C_R   0.479130 0.870776 0.499579 -0.191907
C14   C     C_R   0.505142 0.938675 0.621754 -0.046186
C15   C     C_3   0.427086 0.945215 0.750528 0.320326
C16   C     C_3   0.439514 0.082719 0.747897 -0.324674
H3    H     H_    0.470380 0.908838 0.846022 0.108224
H4    H     H_    0.352420 0.130413 0.729309 0.238516
H5    H     H_    0.495114 0.121544 0.835804 0.204167
C17   C     C_R   0.595123 0.550210 0.074868 0.280587
N1    N     N_R   0.500780 0.500930 0.147930 -0.213073
C18   C     C_R   0.417110 0.433193 0.074025 -0.112975
H6    H     H_    0.353511 0.377491 0.131612 0.190749
C19   C     C_R   0.415083 0.433634 0.923993 0.504834
N2    N     N_R   0.500780 0.500890 0.852020 -0.235093
C20   C     C_R   0.593848 0.552137 0.927845 0.176600
C21   C     C_3   0.634039 0.682848 0.927314 -0.501540
C22   C     C_3   0.642573 0.678280 0.085810 -0.443426
H7    H     H_    0.722051 0.697427 0.875565 0.205767
H8    H     H_    0.561075 0.742303 0.889808 0.208281
H9    H     H_    0.737589 0.681751 0.125471 0.214168
H10   H     H_    0.580253 0.741285 0.140168 0.258468
O9    O     O_3   0.878628 0.486817 0.256861 -0.592622
C23   C     C_3   0.926352 0.384192 0.184224 0.068647
H11   H     H_    0.940904 0.304777 0.254814 0.153027
H12   H     H_    0.013634 0.409734 0.133913 0.145826
C24   C     C_3   0.837273 0.342620 0.070365 -0.741245
H13   H     H_    0.824799 0.416696 0.993262 0.239253
H14   H     H_    0.872581 0.260114 0.015050 0.201923
H15   H     H_    0.748133 0.319123 0.117544 0.268853
O10   O     O_3   0.338405 0.354177 0.850148 -0.555686
C25   C     C_3   0.215310 0.378038 0.880656 0.062283
H16   H     H_    0.187778 0.464877 0.831000 0.158766
H17   H     H_    0.195925 0.385314 0.994420 0.112366
C26   C     C_3   0.136918 0.273180 0.821998 -0.767443
H18   H     H_    0.154276 0.188185 0.881416 0.253005
H19   H     H_    0.039513 0.296742 0.831532 0.217344
H20   H     H_    0.158208 0.255760 0.709907 0.241842
O11   O     O_3   0.920052 0.526973 0.635888 -0.606485
C27   C     C_3   0.923571 0.652163 0.675300 0.071848
H21   H     H_    0.833079 0.695632 0.664156 0.130383
H22   H     H_    0.990563 0.702863 0.610379 0.162683
C28   C     C_3   0.962735 0.662192 0.828253 -0.806574
H23   H     H_    0.903262 0.604588 0.894409 0.257931
H24   H     H_    0.056394 0.628634 0.840963 0.223043
H25   H     H_    0.958059 0.759131 0.865086 0.206953
N3    N     N_R   0.426097 0.123991 0.245969 0.161956
O12   O     O_R   0.507363 0.149371 0.151961 -0.370984
O13   O     O_R   0.311960 0.142411 0.219096 -0.381015
N4    N     N_R   0.392139 0.868413 0.258669 0.139291
O14   O     O_R   0.300215 0.795004 0.279908 -0.372084
O15   O     O_R   0.421605 0.894483 0.130663 -0.395405
O16   O     O_3   0.306735 0.906866 0.718375 -0.567819
C29   C     C_3   0.260487 0.826095 0.819628 0.088914
H26   H     H_    0.330532 0.769211 0.871595 0.145223
H27   H     H_    0.199407 0.760174 0.764100 0.161352
C30   C     C_3   0.186931 0.897427 0.927644 -0.710751
H28   H     H_    0.108063 0.940697 0.875952 0.217769
H29   H     H_    0.153545 0.834317 0.009601 0.232574
H30   H     H_    0.243697 0.970808 0.977526 0.301773

loop_
_geom_bond_atom_site_label_1
_geom_bond_atom_site_label_2
_geom_bond_distance
_ccdc_geom_bond_type
C9    C14   1.388549 A    
C15   H3    1.107478 S    
C11   N3    1.432380 S    
C29   C30   1.523650 S    
Cu1   Cu2   2.685310 S    
C21   H7    1.101407 S    
O10   C25   1.414834 S    
Cu1   O7    1.974116 S    
C23   C24   1.521234 S    
C14   C15   1.504764 S    
N2    C20   1.361772 A    
C19   N2    1.380388 A    
C29   H27   1.105958 S    
O4    C2    1.289996 A    
O7    C4    1.295065 A    
C26   H19   1.110295 S    
C5    C6    1.360066 D    
C5    C7    1.477729 S    
C18   H6    1.079406 S    
N3    O13   1.300846 A    
O5    C3    1.300277 A    
C27   H22   1.113119 S    
C19   O10   1.385038 S    
C25   H16   1.108990 S    
C22   H9    1.111688 S    
C28   H24   1.105580 S    
C11   C12   1.406663 A    
C17   C20   1.403775 A    
C8    H2    1.078916 S    
C24   H15   1.111271 S    
C9    C10   1.392026 A    
C3    C13   1.461460 S    
N3    O12   1.301076 A    
O3    Cu1   1.972102 S    
C15   O16   1.416611 S    
C7    C8    1.335205 D    
C21   H8    1.100071 S    
C23   H12   1.111402 S    
C2    C8    1.441398 S    
C25   H17   1.109476 S    
C12   C13   1.418995 A    
N4    O15   1.300350 A    
C21   C22   1.516872 S    
C30   H29   1.110311 S    
C26   H20   1.110364 S    
C24   H14   1.110432 S    
C13   C14   1.398042 A    
O9    C23   1.414138 S    
O1    C1    1.299443 A    
O16   C29   1.409767 S    
C27   H21   1.114067 S    
C30   H30   1.109327 S    
Cu2   O8    1.972102 S    
C28   H25   1.109441 S    
N1    C18   1.361648 A    
Cu1   N2    2.017121 S    
C29   H26   1.114570 S    
O3    C2    1.292040 A    
C9    C16   1.488217 S    
O8    C4    1.294194 A    
C28   H23   1.108211 S    
C4    C6    1.462454 S    
C6    O11   1.385657 S    
C5    O9    1.390916 S    
C12   N4    1.439755 S    
Cu1   O5    1.978145 S    
C23   H11   1.116903 S    
C27   C28   1.522343 S    
O1    Cu1   1.971808 S    
C16   H5    1.111981 S    
O2    Cu2   1.978145 S    
N4    O14   1.301654 A    
O6    C3    1.292460 A    
O4    Cu2   1.974117 S    
C17   N1    1.363942 A    
C16   H4    1.111304 S    
O2    C1    1.289642 A    
C26   H18   1.110830 S    
C20   C21   1.485932 S    
C7    H1    1.087079 S    
C18   C19   1.432165 A    
Cu2   N1    2.017980 S    
C17   C22   1.485803 S    
O11   C27   1.408812 S    
C30   H28   1.110502 S    
C22   H10   1.102276 S    
Cu2   O6    1.971807 S    
C24   H13   1.109432 S    
C15   C16   1.502685 S    
C10   C11   1.416199 A    
C1    C10   1.456302 S    
C25   C26   1.522092 S    
