data_mof_unit_12215.cif
_audit_creation_date              2012-12-11T14:33:03-0500
_audit_creation_method            fapswitch 2.2
_symmetry_space_group_name_H-M    P1
_symmetry_Int_Tables_number       1
_space_group_crystal_system       triclinic
_cell_length_a                    6.943223
_cell_length_b                    14.072947
_cell_length_c                    18.051005
_cell_angle_alpha                 113.594717
_cell_angle_beta                  95.539801
_cell_angle_gamma                 90.823016
_cell_volume                      1606.07107369

loop_
_atom_site_label
_atom_site_type_symbol
_atom_type_description
_atom_site_fract_x
_atom_site_fract_y
_atom_site_fract_z
_atom_type_partial_charge
O1    O     O_R   0.484560 0.544530 0.414330 -0.512154
O2    O     O_R   0.197040 0.638810 0.585080 -0.530232
O3    O     O_R   0.026800 0.455470 0.585670 -0.507991
C1    C     C_R   0.377017 0.677504 0.613227 0.703646
O4    O     O_R   0.155000 0.556150 0.414940 -0.556707
O5    O     O_R   0.984450 0.372220 0.414320 -0.543631
C2    C     C_R   0.318817 0.562753 0.385674 0.744120
O6    O     O_R   0.526900 0.627780 0.585680 -0.538224
O7    O     O_3   0.339170 0.439750 0.499990 -0.340086
V1    V     V_3+5 0.064350 0.511180 0.500000 1.469982
O8    O     O_R   0.654880 0.361190 0.414920 -0.519830
C3    C     C_R   0.816792 0.323451 0.387506 0.723701
O9    O     O_R   0.696930 0.443850 0.585060 -0.531706
C4    C     C_R   0.871254 0.423521 0.606664 0.764627
V2    V     V_3+5 0.564340 0.488820 0.500000 1.517995
O10   O     O_3   0.839390 0.560250 0.500010 -0.371830
C5    C     C_R   0.047437 0.881409 0.837022 -0.068996
C6    C     C_R   0.899086 0.383751 0.673028 -0.044157
C7    C     C_R   0.964632 0.832536 0.692436 -0.173228
C8    C     C_R   0.009060 0.806669 0.758293 0.126606
C9    C     C_R   0.050550 0.986914 0.849329 -0.256931
C10   C     C_R   0.019637 0.016254 0.781599 0.109311
C11   C     C_R   0.974784 0.936064 0.702873 0.097113
C12   C     C_R   0.030225 0.121332 0.788573 0.066088
C13   C     C_R   0.994185 0.143625 0.717213 0.064914
C14   C     C_R   0.960826 0.059895 0.640777 -0.167566
C15   C     C_R   0.948962 0.958433 0.634076 -0.213219
C16   C     C_R   0.074722 0.204859 0.864552 -0.179943
C17   C     C_R   0.068514 0.306358 0.872096 -0.205894
C18   C     C_R   0.015682 0.328666 0.804603 0.117772
C19   C     C_R   0.983815 0.248991 0.725257 0.092830
C20   C     C_R   0.978962 0.430349 0.817497 -0.125897
C21   C     C_R   0.901051 0.453652 0.753606 -0.130531
C22   C     C_R   0.934608 0.279288 0.658744 -0.197036
H1    H     H_    0.919073 0.896395 0.573960 0.121923
H2    H     H_    0.920332 0.224242 0.596199 0.125392
H3    H     H_    0.834322 0.526181 0.768041 0.143241
H4    H     H_    0.096792 0.368287 0.932327 0.151491
H5    H     H_    0.933446 0.771192 0.632189 0.148874
H6    H     H_    0.078896 0.042972 0.911318 0.099918
H7    H     H_    0.937942 0.070433 0.584754 0.137539
H8    H     H_    0.112107 0.194504 0.920009 0.131890
H9    H     H_    0.994734 0.490224 0.878601 0.155732
H10   H     H_    0.083819 0.237142 0.287677 0.140698
H11   H     H_    0.850269 0.020420 0.206641 0.180417
C23   C     C_2   0.132292 0.040952 0.179943 -0.321113
C24   C     C_2   0.974965 0.074165 0.219969 -0.082842
C25   C     C_2   0.814036 0.215263 0.325767 -0.021652
C26   C     C_2   0.964408 0.182251 0.280546 -0.140778
H12   H     H_    0.258971 0.093314 0.192728 0.159555
C27   C     C_R   0.423018 0.780276 0.685445 -0.060097
C28   C     C_R   0.535202 0.460552 0.839880 -0.098480
C29   C     C_R   0.544025 0.876316 0.829037 -0.129295
C30   C     C_R   0.496393 0.781962 0.761343 -0.100904
C31   C     C_R   0.421888 0.875943 0.677519 -0.220543
C32   C     C_R   0.484727 0.972529 0.745050 0.103319
C33   C     C_R   0.533417 0.971991 0.822144 0.104458
C34   C     C_R   0.502258 0.069354 0.737796 0.066447
C35   C     C_R   0.535091 0.167791 0.807931 0.071026
C36   C     C_R   0.569379 0.163055 0.884351 -0.180319
C37   C     C_R   0.574562 0.066653 0.890890 -0.212934
C38   C     C_R   0.505790 0.068485 0.661002 -0.181760
C39   C     C_R   0.513077 0.158934 0.650909 -0.179010
C40   C     C_R   0.499174 0.255179 0.715704 0.088763
C41   C     C_R   0.531490 0.265106 0.796850 0.069720
C42   C     C_R   0.450178 0.340019 0.698295 0.135365
C43   C     C_R   0.463812 0.441160 0.759203 -0.158368
C44   C     C_R   0.558282 0.370594 0.859527 -0.208554
H13   H     H_    0.609129 0.066105 0.950536 0.117518
H14   H     H_    0.597634 0.383612 0.922358 0.113923
H15   H     H_    0.428189 0.505194 0.742564 0.140515
H16   H     H_    0.529352 0.150835 0.589868 0.165660
H17   H     H_    0.591221 0.874690 0.887147 0.152968
H18   H     H_    0.511820 0.709806 0.768948 0.122441
H19   H     H_    0.368022 0.873237 0.618539 0.101422
H20   H     H_    0.597467 0.233069 0.939296 0.128787
H21   H     H_    0.513785 0.998168 0.607331 0.131903
C45   C     C_2   0.320517 0.593026 0.315115 -0.343376
C46   C     C_2   0.482081 0.593442 0.276809 0.282459
H22   H     H_    0.766610 0.670760 0.220411 0.129886
C47   C     C_2   0.629706 0.656804 0.182372 -0.334089
C48   C     C_2   0.470860 0.617045 0.202250 0.118412
H23   H     H_    0.183349 0.613831 0.293214 0.129548
O11   O     O_R   0.421600 0.630430 0.917010 -0.520034
O12   O     O_R   0.793840 0.702190 0.087630 -0.532889
O13   O     O_R   0.964010 0.886170 0.088190 -0.545214
C49   C     C_R   0.629086 0.690331 0.113911 0.792769
O14   O     O_R   0.751460 0.619510 0.917500 -0.542221
O15   O     O_R   0.921330 0.802900 0.916840 -0.537948
C50   C     C_R   0.573627 0.574599 0.900906 0.684644
O16   O     O_R   0.464290 0.713700 0.088350 -0.517489
O17   O     O_3   0.609200 0.818520 0.002630 -0.391514
V3    V     V_3+5 0.884140 0.747190 0.002530 1.448908
O18   O     O_R   0.251150 0.814630 0.917340 -0.534287
C51   C     C_R   0.077393 0.844621 0.903996 0.698359
O19   O     O_R   0.293530 0.897310 0.087470 -0.538953
C52   C     C_R   0.131582 0.934531 0.115570 0.747193
V4    V     V_3+5 0.384070 0.769710 0.002370 1.462680
O20   O     O_3   0.109180 0.698190 0.002460 -0.348059
I1    I     I_    0.582034 0.112767 0.322756 -0.454826
I2    I     I_    0.329992 0.304531 0.578253 -0.370025
I3    I     I_    0.207587 0.564239 0.121387 -0.482147
N1    N     N_2   0.664028 0.567851 0.305990 -0.485280
H24   H     H_    0.770633 0.627024 0.326177 0.242521
C53   C     C_3   0.729375 0.468182 0.254567 -0.491214
H25   H     H_    0.863631 0.451968 0.285066 0.183561
H26   H     H_    0.761418 0.468106 0.195428 0.194941
H27   H     H_    0.617171 0.405568 0.243810 0.190457
I4    I     I_    0.057855 0.655444 0.738296 -0.433942

loop_
_geom_bond_atom_site_label_1
_geom_bond_atom_site_label_2
_ccdc_geom_bond_type
H10   C26   S    
C34   C38   A    
C31   C32   A    
C13   C19   A    
C49   O16   A    
C4    C6    S    
C38   H21   S    
C28   C50   S    
C7    C8    A    
C3    C25   S    
C47   C48   D    
O17   V4    S    
C24   C26   S    
C29   C30   A    
C53   H26   S    
C14   C15   A    
C17   C18   A    
C16   C17   A    
O5    C3    A    
C18   C19   A    
O18   V4    S    
V2    O10   S    
C5    C8    A    
C32   C33   A    
C23   C24   D    
O13   C52   A    
C30   H18   S    
O12   V3    S    
C45   H23   S    
O19   V4    S    
C17   H4    S    
O1    V2    S    
C11   C15   A    
O7    V1    S    
V3    O20   S    
C27   C31   A    
C28   C44   A    
C1    O6    A    
C31   H19   S    
H11   C24   S    
C42   C43   A    
C35   C36   A    
O9    C4    A    
O15   V3    S    
C42   I2    S    
C46   N1    S    
O11   C50   A    
O12   C49   A    
C25   I1    S    
C53   H27   S    
C1    C27   S    
C12   C13   A    
O4    C2    A    
C29   C33   A    
C45   C46   D    
C15   H1    S    
C34   C35   A    
C36   H20   S    
C21   H3    S    
C8    I4    S    
C36   C37   A    
C40   C42   A    
O15   C51   A    
O2    C1    A    
C38   C39   A    
O13   V3    S    
C41   C44   A    
O19   C52   A    
C48   I3    S    
C19   C22   A    
N1    C53   S    
C6    C22   A    
C47   C49   S    
O3    C4    A    
C7    H5    S    
C2    C45   S    
C5    C51   S    
C25   C26   D    
C23   C52   S    
O14   C50   A    
O6    V2    S    
O8    V2    S    
O9    V2    S    
C10   C12   A    
O2    V1    S    
C7    C11   A    
C37   H13   S    
O14   V3    S    
O1    C2    A    
C29   H17   S    
C12   C16   A    
C28   C43   A    
H22   C47   S    
O5    V1    S    
C46   C48   S    
O8    C3    A    
C33   C37   A    
C53   H25   S    
C23   H12   S    
C27   C30   A    
O11   V4    S    
C20   C21   A    
C13   C14   A    
O4    V1    S    
O3    V1    S    
V1    O10   S    
C35   C41   A    
C18   C20   A    
C9    H6    S    
C40   C41   A    
C16   H8    S    
O17   V3    S    
C20   H9    S    
C32   C34   A    
C43   H15   S    
O16   V4    S    
O7    V2    S    
O18   C51   A    
C6    C21   A    
C5    C9    A    
C39   C40   A    
C39   H16   S    
C22   H2    S    
C44   H14   S    
V4    O20   S    
N1    H24   S    
C10   C11   A    
C9    C10   A    
C14   H7    S    
