data_mof_unit_21574.cif
_audit_creation_date              2012-12-11T17:02:18-0500
_audit_creation_method            fapswitch 2.2
_symmetry_space_group_name_H-M    P1
_symmetry_Int_Tables_number       1
_space_group_crystal_system       triclinic
_cell_length_a                    21.662731
_cell_length_b                    7.076192
_cell_length_c                    14.840623
_cell_angle_alpha                 90.372369
_cell_angle_beta                  106.015251
_cell_angle_gamma                 90.132629
_cell_volume                      2186.55437601

loop_
_atom_site_label
_atom_site_type_symbol
_atom_type_description
_atom_site_fract_x
_atom_site_fract_y
_atom_site_fract_z
_atom_type_partial_charge
O1    O     O_R   0.585850 0.505770 0.002130 -0.535424
O2    O     O_R   0.414150 0.005770 0.997870 -0.535075
O3    O     O_R   0.467530 0.173560 0.861970 -0.538632
O4    O     O_R   0.532470 0.673560 0.138030 -0.538233
C1    C     C_R   0.455534 0.343570 0.825286 0.686123
C2    C     C_R   0.544383 0.845231 0.174604 0.686429
O5    O     O_R   0.588690 0.175900 0.993250 -0.547342
O6    O     O_R   0.411310 0.675900 0.006750 -0.547682
O7    O     O_R   0.536170 0.007950 0.130090 -0.536792
O8    O     O_R   0.463830 0.507950 0.869910 -0.537072
C3    C     C_R   0.615088 0.344824 0.997914 0.689579
C4    C     C_R   0.384903 0.844545 0.002038 0.689182
O9    O     O_3   0.482630 0.339970 0.044740 -0.373260
O10   O     O_3   0.517370 0.839970 0.955260 -0.373387
V1    V     V_3+5 0.503220 0.064200 0.991700 1.417169
V2    V     V_3+5 0.496780 0.564200 0.008300 1.416556
C5    C     C_R   0.278004 0.010221 0.961290 0.011512
C6    C     C_R   0.722295 0.511369 0.038949 0.007463
C7    C     C_R   0.315631 0.852808 0.997841 -0.074756
C8    C     C_R   0.684340 0.353324 0.002029 -0.070460
C9    C     C_R   0.284493 0.700449 0.027787 -0.176495
C10   C     C_R   0.715165 0.199981 0.971924 -0.175072
H1    H     H_    0.311366 0.576171 0.056740 0.149395
H2    H     H_    0.688035 0.075038 0.942788 0.146971
C11   C     C_R   0.219360 0.712260 0.026840 -0.165876
C12   C     C_R   0.780337 0.211400 0.973004 -0.168374
H3    H     H_    0.198043 0.596377 0.054726 0.193694
H4    H     H_    0.801412 0.094856 0.944900 0.191780
C13   C     C_R   0.183259 0.876794 0.996257 -0.062445
C14   C     C_R   0.816784 0.376429 0.003931 -0.059109
C15   C     C_R   0.213647 0.022341 0.961142 -0.003483
C16   C     C_R   0.786693 0.523071 0.039206 -0.005713
C17   C     C_3   0.220495 0.225786 0.988569 0.487376
C18   C     C_3   0.780341 0.725892 0.012066 0.490500
C19   C     C_3   0.290139 0.213488 0.986998 -0.426655
C20   C     C_3   0.710653 0.714054 0.013539 -0.428352
H5    H     H_    0.190363 0.320505 0.934726 0.028952
H6    H     H_    0.810677 0.821844 0.066047 0.027850
H7    H     H_    0.325172 0.233670 0.056970 0.196538
H8    H     H_    0.675690 0.732640 0.943577 0.197756
H9    H     H_    0.300512 0.296258 0.929391 0.115329
H10   H     H_    0.700450 0.798303 0.071252 0.114888
C21   C     C_R   0.927166 0.879767 0.723762 -0.035330
C22   C     C_R   0.072723 0.389759 0.276614 -0.037854
C23   C     C_R   0.572528 0.856980 0.275876 -0.028202
C24   C     C_R   0.427562 0.347012 0.723740 -0.030602
C25   C     C_R   0.938442 0.825516 0.568555 -0.159302
C26   C     C_R   0.063121 0.449630 0.432361 -0.160083
C27   C     C_R   0.966031 0.845797 0.664587 -0.183021
C28   C     C_R   0.035128 0.435733 0.336193 -0.178305
C29   C     C_R   0.860567 0.893139 0.687156 -0.195897
C30   C     C_R   0.138629 0.358634 0.313154 -0.208996
C31   C     C_R   0.831020 0.871220 0.589827 0.077476
C32   C     C_R   0.168831 0.377061 0.410556 0.077631
C33   C     C_R   0.871558 0.837099 0.530854 0.144220
C34   C     C_R   0.129434 0.422542 0.469831 0.145843
C35   C     C_R   0.762943 0.880333 0.549381 0.052718
C36   C     C_R   0.236600 0.355606 0.450703 0.052038
C37   C     C_R   0.736716 0.855107 0.450326 0.061566
C38   C     C_R   0.263623 0.379880 0.549709 0.062981
C39   C     C_R   0.779413 0.821670 0.395096 -0.187663
C40   C     C_R   0.221944 0.423487 0.605270 -0.189204
C41   C     C_R   0.845268 0.813230 0.434737 -0.204266
C42   C     C_R   0.156397 0.443847 0.565958 -0.205059
C43   C     C_R   0.720238 0.913462 0.604628 -0.172386
C44   C     C_R   0.278268 0.311752 0.395159 -0.180756
C45   C     C_R   0.654387 0.922050 0.564980 -0.196928
C46   C     C_R   0.343825 0.291571 0.434463 -0.196865
C47   C     C_R   0.628108 0.898640 0.468836 0.136235
C48   C     C_R   0.370807 0.313298 0.530567 0.136414
C49   C     C_R   0.668647 0.864544 0.409861 0.083396
C50   C     C_R   0.331405 0.358731 0.589840 0.083325
C51   C     C_R   0.561236 0.910663 0.431110 -0.159646
C52   C     C_R   0.437147 0.286701 0.568019 -0.160806
C53   C     C_R   0.533662 0.890899 0.335050 -0.173304
C54   C     C_R   0.465166 0.301095 0.664167 -0.170041
C55   C     C_R   0.639113 0.843120 0.312504 -0.209989
C56   C     C_R   0.361623 0.377569 0.687218 -0.211689
H11   H     H_    0.876014 0.786887 0.389438 0.118108
H12   H     H_    0.126480 0.478417 0.611475 0.119362
H13   H     H_    0.666100 0.818454 0.262560 0.091167
H14   H     H_    0.335402 0.409442 0.737379 0.092942
H15   H     H_    0.482089 0.903133 0.306753 0.107527
H16   H     H_    0.516089 0.274615 0.692298 0.107770
H17   H     H_    0.623637 0.948224 0.610290 0.126739
H18   H     H_    0.373738 0.256895 0.388956 0.129255
H19   H     H_    0.969421 0.798973 0.523662 0.112626
H20   H     H_    0.033053 0.485427 0.477452 0.112363
H21   H     H_    0.017614 0.833871 0.692866 0.099812
H22   H     H_    0.984229 0.462577 0.308053 0.099916
H23   H     H_    0.833583 0.917893 0.737095 0.129409
H24   H     H_    0.164849 0.326719 0.262996 0.141394
H25   H     H_    0.763734 0.800716 0.320368 0.118144
H26   H     H_    0.238244 0.443869 0.679999 0.118783
H27   H     H_    0.735906 0.934002 0.679383 0.148210
H28   H     H_    0.261950 0.291024 0.320451 0.158412
H29   H     H_    0.530257 0.937167 0.476007 0.114163
H30   H     H_    0.467221 0.250933 0.522933 0.114095
O11   O     O_R   0.036080 0.231270 0.130120 -0.534146
O12   O     O_R   0.963920 0.731270 0.869880 -0.531990
O13   O     O_R   0.911300 0.558970 0.006750 -0.522166
O14   O     O_R   0.088700 0.058970 0.993250 -0.522924
C57   C     C_R   0.884781 0.389806 0.001500 0.700750
C58   C     C_R   0.115232 0.890104 0.998566 0.699532
O15   O     O_R   0.032450 0.561140 0.138040 -0.544547
O16   O     O_R   0.967550 0.061140 0.861960 -0.545597
O17   O     O_R   0.085870 0.728910 0.002130 -0.549013
O18   O     O_R   0.914130 0.228910 0.997870 -0.549241
C59   C     C_R   0.044763 0.393398 0.175069 0.703617
C60   C     C_R   0.955328 0.891704 0.825032 0.704437
O19   O     O_3   0.017320 0.394650 0.955270 -0.376191
O20   O     O_3   0.982680 0.894650 0.044730 -0.376255
V3    V     V_3+5 0.996780 0.670490 0.008300 1.471010
V4    V     V_3+5 0.003220 0.170490 0.991700 1.467378
F1    F     F_    0.214666 0.253817 0.078358 -0.701620
F2    F     F_    0.786283 0.751565 0.922338 -0.696236

loop_
_geom_bond_atom_site_label_1
_geom_bond_atom_site_label_2
_ccdc_geom_bond_type
C44   C46   A    
O12   C60   A    
C2    C23   S    
C46   H18   S    
C20   H10   S    
O1    C3    A    
O2    C4    A    
C54   H16   S    
O11   V4    S    
C24   C54   A    
C25   C27   A    
C41   H11   S    
C51   H29   S    
C36   C44   A    
C52   C54   A    
O16   V4    S    
O15   V3    S    
C7    C9    A    
C32   C36   A    
C19   H7    S    
C17   C19   S    
C39   H25   S    
C35   C37   A    
C38   C50   A    
C18   F2    S    
O11   C59   A    
O13   V3    S    
C38   C40   A    
O18   V4    S    
C39   C41   A    
O17   V3    S    
C40   C42   A    
C29   H23   S    
C28   H22   S    
C43   C45   A    
C33   C41   A    
C14   C57   S    
C48   C52   A    
C50   C56   A    
C34   C42   A    
C47   C51   A    
C57   O18   A    
C21   C60   S    
C18   C20   S    
C22   C59   S    
C22   C30   A    
O5    V1    S    
C47   C49   A    
O6    V2    S    
C42   H12   S    
C2    O7    A    
O20   V4    S    
O20   V3    S    
C30   C32   A    
C36   C38   A    
C31   C33   A    
C11   C13   A    
C32   C34   A    
C3    C8    S    
C45   H17   S    
C37   C39   A    
C15   C17   S    
C44   H28   S    
C20   H8    S    
O4    C2    A    
C9    C11   A    
C27   H21   S    
C24   C56   A    
C31   C35   A    
C21   C27   A    
C17   H5    S    
C13   C58   S    
C45   C47   A    
C16   C18   S    
O4    V2    S    
O5    C3    A    
O14   V4    S    
C56   H14   S    
C55   H13   S    
O6    C4    A    
C26   H20   S    
O19   V3    S    
O1    V2    S    
O14   C58   A    
O2    V1    S    
C46   C48   A    
C8    C10   A    
C12   C14   A    
C40   H26   S    
C5    C15   A    
C10   H2    S    
C30   H24   S    
C6    C16   A    
C51   C53   A    
C49   C55   A    
O3    V1    S    
C25   C33   A    
O16   C60   A    
C22   C28   A    
C26   C34   A    
O15   C59   A    
C52   H30   S    
C18   H6    S    
O12   V3    S    
C35   C43   A    
O3    C1    A    
C48   C50   A    
C11   H3    S    
C1    C24   S    
C12   H4    S    
C23   C53   A    
C9    H1    S    
O7    V1    S    
C1    O8    A    
C13   C15   A    
O8    V2    S    
C14   C16   A    
C53   H15   S    
C17   F1    S    
C21   C29   A    
C4    C7    S    
C26   C28   A    
C5    C7    A    
O19   V4    S    
C6    C8    A    
C19   H9    S    
C43   H27   S    
O13   C57   A    
C10   C12   A    
O9    V2    S    
O10   V1    S    
C23   C55   A    
C5    C19   S    
C29   C31   A    
C6    C20   S    
C58   O17   A    
C37   C49   A    
C25   H19   S    
