data_mof_unit_46632.cif
_audit_creation_date              2012-12-11T16:54:55-0500
_audit_creation_method            fapswitch 2.2
_symmetry_space_group_name_H-M    P1
_symmetry_Int_Tables_number       1
_space_group_crystal_system       triclinic
_cell_length_a                    27.555748
_cell_length_b                    7.175591
_cell_length_c                    24.89103
_cell_angle_alpha                 89.957213
_cell_angle_beta                  95.179973
_cell_angle_gamma                 90.063685
_cell_volume                      4901.568841

loop_
_atom_site_label
_atom_site_type_symbol
_atom_type_description
_atom_site_fract_x
_atom_site_fract_y
_atom_site_fract_z
_atom_type_partial_charge
O1    O     O_R   0.297580 0.601040 0.203260 -0.539473
O2    O     O_R   0.702420 0.398960 0.796740 -0.544630
O3    O     O_R   0.202420 0.101040 0.296740 -0.536994
O4    O     O_R   0.797580 0.898960 0.703260 -0.544079
O5    O     O_R   0.198250 0.269810 0.192660 -0.510666
O6    O     O_R   0.801750 0.730190 0.807340 -0.537560
O7    O     O_R   0.301750 0.769810 0.307340 -0.510302
O8    O     O_R   0.698250 0.230190 0.692660 -0.537906
C1    C     C_R   0.180638 0.439881 0.179539 0.754197
C2    C     C_R   0.818526 0.560059 0.820786 0.852554
C3    C     C_R   0.319222 0.939685 0.320600 0.756266
C4    C     C_R   0.681284 0.060104 0.679425 0.851790
O9    O     O_R   0.296940 0.271230 0.196830 -0.549786
O10   O     O_R   0.703060 0.728770 0.803170 -0.532773
O11   O     O_R   0.203060 0.771230 0.303170 -0.547830
O12   O     O_R   0.796940 0.228770 0.696830 -0.532875
O13   O     O_R   0.301830 0.102400 0.300940 -0.516291
O14   O     O_R   0.698170 0.897600 0.699060 -0.530156
O15   O     O_R   0.198170 0.602400 0.199060 -0.517055
O16   O     O_R   0.801830 0.397600 0.800940 -0.529098
C5    C     C_R   0.312633 0.440328 0.184629 0.698470
C6    C     C_R   0.687675 0.559672 0.815783 0.708349
C7    C     C_R   0.187203 0.939798 0.314982 0.689834
C8    C     C_R   0.812331 0.059986 0.684142 0.707288
O17   O     O_3   0.251490 0.435010 0.284150 -0.373057
O18   O     O_3   0.748510 0.564990 0.715850 -0.391052
O19   O     O_3   0.248510 0.935010 0.215850 -0.376914
O20   O     O_3   0.751490 0.064990 0.784150 -0.391260
V1    V     V_3+5 0.249720 0.159590 0.243660 1.449515
V2    V     V_3+5 0.750280 0.840410 0.756340 1.396239
V3    V     V_3+5 0.250280 0.659590 0.256340 1.452244
V4    V     V_3+5 0.749720 0.340410 0.743660 1.396070
C9    C     C_R   0.860740 0.877732 0.620846 -0.236317
C10   C     C_R   0.111617 0.090203 0.342236 -0.245191
C11   C     C_R   0.637183 0.373661 0.876046 -0.233044
C12   C     C_R   0.376738 0.620832 0.140974 -0.258816
H1    H     H_    0.842859 0.751023 0.632204 0.140134
H2    H     H_    0.114404 0.189891 0.310069 0.127813
H3    H     H_    0.654482 0.246948 0.863863 0.143401
H4    H     H_    0.366763 0.742455 0.163104 0.120753
C13   C     C_R   0.894847 0.866517 0.582225 0.449456
C14   C     C_R   0.071762 0.100494 0.373841 0.435835
C15   C     C_R   0.602237 0.360021 0.913532 0.443581
C16   C     C_R   0.414793 0.634308 0.106628 0.430033
C17   C     C_R   0.920245 0.027985 0.568372 -0.021362
C18   C     C_R   0.069429 0.977023 0.418044 -0.002530
C19   C     C_R   0.577884 0.521595 0.928912 -0.022905
C20   C     C_R   0.425940 0.477802 0.075486 0.017035
C21   C     C_R   0.909778 0.198587 0.592195 -0.209226
C22   C     C_R   0.105035 0.836213 0.426001 -0.194733
C23   C     C_R   0.590735 0.694965 0.908333 -0.203877
C24   C     C_R   0.399421 0.311761 0.080245 -0.212857
H5    H     H_    0.929091 0.323431 0.582070 0.180527
H6    H     H_    0.103426 0.736200 0.458401 0.138863
H7    H     H_    0.572323 0.819905 0.919814 0.181798
H8    H     H_    0.407358 0.190012 0.056924 0.159183
C25   C     C_R   0.874652 0.209657 0.629433 -0.157162
C26   C     C_R   0.142793 0.820978 0.392153 -0.170540
C27   C     C_R   0.626549 0.708240 0.872007 -0.153975
C28   C     C_R   0.363148 0.298501 0.115871 -0.189189
H9    H     H_    0.867560 0.343795 0.647027 0.153636
H10   H     H_    0.169383 0.710738 0.399227 0.124083
H11   H     H_    0.635222 0.844274 0.856583 0.153897
H12   H     H_    0.344112 0.167403 0.118935 0.133576
C29   C     C_R   0.849555 0.049430 0.644232 -0.110890
C30   C     C_R   0.146988 0.950313 0.350646 -0.110496
C31   C     C_R   0.650176 0.547638 0.855219 -0.115437
C32   C     C_R   0.351309 0.452682 0.146674 -0.104284
C33   C     C_R   0.945989 0.038772 0.474438 -0.188021
C34   C     C_R   0.043116 0.976935 0.512511 -0.169590
C35   C     C_R   0.546334 0.587767 0.017982 -0.208535
C36   C     C_R   0.458342 0.407884 0.986064 -0.180616
H13   H     H_    0.908554 0.064372 0.459108 0.100283
H14   H     H_    0.080632 0.955832 0.528268 0.114194
H15   H     H_    0.580435 0.656312 0.030974 0.110294
H16   H     H_    0.424257 0.340398 0.972530 0.119240
C37   C     C_R   0.981608 0.021466 0.438020 -0.092752
C38   C     C_R   0.007204 0.988740 0.548849 -0.113449
C39   C     C_R   0.510294 0.572431 0.053895 -0.093443
C40   C     C_R   0.495001 0.418540 0.950675 -0.094304
H17   H     H_    0.970285 0.026495 0.395414 0.110610
H18   H     H_    0.017501 0.974256 0.591680 0.116225
H19   H     H_    0.517791 0.626698 0.094319 0.122453
H20   H     H_    0.488837 0.357239 0.910888 0.125268
C41   C     C_R   0.030834 0.992964 0.456490 0.120323
C42   C     C_R   0.958361 0.019143 0.530038 0.120197
C43   C     C_R   0.465340 0.486208 0.038025 0.114638
C44   C     C_R   0.539006 0.510421 0.966187 0.103797
C45   C     C_R   0.413296 0.813211 0.438771 0.363891
C46   C     C_R   0.599786 0.112445 0.547735 0.334672
C47   C     C_R   0.084666 0.311760 0.063426 0.366061
C48   C     C_R   0.899087 0.613475 0.953068 0.336682
C49   C     C_R   0.374393 0.798670 0.398000 0.309181
C50   C     C_R   0.639327 0.138552 0.587971 0.242230
C51   C     C_R   0.124207 0.298441 0.103371 0.313253
C52   C     C_R   0.859836 0.639657 0.912463 0.241346
C53   C     C_R   0.362390 0.949924 0.362344 -0.404297
C54   C     C_R   0.638421 0.049497 0.638486 -0.320714
C55   C     C_R   0.137010 0.450782 0.138319 -0.405810
C56   C     C_R   0.860971 0.549124 0.862206 -0.322913
C57   C     C_R   0.392128 0.112770 0.367345 0.353348
C58   C     C_R   0.596673 0.947488 0.649891 0.294667
C59   C     C_R   0.107736 0.615055 0.132926 0.350716
C60   C     C_R   0.902408 0.444203 0.851630 0.293932
C61   C     C_R   0.429698 0.129317 0.409585 0.320705
C62   C     C_R   0.554872 0.946286 0.612472 0.271041
C63   C     C_R   0.068815 0.628877 0.092050 0.324116
C64   C     C_R   0.943932 0.442540 0.889357 0.271009
C65   C     C_R   0.440628 0.979386 0.445107 -0.258569
C66   C     C_R   0.557011 0.022646 0.560751 -0.187626
C67   C     C_R   0.057213 0.477349 0.057270 -0.259157
C68   C     C_R   0.941681 0.521204 0.940710 -0.186251
C69   C     C_1   0.481224 0.994304 0.486572 0.077746
C70   C     C_1   0.515484 0.007065 0.520537 0.099425
C71   C     C_1   0.016845 0.491831 0.015556 0.072679
C72   C     C_1   0.982854 0.504879 0.981297 0.098696
O21   O     O_3   0.451748 0.300955 0.419699 -0.509904
C73   C     C_3   0.496016 0.310229 0.395280 0.156389
H21   H     H_    0.488662 0.317417 0.350786 0.108017
H22   H     H_    0.519851 0.188048 0.406105 0.107867
C74   C     C_3   0.523080 0.487797 0.414317 -0.207488
H23   H     H_    0.499411 0.610537 0.404353 0.210437
H24   H     H_    0.531629 0.482471 0.458813 0.220675
C75   C     C_3   0.570223 0.512353 0.387319 -0.893629
H25   H     H_    0.595228 0.393907 0.397318 0.256388
H26   H     H_    0.588608 0.642915 0.401870 0.226640
H27   H     H_    0.562312 0.521408 0.342836 0.226106
O22   O     O_3   0.512424 0.862615 0.625980 -0.569832
C76   C     C_3   0.485034 0.996235 0.651839 0.103593
H28   H     H_    0.473750 0.111901 0.623498 0.110353
H29   H     H_    0.506501 0.054521 0.688132 0.146344
C77   C     C_3   0.439370 0.903126 0.669945 -0.296355
H30   H     H_    0.417285 0.845036 0.634302 0.181149
H31   H     H_    0.450173 0.786666 0.697977 0.204750
C78   C     C_3   0.408338 0.041424 0.698364 -0.846719
H32   H     H_    0.429358 0.098850 0.734827 0.235475
H33   H     H_    0.375484 0.969619 0.710934 0.233152
H34   H     H_    0.396466 0.157559 0.670712 0.228461
O23   O     O_3   0.047004 0.800826 0.081658 -0.508475
C79   C     C_3   0.001576 0.808730 0.103809 0.149914
H35   H     H_    0.006719 0.802670 0.148398 0.089317
H36   H     H_    0.977044 0.692871 0.089070 0.121207
C80   C     C_3   0.976943 0.993964 0.087770 -0.199574
H37   H     H_    0.001439 0.110595 0.101727 0.210170
H38   H     H_    0.970224 0.001851 0.043103 0.219907
C81   C     C_3   0.928758 0.016888 0.112781 -0.900265
H39   H     H_    0.902519 0.907614 0.097669 0.260142
H40   H     H_    0.912903 0.155296 0.101718 0.229131
H41   H     H_    0.934616 0.007908 0.157447 0.228183
O24   O     O_3   0.986132 0.355691 0.876560 -0.569858
C82   C     C_3   0.014238 0.486241 0.850296 0.103949
H42   H     H_    0.026457 0.601184 0.878467 0.110489
H43   H     H_    0.993002 0.546055 0.814060 0.145102
C83   C     C_3   0.059096 0.388562 0.831913 -0.296123
H44   H     H_    0.080975 0.328750 0.867439 0.180895
H45   H     H_    0.047309 0.272865 0.804029 0.204411
C84   C     C_3   0.090898 0.523491 0.803145 -0.848055
H46   H     H_    0.070081 0.582502 0.766774 0.235350
H47   H     H_    0.123137 0.448398 0.790377 0.233027
H48   H     H_    0.103746 0.638759 0.830640 0.228778
O25   O     O_3   0.906740 0.693558 0.562663 -0.582211
C85   C     C_3   0.879346 0.658269 0.512788 0.066536
H49   H     H_    0.900451 0.557748 0.490215 0.157940
H50   H     H_    0.873883 0.784375 0.486934 0.103876
C86   C     C_3   0.829782 0.571957 0.521343 -0.342968
H51   H     H_    0.834586 0.454322 0.550195 0.211840
H52   H     H_    0.806555 0.678913 0.538374 0.193960
C87   C     C_3   0.803961 0.501077 0.468489 -0.831637
H53   H     H_    0.797936 0.617342 0.439164 0.227314
H54   H     H_    0.768065 0.441032 0.476134 0.235312
H55   H     H_    0.826002 0.390792 0.450990 0.229578
O26   O     O_3   0.036962 0.238776 0.363600 -0.573830
C88   C     C_3   0.011375 0.212665 0.311917 0.061543
H56   H     H_    0.971831 0.205844 0.317246 0.125494
H57   H     H_    0.020293 0.079909 0.291434 0.094515
C89   C     C_3   0.019549 0.378602 0.275052 -0.287435
H58   H     H_    0.004387 0.506774 0.292171 0.193040
H59   H     H_    0.059089 0.400793 0.272358 0.177713
C90   C     C_3   0.994949 0.345800 0.218320 -0.867421
H60   H     H_    0.011533 0.223591 0.199636 0.241032
H61   H     H_    0.999682 0.469487 0.192573 0.214308
H62   H     H_    0.955309 0.320801 0.219838 0.233624
O27   O     O_3   0.589971 0.185707 0.931952 -0.586084
C91   C     C_3   0.612864 0.155376 0.984502 0.057636
H63   H     H_    0.591154 0.048570 0.004118 0.149360
H64   H     H_    0.613325 0.281559 0.010629 0.115301
C92   C     C_3   0.664824 0.081859 0.982157 -0.339061
H65   H     H_    0.664448 0.961081 0.954335 0.207543
H66   H     H_    0.687889 0.193031 0.966676 0.196076
C93   C     C_3   0.687215 0.021419 0.037698 -0.832649
H67   H     H_    0.688690 0.140940 0.066135 0.228912
H68   H     H_    0.724876 0.970295 0.034520 0.234247
H69   H     H_    0.665436 0.906982 0.053681 0.226906
O28   O     O_3   0.438082 0.802697 0.098142 -0.578936
C94   C     C_3   0.451767 0.897311 0.147063 0.038153
H70   H     H_    0.463077 0.799454 0.180771 0.100268
H71   H     H_    0.420677 0.983125 0.158210 0.133147
C95   C     C_3   0.494941 0.025667 0.139012 -0.258384
H72   H     H_    0.528156 0.940242 0.135781 0.172977
H73   H     H_    0.487868 0.105512 0.100886 0.209600
C96   C     C_3   0.504275 0.162616 0.185686 -0.870081
H74   H     H_    0.472228 0.255026 0.188104 0.231726
H75   H     H_    0.536363 0.250628 0.179051 0.229861
H76   H     H_    0.511690 0.086257 0.224388 0.224825
O29   O     O_3   0.426124 0.656209 0.469279 -0.509200
C97   C     C_3   0.415111 0.680374 0.523205 -0.196281
H77   H     H_    0.398489 0.549711 0.536847 0.149746
H78   H     H_    0.389114 0.796027 0.529323 0.082347
H79   H     H_    0.449329 0.703340 0.549329 0.180876
O30   O     O_3   0.602303 0.178620 0.495854 -0.553945
C98   C     C_3   0.626488 0.044749 0.466556 -0.285359
H80   H     H_    0.609557 0.904153 0.468654 0.135828
H81   H     H_    0.665864 0.038712 0.480799 0.174466
H82   H     H_    0.623671 0.086298 0.423497 0.147017
O31   O     O_3   0.071617 0.154481 0.033183 -0.508973
C99   C     C_3   0.082526 0.177642 0.979175 -0.192086
H83   H     H_    0.100328 0.048699 0.966214 0.148936
H84   H     H_    0.107394 0.296638 0.972399 0.082019
H85   H     H_    0.048120 0.194790 0.952964 0.181352
O32   O     O_3   0.896446 0.681076 0.004730 -0.555878
C100  C     C_3   0.872187 0.547933 0.034338 -0.295623
H86   H     H_    0.889088 0.407306 0.032676 0.139388
H87   H     H_    0.832834 0.541368 0.020003 0.175932
H88   H     H_    0.874934 0.590796 0.077282 0.149554
O33   O     O_3   0.351422 0.627951 0.390349 -0.503987
C101  C     C_3   0.312864 0.614432 0.423934 0.191135
H89   H     H_    0.281216 0.697907 0.406599 0.081192
H90   H     H_    0.323487 0.664663 0.465667 0.079460
C102  C     C_3   0.297797 0.409881 0.427104 -0.241883
H91   H     H_    0.287860 0.355534 0.385817 0.224946
H92   H     H_    0.329094 0.327180 0.445575 0.199083
C103  C     C_3   0.254538 0.384813 0.460578 -0.905175
H93   H     H_    0.263832 0.435803 0.502370 0.234107
H94   H     H_    0.244942 0.234679 0.462212 0.235714
H95   H     H_    0.222426 0.462294 0.442031 0.233926
O34   O     O_3   0.681692 0.230317 0.576929 -0.568747
C104  C     C_3   0.671756 0.410857 0.555772 0.135808
H96   H     H_    0.634644 0.463863 0.562499 0.107561
H97   H     H_    0.675498 0.408216 0.511681 0.162747
C105  C     C_3   0.708884 0.546940 0.582650 -0.316933
H98   H     H_    0.701689 0.563227 0.625428 0.217216
H99   H     H_    0.746270 0.490837 0.581213 0.203028
C106  C     C_3   0.705147 0.737147 0.555430 -0.861702
H100  H     H_    0.714847 0.726930 0.513191 0.231286
H101  H     H_    0.730378 0.836683 0.577820 0.246986
H102  H     H_    0.667380 0.790074 0.555273 0.228895
O35   O     O_3   0.147971 0.129094 0.109965 -0.502084
C107  C     C_3   0.186609 0.122486 0.076322 0.192184
H103  H     H_    0.217149 0.212855 0.093086 0.081716
H104  H     H_    0.175086 0.169244 0.034450 0.078550
C108  C     C_3   0.204499 0.921341 0.073839 -0.243736
H105  H     H_    0.214446 0.868861 0.115324 0.228031
H106  H     H_    0.174651 0.832271 0.054899 0.196823
C109  C     C_3   0.248749 0.905697 0.041454 -0.896828
H107  H     H_    0.239409 0.953693 0.999357 0.234584
H108  H     H_    0.260703 0.758052 0.040612 0.237719
H109  H     H_    0.279333 0.990960 0.060331 0.235281
O36   O     O_3   0.817382 0.731892 0.922899 -0.568395
C110  C     C_3   0.827246 0.912083 0.944309 0.138677
H110  H     H_    0.863298 0.969046 0.934888 0.103845
H111  H     H_    0.826058 0.906910 0.988804 0.166961
C111  C     C_3   0.787816 0.045377 0.920758 -0.322847
H112  H     H_    0.791778 0.063450 0.877217 0.220050
H113  H     H_    0.751232 0.985792 0.925471 0.201223
C112  C     C_3   0.792264 0.235294 0.948055 -0.860182
H114  H     H_    0.785071 0.223232 0.991109 0.230283
H115  H     H_    0.765484 0.333322 0.927495 0.245603
H116  H     H_    0.829469 0.291531 0.945588 0.230280
O37   O     O_3   0.384701 0.260551 0.331760 -0.498716
C113  C     C_3   0.405542 0.217175 0.283354 -0.155537
H117  H     H_    0.411295 0.348907 0.261442 0.139246
H118  H     H_    0.380735 0.128665 0.256652 0.119740
H119  H     H_    0.441456 0.145921 0.290150 0.068272
O38   O     O_3   0.594982 0.866290 0.700184 -0.546591
C114  C     C_3   0.598159 0.670899 0.694907 -0.138359
H120  H     H_    0.600974 0.608134 0.735789 0.131589
H121  H     H_    0.631178 0.628977 0.675298 0.113617
H122  H     H_    0.565042 0.612010 0.672340 0.151511
O39   O     O_3   0.118529 0.770347 0.164805 -0.497126
C115  C     C_3   0.098663 0.747713 0.214815 -0.114821
H123  H     H_    0.098874 0.885013 0.235229 0.133714
H124  H     H_    0.120659 0.649964 0.241545 0.114211
H125  H     H_    0.060502 0.697721 0.210564 0.069445
O40   O     O_3   0.904033 0.359034 0.801915 -0.546570
C116  C     C_3   0.899663 0.164391 0.808423 -0.135740
H126  H     H_    0.896337 0.098733 0.767943 0.129837
H127  H     H_    0.866473 0.126760 0.828438 0.116021
H128  H     H_    0.932494 0.104472 0.831254 0.150062

loop_
_geom_bond_atom_site_label_1
_geom_bond_atom_site_label_2
_ccdc_geom_bond_type
C26   H10   S    
C80   C81   S    
C55   C59   A    
O1    C5    A    
C93   H67   S    
C13   O25   S    
O12   V4    S    
C34   C38   A    
O21   C73   S    
O13   V1    S    
C96   H74   S    
C33   C37   A    
C114  H120  S    
C10   C14   A    
C99   H85   S    
C56   C60   A    
C40   H20   S    
C110  C111  S    
O15   V3    S    
O22   C76   S    
C10   C30   A    
C111  C112  S    
C39   C43   A    
O25   C85   S    
C9    C29   A    
C108  H105  S    
C23   H7    S    
O29   C97   S    
O34   C104  S    
O7    C3    A    
C107  H104  S    
C86   H51   S    
C79   H35   S    
C7    C30   S    
O9    V1    S    
O40   C116  S    
C114  H121  S    
C115  H124  S    
C69   C70   T    
C100  H88   S    
O16   V4    S    
O4    C8    A    
C92   H66   S    
C51   C55   A    
C108  H106  S    
O19   V1    S    
C50   C54   A    
C80   H37   S    
C85   C86   S    
C62   O22   S    
O1    V3    S    
C116  H127  S    
C21   C25   A    
C91   H63   S    
C116  H126  S    
O2    V4    S    
O38   C114  S    
C14   C18   A    
C82   C83   S    
C47   C67   A    
O3    V1    S    
C100  H86   S    
C73   H21   S    
C105  H98   S    
C92   C93   S    
C47   O31   S    
C24   C28   A    
C93   H69   S    
C51   O35   S    
O3    C7    A    
C1    O15   A    
C87   H55   S    
C45   O29   S    
C2    O16   A    
C77   H30   S    
C106  H101  S    
C34   H14   S    
C109  H108  S    
C82   H42   S    
C79   C80   S    
C33   H13   S    
C95   H72   S    
O14   V2    S    
C37   H17   S    
C11   C15   A    
C112  H114  S    
C66   C70   S    
O5    V1    S    
O37   C113  S    
C107  C108  S    
C65   C69   S    
C76   C77   S    
C27   C31   A    
C38   C42   A    
C60   C64   A    
C87   H54   S    
O28   C94   S    
C37   C41   A    
O12   C8    A    
C78   H33   S    
C104  H96   S    
C90   H61   S    
C82   H43   S    
C84   H46   S    
C96   H75   S    
C113  H119  S    
C61   O21   S    
C86   H52   S    
C63   C67   A    
O10   V2    S    
C107  H103  S    
C115  H125  S    
C35   C39   A    
O32   C100  S    
C102  H91   S    
C26   C30   A    
C28   H12   S    
C46   C50   A    
C81   H40   S    
C89   C90   S    
C48   C52   A    
C57   C61   A    
O4    V2    S    
O7    V3    S    
C81   H39   S    
C22   C26   A    
C78   H32   S    
C114  H122  S    
C16   C20   A    
C99   H83   S    
C83   C84   S    
C113  H117  S    
C104  C105  S    
C46   O30   S    
C1    C55   S    
C97   H77   S    
C48   C68   A    
C45   C65   A    
C19   C23   A    
C94   H70   S    
C109  H109  S    
C88   H56   S    
C57   O37   S    
O11   V3    S    
C103  H95   S    
C9    H1    S    
C64   C68   A    
C45   C49   A    
C15   O27   S    
C73   C74   S    
O8    V4    S    
C84   H47   S    
C11   H3    S    
O31   C99   S    
O27   C91   S    
O5    C1    A    
C109  H107  S    
C81   H41   S    
C38   H18   S    
C92   H65   S    
C98   H80   S    
C11   C31   A    
O8    C4    A    
C106  H102  S    
C95   C96   S    
C105  H99   S    
O33   C101  S    
C83   H44   S    
C20   C43   S    
O9    C5    A    
C36   H16   S    
C22   H6    S    
C58   O38   S    
C2    C56   S    
C36   C43   A    
C112  H115  S    
C74   H23   S    
C111  H112  S    
C78   H34   S    
C14   O26   S    
C8    C29   S    
C75   H27   S    
C64   O24   S    
C77   H31   S    
C87   H53   S    
C98   H81   S    
C101  H89   S    
C84   H48   S    
C101  H90   S    
C104  H97   S    
C5    C32   S    
C102  H92   S    
C96   H76   S    
C113  H118  S    
C12   C16   A    
C23   C27   A    
C46   C66   A    
C110  H110  S    
C49   C53   A    
C68   C72   S    
C12   H4    S    
O26   C88   S    
C75   H26   S    
C85   H49   S    
C62   C66   A    
C88   C89   S    
C80   H38   S    
C61   C65   A    
C3    O13   A    
C93   H68   S    
O6    V2    S    
C103  H94   S    
C10   H2    S    
C83   H45   S    
O17   V3    S    
C25   C29   A    
C95   H73   S    
C110  H111  S    
C99   H84   S    
C50   O34   S    
C59   O39   S    
O6    C2    A    
C90   H62   S    
C111  H113  S    
O23   C79   S    
C12   C32   A    
C25   H9    S    
C86   C87   S    
C79   H36   S    
C116  H128  S    
C90   H60   S    
C102  C103  S    
C101  C102  S    
C18   C22   A    
C27   H11   S    
C91   C92   S    
C3    C53   S    
C100  H87   S    
C59   C63   A    
C9    C13   A    
C19   C44   S    
C18   C41   S    
O20   V2    S    
C17   C42   S    
C76   H28   S    
O39   C115  S    
C115  H123  S    
C40   C44   A    
C85   H50   S    
C54   C58   A    
O2    C6    A    
C60   O40   S    
C35   H15   S    
C97   H79   S    
O10   C6    A    
C88   H57   S    
C24   H8    S    
C77   C78   S    
C21   H5    S    
C52   C56   A    
O11   C7    A    
C103  H93   S    
C91   H64   S    
C17   C21   A    
O36   C110  S    
C97   H78   S    
C105  C106  S    
C63   O23   S    
C108  C109  S    
C112  H116  S    
C73   H22   S    
C6    C31   S    
C74   H24   S    
C36   C40   A    
C89   H58   S    
C35   C44   A    
C39   H19   S    
C94   C95   S    
C49   O33   S    
C76   H29   S    
C20   C24   A    
C98   H82   S    
C16   O28   S    
C28   C32   A    
C47   C51   A    
C52   O36   S    
O30   C98   S    
C58   C62   A    
C4    O14   A    
C4    C54   S    
C74   C75   S    
C13   C17   A    
O24   C82   S    
C75   H25   S    
C67   C71   S    
C71   C72   T    
C48   O32   S    
C34   C41   A    
C15   C19   A    
O18   V4    S    
C53   C57   A    
C33   C42   A    
C106  H100  S    
O35   C107  S    
C89   H59   S    
C94   H71   S    
