data_mof_unit_48123.cif
_audit_creation_date              2012-12-10T17:59:49-0500
_audit_creation_method            fapswitch 2.2
_symmetry_space_group_name_H-M    P1
_symmetry_Int_Tables_number       1
_space_group_crystal_system       triclinic
_cell_length_a                    10.793149
_cell_length_b                    9.52005
_cell_length_c                    15.905705
_cell_angle_alpha                 90.19994
_cell_angle_beta                  90.13991
_cell_angle_gamma                 89.994186
_cell_volume                      1634.31732407

loop_
_atom_site_label
_atom_site_type_symbol
_atom_type_description
_atom_site_fract_x
_atom_site_fract_y
_atom_site_fract_z
_atom_type_partial_charge
C1    C     C_R   0.262412 0.500019 0.500166 0.889807
C2    C     C_3   0.619176 0.585921 0.952497 0.807898
C3    C     C_3   0.605043 0.586700 0.051030 -0.511641
C4    C     C_1   0.498862 0.504781 0.824293 0.013018
C5    C     C_1   0.495713 0.498419 0.175483 0.058191
C6    C     C_1   0.497997 0.499127 0.250848 -0.174521
C7    C     C_R   0.065124 0.416271 0.558658 0.065186
C8    C     C_R   0.064669 0.584524 0.442349 0.060130
C9    C     C_R   0.935341 0.416310 0.558687 0.062416
C10   C     C_R   0.934936 0.584561 0.442379 0.062391
C11   C     C_R   0.871494 0.500191 0.500400 -0.076972
C12   C     C_R   0.128532 0.500160 0.500362 -0.076861
C13   C     C_R   0.424628 0.074104 0.446672 -0.015652
C14   C     C_R   0.424626 0.925292 0.446670 -0.012078
C15   C     C_R   0.499816 0.499769 0.340260 0.828717
C16   C     C_R   0.575310 0.925889 0.553463 -0.022076
C17   C     C_R   0.575323 0.074709 0.553455 -0.020944
C18   C     C_R   0.737601 0.500023 0.500224 0.886743
C19   C     C_R   0.500001 0.500259 0.659680 0.826027
C20   C     C_3   0.367346 0.569719 0.050284 0.234870
C21   C     C_3   0.509122 0.343221 0.047871 0.233607
C22   C     C_3   0.501226 0.350913 0.948576 0.281135
C23   C     C_3   0.380423 0.589965 0.952482 0.288309
C24   C     C_1   0.499465 0.501470 0.748923 -0.218351
C25   C     C_3   0.492334 0.497924 0.083099 0.034978
C26   C     C_3   0.497619 0.508399 0.916361 -0.124411
Cu1   Cu    Cu3+1 0.500020 0.640660 0.500000 0.963368
Cu2   Cu    Cu3+1 0.500020 0.359340 0.500000 0.962757
H1    H     H_    0.635654 0.870058 0.596258 0.114249
H2    H     H_    0.635697 0.131011 0.596232 0.129493
H3    H     H_    0.588653 0.304551 0.922940 0.118312
H4    H     H_    0.410038 0.700244 0.947388 0.123079
H5    H     H_    0.598233 0.695848 0.075196 0.190322
H6    H     H_    0.692322 0.550715 0.081459 0.212314
H7    H     H_    0.364161 0.129931 0.403964 0.120566
H8    H     H_    0.364158 0.868991 0.403958 0.136106
N1    N     N_R   0.500030 0.852070 0.500020 -0.157740
N2    N     N_R   0.500030 0.147930 0.500020 -0.157578
O1    O     O_R   0.319660 0.618740 0.500000 -0.571295
O2    O     O_R   0.319660 0.381260 0.500000 -0.573625
O3    O     O_R   0.500020 0.618840 0.379440 -0.565633
O4    O     O_R   0.500020 0.381160 0.379440 -0.587534
O5    O     O_R   0.680370 0.618830 0.500010 -0.573893
O6    O     O_R   0.680370 0.381170 0.500010 -0.569323
O7    O     O_R   0.500010 0.618730 0.620560 -0.590479
O8    O     O_R   0.500010 0.381270 0.620560 -0.572154
O9    O     O_3   0.265926 0.599762 0.907017 -0.578335
C27   C     C_3   0.218272 0.476735 0.869150 -0.132455
H9    H     H_    0.191038 0.395666 0.914587 0.184111
H10   H     H_    0.278093 0.433579 0.819367 0.185638
H11   H     H_    0.131105 0.506103 0.836592 0.124189
O10   O     O_3   0.395798 0.276180 0.918748 -0.580374
C28   C     C_3   0.429961 0.155250 0.872663 -0.377245
H12   H     H_    0.344637 0.098366 0.853690 0.201269
H13   H     H_    0.486913 0.082861 0.911617 0.165767
H14   H     H_    0.480535 0.184548 0.814455 0.176146
N3    N     N_3   0.256453 0.486627 0.070540 -0.531967
H15   H     H_    0.252599 0.392159 0.038278 0.268805
H16   H     H_    0.254437 0.464975 0.134930 0.229322
N4    N     N_3   0.412613 0.249509 0.081808 -0.572046
H17   H     H_    0.424373 0.238760 0.146753 0.225904
H18   H     H_    0.422691 0.148495 0.056689 0.241096
N5    N     N_3   0.629920 0.284532 0.074877 -0.609396
H19   H     H_    0.632906 0.177360 0.060233 0.212007
H20   H     H_    0.704081 0.328008 0.042404 0.248364
N6    N     N_3   0.349420 0.707395 0.092004 -0.584542
H21   H     H_    0.263930 0.748861 0.073257 0.254771
H22   H     H_    0.415701 0.781434 0.074544 0.192018
O11   O     O_3   0.637406 0.732364 0.932219 -0.596876
C29   C     C_3   0.604692 0.780237 0.850849 -0.379455
H23   H     H_    0.637397 0.890199 0.845142 0.182026
H24   H     H_    0.503367 0.784238 0.840679 0.172643
H25   H     H_    0.650296 0.722062 0.799473 0.166529
O12   O     O_3   0.728023 0.503606 0.937059 -0.626370
C30   C     C_3   0.798674 0.541074 0.866320 -0.269794
H26   H     H_    0.832793 0.650921 0.870447 0.211605
H27   H     H_    0.748210 0.518563 0.807094 0.142500
H28   H     H_    0.882379 0.473501 0.865222 0.162342
N7    N     N_3   0.133591 0.334934 0.618859 -0.585320
H29   H     H_    0.109404 0.367854 0.679380 0.199634
H30   H     H_    0.109739 0.229172 0.611723 0.224802
N8    N     N_3   0.132637 0.666440 0.382400 -0.595310
H31   H     H_    0.108952 0.772168 0.389952 0.218205
H32   H     H_    0.107983 0.634151 0.321767 0.219390
N9    N     N_3   0.867328 0.335111 0.618957 -0.604780
H33   H     H_    0.891046 0.229306 0.611870 0.218253
H34   H     H_    0.891985 0.368126 0.679457 0.201017
N10   N     N_3   0.866539 0.666600 0.382493 -0.578234
H35   H     H_    0.890761 0.634378 0.321848 0.217446
H36   H     H_    0.890374 0.772286 0.390095 0.225468

loop_
_geom_bond_atom_site_label_1
_geom_bond_atom_site_label_2
_ccdc_geom_bond_type
N6    H22   S    
N5    H20   S    
C11   C18   S    
C19   O8    A    
C28   H12   S    
C10   N10   S    
C8    N8    S    
C22   O10   S    
C13   H7    S    
C14   H8    S    
C5    C6    T    
C4    C24   T    
N3    H16   S    
C20   C25   S    
Cu2   O2    S    
N4    H18   S    
C23   C26   S    
C1    O2    A    
C9    N9    S    
C6    C15   S    
C27   H11   S    
Cu1   O1    S    
C16   C17   A    
C29   H23   S    
C2    O11   S    
C2    O12   S    
C16   N1    A    
Cu1   O7    S    
C27   H10   S    
N6    H21   S    
C21   C22   S    
C17   H2    S    
C1    C12   S    
C28   H13   S    
C7    C12   A    
C23   O9    S    
O12   C30   S    
N9    H34   S    
C3    C25   S    
C15   O3    A    
C21   N4    S    
C22   H3    S    
N7    H30   S    
C3    H6    S    
C16   H1    S    
N9    H33   S    
Cu2   O6    S    
N5    H19   S    
N4    H17   S    
C30   H26   S    
C18   O6    A    
C30   H27   S    
Cu1   O3    S    
O9    C27   S    
C20   C23   S    
Cu2   N2    S    
C8    C12   A    
Cu2   O8    S    
C29   H25   S    
C2    C26   S    
C9    C11   A    
C13   N2    A    
C5    C25   S    
C27   H9    S    
N10   H36   S    
N8    H32   S    
O10   C28   S    
C7    N7    S    
C28   H14   S    
C20   N6    S    
C7    C9    A    
C21   C25   S    
C15   O4    A    
C4    C26   S    
C19   O7    A    
C23   H4    S    
C2    C3    S    
C18   O5    A    
C14   N1    A    
N3    H15   S    
Cu1   N1    S    
Cu2   O4    S    
C19   C24   S    
C17   N2    A    
O11   C29   S    
C30   H28   S    
C21   N5    S    
C10   C11   A    
C1    O1    A    
N7    H29   S    
Cu1   O5    S    
N10   H35   S    
C8    C10   A    
N8    H31   S    
C22   C26   S    
Cu1   Cu2   S    
C3    H5    S    
C29   H24   S    
C20   N3    S    
C13   C14   A    
