data_mof_unit_13754.cif
_audit_creation_date              2012-12-10T17:52:39-0500
_audit_creation_method            fapswitch 2.2
_symmetry_space_group_name_H-M    P1
_symmetry_Int_Tables_number       1
_space_group_crystal_system       triclinic
_cell_length_a                    14.727426
_cell_length_b                    14.661099
_cell_length_c                    23.499133
_cell_angle_alpha                 75.702607
_cell_angle_beta                  103.005379
_cell_angle_gamma                 115.187401
_cell_volume                      4407.48051493

loop_
_atom_site_label
_atom_site_type_symbol
_atom_type_description
_atom_site_fract_x
_atom_site_fract_y
_atom_site_fract_z
_atom_type_partial_charge
C1    C     C_R   0.879971 0.311390 0.508815 0.822947
C2    C     C_R   0.119434 0.688005 0.493114 0.774662
C3    C     C_R   0.045800 0.613496 0.744810 0.018775
C4    C     C_R   0.918810 0.527207 0.226105 0.016830
C5    C     C_R   0.040853 0.602598 0.686428 -0.326719
C6    C     C_R   0.917742 0.504361 0.287374 -0.322947
C7    C     C_R   0.002379 0.506075 0.670414 -0.078736
C8    C     C_R   0.007357 0.516480 0.326851 -0.135656
C9    C     C_R   0.966833 0.417095 0.712752 0.154077
C10   C     C_R   0.100508 0.562741 0.303273 0.159653
C11   C     C_R   0.973948 0.426032 0.772255 -0.033482
C12   C     C_R   0.099252 0.580532 0.241055 0.000236
C13   C     C_R   0.012594 0.524245 0.788054 0.177478
C14   C     C_R   0.005963 0.538726 0.204113 0.148403
C15   C     C_R   0.811616 0.201497 0.514395 -0.113861
C16   C     C_R   0.185993 0.795013 0.498980 -0.152893
C17   C     C_R   0.778387 0.021796 0.523995 -0.244626
C18   C     C_R   0.221723 0.959917 0.522629 -0.181059
C19   C     C_R   0.845643 0.124354 0.515358 0.266833
C20   C     C_R   0.150851 0.862526 0.512313 0.265096
C21   C     C_R   0.709199 0.173720 0.518603 -0.265333
C22   C     C_R   0.289609 0.825356 0.498013 -0.236994
C23   C     C_R   0.000073 0.500396 0.608726 0.841359
C24   C     C_R   0.002123 0.503617 0.390683 0.820298
C25   C     C_R   0.641094 0.070537 0.528814 0.093252
C26   C     C_R   0.361575 0.915378 0.517703 0.086629
C27   C     C_R   0.677080 0.994762 0.529732 0.078127
C28   C     C_R   0.325758 0.985918 0.525730 0.056091
C29   C     C_R   0.536773 0.040767 0.533770 -0.007369
C30   C     C_R   0.467845 0.938381 0.528055 -0.009755
C31   C     C_R   0.508285 0.862460 0.535798 0.238223
C32   C     C_R   0.498148 0.107797 0.545169 0.249724
C33   C     C_R   0.611644 0.892163 0.535601 -0.266130
C34   C     C_R   0.393939 0.080271 0.539746 -0.257401
C35   C     C_R   0.712164 0.665400 0.395881 0.099233
C36   C     C_R   0.293997 0.341841 0.605623 0.085844
C37   C     C_R   0.793386 0.633489 0.412327 0.420745
C38   C     C_R   0.204111 0.357912 0.582449 0.415152
C39   C     C_R   0.719916 0.519278 0.496218 -0.073066
C40   C     C_R   0.289060 0.498406 0.511534 -0.078867
C41   C     C_R   0.635038 0.547856 0.481871 -0.059471
C42   C     C_R   0.378751 0.477937 0.527972 -0.061842
C43   C     C_R   0.630916 0.619984 0.429676 0.050143
C44   C     C_R   0.381743 0.402088 0.578224 0.059780
C45   C     C_R   0.084847 0.510232 0.130142 0.581391
C46   C     C_R   0.924346 0.516182 0.865424 0.613962
C47   C     C_R   0.552903 0.504925 0.516405 0.113854
C48   C     C_R   0.464619 0.528550 0.496059 0.095689
C49   C     C_R   0.463694 0.598952 0.443336 -0.239549
C50   C     C_R   0.556041 0.438670 0.570592 -0.245204
C51   C     C_R   0.545081 0.644241 0.411484 -0.163487
C52   C     C_R   0.471805 0.386528 0.599798 -0.187931
C53   C     C_R   0.912360 0.479612 0.108294 0.615836
C54   C     C_R   0.099505 0.543283 0.887553 0.663081
C55   C     C_R   0.914071 0.490684 0.047586 -0.028025
C56   C     C_R   0.098316 0.537573 0.947820 -0.029641
C57   C     C_R   0.005659 0.513898 0.027786 -0.064679
C58   C     C_R   0.007966 0.522044 0.966872 -0.059507
C59   C     C_R   0.092456 0.520007 0.069730 -0.033558
C60   C     C_R   0.919236 0.511407 0.925464 -0.042379
C61   C     C_R   0.825936 0.478466 0.006852 -0.212189
C62   C     C_R   0.184364 0.542988 0.989479 -0.220171
C63   C     C_R   0.828012 0.491733 0.946047 0.246894
C64   C     C_R   0.182467 0.533885 0.049996 0.250323
Cu1   Cu    Cu3+1 0.081740 0.475680 0.515360 0.966255
Cu2   Cu    Cu3+1 0.918260 0.524320 0.484640 0.952847
H1    H     H_    0.755367 0.462317 0.021869 0.185917
H2    H     H_    0.253977 0.553907 0.975338 0.186146
H3    H     H_    0.804734 0.962996 0.524117 0.134037
H4    H     H_    0.197157 0.014059 0.531810 0.144143
H5    H     H_    0.537956 0.696813 0.371128 0.167951
H6    H     H_    0.478556 0.332574 0.639455 0.160405
H7    H     H_    0.284603 0.561038 0.477403 0.150998
H8    H     H_    0.726757 0.462374 0.533920 0.147778
H9    H     H_    0.400050 0.619849 0.424724 0.145873
H10   H     H_    0.622605 0.423900 0.591368 0.142621
H11   H     H_    0.066644 0.669833 0.652683 0.171623
H12   H     H_    0.848329 0.486475 0.304290 0.201986
H13   H     H_    0.641072 0.834004 0.539903 0.148770
H14   H     H_    0.366391 0.132486 0.548745 0.144636
H15   H     H_    0.312849 0.776878 0.481932 0.189764
H16   H     H_    0.682928 0.234454 0.510680 0.198422
N1    N     N_R   0.001451 0.512792 0.146223 -0.428670
N2    N     N_R   0.013189 0.531444 0.848093 -0.437539
N3    N     N_R   0.795430 0.560810 0.461550 -0.207283
N4    N     N_R   0.204570 0.439190 0.538450 -0.205279
O1    O     O_R   0.977900 0.338110 0.520250 -0.507243
O2    O     O_R   0.022100 0.661890 0.479750 -0.547895
O3    O     O_R   0.839850 0.379180 0.494310 -0.597014
O4    O     O_R   0.160150 0.620820 0.505690 -0.579856
O5    O     O_R   0.069020 0.479430 0.595090 -0.559993
O6    O     O_R   0.930980 0.520570 0.404910 -0.558234
O7    O     O_R   0.930970 0.520500 0.569150 -0.595825
O8    O     O_R   0.069030 0.479500 0.430850 -0.586662
O9    O     O_2   0.156492 0.491124 0.172232 -0.499702
O10   O     O_2   0.841228 0.503263 0.824577 -0.503831
O11   O     O_2   0.822539 0.428833 0.128991 -0.541760
O12   O     O_2   0.185445 0.558052 0.868558 -0.536957
N5    N     N_2   0.448379 0.755705 0.549153 -0.454417
H17   H     H_    0.475017 0.709344 0.537282 0.255488
C65   C     C_3   0.422042 0.720347 0.608710 -0.625154
H18   H     H_    0.370966 0.638003 0.613788 0.231257
H19   H     H_    0.381818 0.763296 0.617776 0.243209
H20   H     H_    0.491447 0.729889 0.641496 0.223696
N6    N     N_2   0.561897 0.196498 0.570360 -0.455021
H21   H     H_    0.544845 0.259050 0.549668 0.254582
C66   C     C_3   0.567276 0.180292 0.634080 -0.688907
H22   H     H_    0.614086 0.253638 0.650155 0.218586
H23   H     H_    0.601803 0.123822 0.655457 0.251843
H24   H     H_    0.490600 0.152479 0.647049 0.227426
N7    N     N_2   0.110289 0.279988 0.597286 -0.363519
H25   H     H_    0.098714 0.211097 0.587080 0.242318
C67   C     C_3   0.086554 0.266970 0.655810 -0.609107
H26   H     H_    0.120386 0.217122 0.688290 0.226832
H27   H     H_    0.003425 0.226804 0.654508 0.234415
H28   H     H_    0.112863 0.341652 0.670419 0.241734
N8    N     N_2   0.868523 0.669408 0.374155 -0.373113
H29   H     H_    0.840285 0.649604 0.332622 0.249305
C68   C     C_3   0.940897 0.774267 0.372352 -0.591115
H30   H     H_    0.918915 0.824026 0.332748 0.222430
H31   H     H_    0.016602 0.778353 0.369107 0.216613
H32   H     H_    0.946428 0.803453 0.412752 0.247324
N9    N     N_2   0.713028 0.741377 0.344413 -0.429848
H33   H     H_    0.650477 0.719343 0.312782 0.266106
C69   C     C_3   0.741319 0.843249 0.356105 -0.685220
H34   H     H_    0.681511 0.846859 0.375892 0.222931
H35   H     H_    0.752300 0.898659 0.313904 0.238982
H36   H     H_    0.813190 0.866475 0.386959 0.229010
N10   N     N_2   0.292389 0.260338 0.653865 -0.445547
H37   H     H_    0.321012 0.211276 0.647184 0.250710
C70   C     C_3   0.328567 0.290927 0.711653 -0.667859
H38   H     H_    0.411233 0.337622 0.716423 0.227573
H39   H     H_    0.313304 0.221702 0.746598 0.236142
H40   H     H_    0.289221 0.336483 0.718560 0.237121
N11   N     N_2   0.737548 0.484594 0.906401 -0.378167
H41   H     H_    0.672868 0.429033 0.922566 0.250057
C71   C     C_3   0.727821 0.581698 0.884114 -0.578574
H42   H     H_    0.659091 0.570967 0.850729 0.226409
H43   H     H_    0.794688 0.637878 0.862466 0.251295
H44   H     H_    0.720640 0.612421 0.920913 0.202801
N12   N     N_2   0.271967 0.539448 0.090239 -0.373043
H45   H     H_    0.308485 0.499212 0.081246 0.255035
C72   C     C_3   0.340858 0.642407 0.097934 -0.565301
H46   H     H_    0.404682 0.639702 0.133056 0.239443
H47   H     H_    0.301545 0.681640 0.111616 0.245858
H48   H     H_    0.371677 0.686659 0.055935 0.197264
C73   C     C_2   0.084855 0.718596 0.758952 0.886525
O13   O     O_2   0.129803 0.792698 0.723619 -0.606587
O14   O     O_R   0.069623 0.734072 0.811846 -0.767903
H49   H     H_    0.099721 0.808978 0.815734 0.336426
C74   C     C_2   0.843000 0.567123 0.189070 0.932187
O15   O     O_2   0.759415 0.538634 0.204000 -0.591276
O16   O     O_R   0.868380 0.639659 0.137726 -0.749859
H50   H     H_    0.810828 0.661151 0.116332 0.334724
N13   N     N_2   0.928347 0.319341 0.695625 -0.454990
H51   H     H_    0.942393 0.263057 0.727819 0.265289
C75   C     C_3   0.824991 0.285215 0.666551 -0.630422
H52   H     H_    0.773432 0.274019 0.697791 0.264967
H53   H     H_    0.804137 0.211396 0.652081 0.225034
H54   H     H_    0.815432 0.341411 0.626824 0.228019
N14   N     N_2   0.194639 0.600971 0.340276 -0.392568
H55   H     H_    0.208294 0.548235 0.375266 0.267999
C76   C     C_3   0.220170 0.699871 0.355217 -0.643867
H56   H     H_    0.296745 0.725487 0.381333 0.210504
H57   H     H_    0.164685 0.695536 0.381814 0.199578
H58   H     H_    0.220815 0.757515 0.314341 0.238107
C77   C     C_2   0.939405 0.333171 0.818246 0.840985
O17   O     O_2   0.994558 0.324781 0.864910 -0.589787
O18   O     O_R   0.843600 0.255723 0.808446 -0.760220
H59   H     H_    0.828915 0.196769 0.843041 0.339543
C78   C     C_2   0.189211 0.660064 0.213977 0.908257
O19   O     O_2   0.274992 0.668640 0.237076 -0.552965
O20   O     O_R   0.174849 0.726187 0.161855 -0.771879
H60   H     H_    0.241011 0.780067 0.148809 0.323483
N15   N     N_2   0.046713 0.829138 0.519075 -0.411895
H61   H     H_    0.020976 0.765015 0.550879 0.267364
C79   C     C_3   0.004362 0.903671 0.515204 -0.749084
H62   H     H_    0.024299 0.963703 0.475345 0.233691
H63   H     H_    0.920516 0.864989 0.511085 0.228743
H64   H     H_    0.031877 0.938610 0.555934 0.233833
N16   N     N_2   0.945420 0.148723 0.504718 -0.423617
H65   H     H_    0.973100 0.093203 0.525554 0.234053
C80   C     C_3   0.959324 0.179896 0.442807 -0.644112
H66   H     H_    0.912607 0.115281 0.418390 0.213239
H67   H     H_    0.040257 0.203211 0.438893 0.223818
H68   H     H_    0.937986 0.246124 0.422341 0.230263

loop_
_geom_bond_atom_site_label_1
_geom_bond_atom_site_label_2
_ccdc_geom_bond_type
C1    O1    A    
C72   H48   S    
C78   O19   D    
C3    C73   S    
C65   H18   S    
N13   C75   S    
N8    H29   S    
C66   H23   S    
O18   H59   S    
N7    H25   S    
C70   H40   S    
C19   N16   S    
Cu2   N3    S    
C54   N2    A    
N14   H55   S    
N11   H41   S    
N15   C79   S    
C70   H39   S    
N16   H65   S    
C27   C33   A    
C15   C19   A    
C71   H43   S    
C13   N2    S    
C59   C64   A    
C75   H52   S    
C42   C44   A    
C38   N4    A    
C60   C63   A    
C37   N3    A    
C73   O14   S    
N10   H37   S    
C29   C32   A    
C50   H10   S    
C80   H67   S    
Cu2   O2    S    
C30   C31   A    
N9    C69   S    
C20   N15   S    
C64   N12   S    
C58   C60   A    
C72   H46   S    
C72   H47   S    
C40   H7    S    
C7    C9    A    
C39   H8    S    
C40   N4    A    
C61   C63   A    
C62   C64   A    
C65   H20   S    
C34   H14   S    
C45   C59   A    
C73   O13   D    
C79   H63   S    
C69   H36   S    
C50   C52   A    
C74   O15   D    
C49   H9    S    
C2    O2    A    
C1    C15   S    
C31   N5    S    
Cu2   O3    S    
C2    C16   S    
C3    C13   A    
C67   H28   S    
C46   C60   A    
C44   C52   A    
N16   C80   S    
C28   C34   A    
C65   H19   S    
N11   C71   S    
C11   C77   S    
C41   C43   A    
C45   N1    A    
C51   H5    S    
C14   N1    S    
C24   O6    A    
N14   C76   S    
Cu1   O1    S    
C47   C50   A    
C53   C55   A    
C25   C29   A    
Cu1   O4    S    
C71   H44   S    
C54   C56   A    
C17   C27   A    
C22   H15   S    
Cu1   N4    S    
C76   H58   S    
C18   C28   A    
C77   O18   S    
C80   H68   S    
C36   N10   S    
C77   O17   D    
C5    C7    A    
C33   H13   S    
Cu2   O6    S    
C49   C51   A    
O20   H60   S    
C23   O7    A    
C16   C22   A    
N12   C72   S    
C63   N11   S    
C80   H66   S    
C29   C30   A    
C52   H6    S    
C24   O8    A    
N6    C66   S    
C61   H1    S    
N15   H61   S    
C16   C20   A    
C79   H64   S    
C31   C33   A    
C41   C47   A    
C37   N8    S    
N7    C67   S    
C42   C48   A    
C9    C11   A    
C9    N13   S    
C56   C62   A    
C68   H31   S    
C10   C12   A    
C79   H62   S    
Cu2   O7    S    
C46   N2    A    
C4    C6    A    
Cu1   O8    S    
N5    C65   S    
C12   C14   A    
C26   C30   A    
C75   H54   S    
N9    H33   S    
C32   N6    S    
C55   C57   A    
C69   H34   S    
C66   H24   S    
C23   O5    A    
C36   C44   A    
C57   C59   A    
C25   C27   A    
C39   N3    A    
C66   H22   S    
C5    H11   S    
C70   H38   S    
C45   O9    S    
C3    C5    A    
C35   C43   A    
C67   H26   S    
N6    H21   S    
C68   H32   S    
Cu1   O5    S    
C4    C74   S    
C21   C25   A    
C17   H3    S    
C48   C49   A    
C1    O3    A    
C2    O4    A    
C35   C37   A    
C8    C10   A    
C40   C42   A    
C47   C48   A    
C6    C8    A    
C68   H30   S    
C78   O20   S    
C71   H42   S    
C26   C28   A    
C18   H4    S    
N5    H17   S    
C62   H2    S    
C53   N1    A    
C53   O11   S    
N8    C68   S    
C38   N7    S    
O14   H49   S    
C36   C38   A    
C11   C13   A    
C43   C51   A    
C57   C58   A    
C7    C23   S    
C55   C61   A    
C35   N9    S    
C8    C24   S    
C56   C58   A    
C18   C20   A    
C74   O16   S    
C4    C14   A    
C76   H56   S    
C6    H12   S    
C17   C19   A    
C15   C21   A    
C46   O10   S    
C21   H16   S    
C39   C41   A    
C75   H53   S    
Cu1   Cu2   S    
C22   C26   A    
N13   H51   S    
C69   H35   S    
C12   C78   S    
C54   O12   S    
C76   H57   S    
C10   N14   S    
C67   H27   S    
O16   H50   S    
N12   H45   S    
C32   C34   A    
N10   C70   S    
