data_mof_unit_63891.cif
_audit_creation_date              2012-12-10T17:33:10-0500
_audit_creation_method            fapswitch 2.2
_symmetry_space_group_name_H-M    P1
_symmetry_Int_Tables_number       1
_space_group_crystal_system       triclinic
_cell_length_a                    21.421857
_cell_length_b                    25.057382
_cell_length_c                    25.127627
_cell_angle_alpha                 100.578696
_cell_angle_beta                  115.546782
_cell_angle_gamma                 64.681849
_cell_volume                      11000.3377237

loop_
_atom_site_label
_atom_site_type_symbol
_atom_type_description
_atom_site_fract_x
_atom_site_fract_y
_atom_site_fract_z
_atom_type_partial_charge
C1    C     C_R   0.999994 0.919901 0.419927 0.807498
C2    C     C_3   0.064488 0.681709 0.269745 0.314717
C3    C     C_3   0.098243 0.233894 0.098366 0.121876
C4    C     C_3   0.017292 0.250725 0.089473 -0.835556
C5    C     C_3   0.295654 0.225320 0.131046 -0.344253
C6    C     C_3   0.467155 0.211927 0.338498 0.064641
C7    C     C_3   0.538903 0.171147 0.330005 -0.771009
C8    C     C_3   0.813462 0.031839 0.651070 -0.331880
C9    C     C_3   0.896923 0.616966 0.705291 -0.319928
C10   C     C_3   0.610290 0.867707 0.774085 -0.331595
C11   C     C_3   0.544470 0.774023 0.638082 0.123101
C12   C     C_3   0.526553 0.741680 0.579548 -0.836289
C13   C     C_3   0.001286 0.708310 0.208486 0.092012
C14   C     C_3   0.640505 0.732786 0.836320 -0.265000
C15   C     C_3   0.688518 0.151993 0.529008 -0.336612
C16   C     C_R   0.879367 0.999937 0.499829 0.841437
C17   C     C_3   0.920616 0.742581 0.210001 0.334309
C18   C     C_3   0.922034 0.786916 0.262656 -0.539086
C19   C     C_1   0.000801 0.662529 0.162153 0.026480
C20   C     C_1   0.000010 0.837376 0.337629 -0.012711
C21   C     C_1   0.999979 0.875059 0.375205 -0.174589
C22   C     C_3   0.209348 0.053155 0.511742 0.549810
C23   C     C_3   0.231082 0.037139 0.458061 -0.253250
C24   C     C_3   0.750108 0.014552 0.553380 0.472915
C25   C     C_3   0.311680 0.999476 0.500285 -0.170184
C26   C     C_3   0.290087 0.016916 0.554431 -0.395298
C27   C     C_3   0.270119 0.962287 0.541615 0.416035
C28   C     C_R   0.999639 0.080073 0.580040 0.845524
C29   C     C_3   0.291745 0.945203 0.488409 0.503945
C30   C     C_3   0.210927 0.982150 0.446221 -0.354037
C31   C     C_3   0.189307 0.999177 0.500160 -0.173358
C32   C     C_3   0.042588 0.181540 0.770799 0.142405
C33   C     C_3   0.910235 0.257005 0.694782 0.718163
C34   C     C_3   0.912638 0.298463 0.750477 0.237700
C35   C     C_3   0.750285 0.053545 0.513382 0.477338
C36   C     C_1   0.999078 0.375825 0.874947 -0.175153
C37   C     C_3   0.995556 0.209963 0.706777 -0.127081
C38   C     C_3   0.040323 0.230734 0.819245 0.184788
C39   C     C_3   0.995964 0.293669 0.789760 -0.174227
C40   C     C_R   0.120693 0.999890 0.500147 0.868357
C41   C     C_3   0.031290 0.298496 0.747657 0.183709
C42   C     C_3   0.041719 0.244257 0.704736 0.181696
C43   C     C_1   0.997862 0.338846 0.836717 0.128319
C44   C     C_1   0.997015 0.163006 0.661713 0.058110
C45   C     C_1   0.998438 0.124927 0.624604 -0.192169
C46   C     C_3   0.811137 0.999775 0.499739 -0.100653
C47   C     C_R   0.419881 0.080095 0.419936 0.811171
C48   C     C_R   0.620807 0.999860 0.500279 0.836004
C49   C     C_R   0.580138 0.919814 0.580136 0.830723
C50   C     C_R   0.379721 0.999679 0.500189 0.854397
C51   C     C_R   0.079997 0.420199 0.079872 0.816351
C52   C     C_3   0.750662 0.984897 0.445755 -0.178176
C53   C     C_R   0.999975 0.580067 0.079746 0.814455
C54   C     C_R   0.919779 0.580060 0.919944 0.813927
C55   C     C_R   0.999807 0.420191 0.920050 0.803708
C56   C     C_3   0.217728 0.249317 0.296589 -0.580197
C57   C     C_3   0.057954 0.729382 0.318745 -0.469280
C58   C     C_3   0.271935 0.177093 0.227920 0.293069
C59   C     C_3   0.216857 0.225040 0.177369 0.796095
C60   C     C_1   0.125236 0.374931 0.124321 -0.192816
C61   C     C_3   0.292365 0.207280 0.289759 0.103574
C62   C     C_3   0.171054 0.299450 0.249733 -0.416502
C63   C     C_3   0.209270 0.289001 0.205984 0.111340
C64   C     C_3   0.688838 0.039465 0.459428 -0.296746
C65   C     C_3   0.286691 0.293495 0.245344 -0.500606
C66   C     C_3   0.335878 0.245417 0.294243 0.356332
C67   C     C_1   0.163145 0.336438 0.161210 -0.045491
C68   C     C_3   0.014098 0.807005 0.240631 0.345012
C69   C     C_1   0.337710 0.162155 0.336937 -0.017726
C70   C     C_1   0.375116 0.124877 0.375018 -0.184146
C71   C     C_3   0.762961 0.810043 0.762060 -0.478370
C72   C     C_3   0.753217 0.734070 0.684898 -0.463000
C73   C     C_3   0.800342 0.684276 0.732637 0.315763
C74   C     C_1   0.874508 0.624790 0.875035 -0.161857
C75   C     C_3   0.704262 0.791096 0.708354 0.097237
C76   C     C_3   0.688908 0.000177 0.500165 -0.103185
C77   C     C_3   0.809073 0.763137 0.811531 -0.359047
C78   C     C_3   0.788512 0.708410 0.791033 0.071284
C79   C     C_3   0.021695 0.755666 0.194829 -0.630009
C80   C     C_3   0.703858 0.727630 0.778494 0.231457
C81   C     C_3   0.651830 0.773588 0.725894 0.802336
C82   C     C_1   0.836060 0.662365 0.837287 0.028093
C83   C     C_1   0.660217 0.837217 0.662403 -0.036649
C84   C     C_1   0.623984 0.874972 0.624868 -0.189376
C85   C     C_3   0.749256 0.945633 0.486007 -0.184905
C86   C     C_3   0.811128 0.960039 0.540019 -0.310569
C87   C     C_3   0.141546 0.796226 0.296266 0.100408
C88   C     C_3   0.198379 0.815303 0.293094 -0.803754
C89   C     C_3   0.904695 0.668456 0.244960 0.174193
C90   C     C_1   0.000334 0.624916 0.124493 -0.162615
C91   C     C_3   0.838565 0.664646 0.250128 -0.856322
C92   C     C_3   0.132746 0.592530 0.321447 0.047011
C93   C     C_3   0.124698 0.541529 0.338819 -0.810778
C94   C     C_3   0.194321 0.149867 0.534045 -0.316246
C95   C     C_3   0.362914 0.901829 0.620371 -0.306840
C96   C     C_3   0.304483 0.849331 0.461939 -0.340223
C97   C     C_3   0.060608 0.192198 0.906424 0.138463
C98   C     C_3   0.021582 0.173506 0.933251 -0.787523
C99   C     C_3   0.072971 0.081127 0.782443 0.076567
C100  C     C_3   0.041204 0.038891 0.786585 -0.811724
C101  C     C_3   0.000130 0.791406 0.291561 0.100622
C102  C     C_3   0.842070 0.279047 0.591128 0.233450
C103  C     C_3   0.835370 0.313467 0.543683 -0.835079
C104  C     C_3   0.868246 0.188394 0.714101 0.067733
C105  C     C_3   0.794152 0.184996 0.702058 -0.822128
C106  C     C_3   0.860742 0.400616 0.719920 -0.236071
C107  C     C_3   0.074496 0.268384 0.637420 0.099905
C108  C     C_3   0.042331 0.296404 0.577555 -0.822901
C109  C     C_3   0.157688 0.278703 0.817657 -0.324072
C110  C     C_3   0.332421 0.086649 0.190268 0.100742
C111  C     C_3   0.399568 0.052329 0.173668 -0.764960
Cu1   Cu    Cu3+1 0.041320 0.958650 0.541310 0.965725
Cu2   Cu    Cu3+1 0.958680 0.041350 0.458690 0.989957
Cu3   Cu    Cu3+1 0.500040 0.041270 0.541360 0.952250
Cu4   Cu    Cu3+1 0.500060 0.958620 0.458750 0.973168
Cu5   Cu    Cu3+1 0.062630 0.500130 0.999860 0.957803
Cu6   Cu    Cu3+1 0.937130 0.500110 0.999890 0.966457
H1    H     H_    0.637651 0.071156 0.426525 0.143347
H2    H     H_    0.322962 0.031499 0.597882 0.158966
H3    H     H_    0.999474 0.290654 0.115841 0.251490
H4    H     H_    0.979757 0.260401 0.042190 0.208332
H5    H     H_    0.012107 0.213869 0.103604 0.253729
H6    H     H_    0.346900 0.209723 0.171967 0.247555
H7    H     H_    0.274146 0.273278 0.123412 0.160594
H8    H     H_    0.312996 0.202842 0.094385 0.180461
H9    H     H_    0.468580 0.196999 0.378268 0.132268
H10   H     H_    0.465311 0.257674 0.345419 0.128069
H11   H     H_    0.539413 0.185164 0.290801 0.246814
H12   H     H_    0.588640 0.172797 0.369515 0.192666
H13   H     H_    0.177383 0.968252 0.402637 0.167602
H14   H     H_    0.542328 0.125065 0.323489 0.251832
H15   H     H_    0.831373 0.061137 0.637822 0.184808
H16   H     H_    0.858087 0.986500 0.660197 0.159272
H17   H     H_    0.806366 0.049278 0.692858 0.189218
H18   H     H_    0.860733 0.630305 0.658352 0.151891
H19   H     H_    0.893261 0.577119 0.715066 0.156762
H20   H     H_    0.955995 0.605103 0.712035 0.194440
H21   H     H_    0.612468 0.897200 0.747593 0.159768
H22   H     H_    0.661564 0.852173 0.815057 0.209157
H23   H     H_    0.563653 0.895091 0.788348 0.184178
H24   H     H_    0.898423 0.279957 0.778084 0.174339
H25   H     H_    0.537118 0.818617 0.629327 0.164539
H26   H     H_    0.503761 0.778597 0.656621 0.168464
H27   H     H_    0.531700 0.697166 0.586310 0.248392
H28   H     H_    0.468187 0.767010 0.548721 0.221945
H29   H     H_    0.566125 0.737006 0.559832 0.251799
H30   H     H_    0.666459 0.684683 0.845788 0.152293
H31   H     H_    0.587211 0.743794 0.796107 0.183325
H32   H     H_    0.626376 0.756636 0.874002 0.182303
H33   H     H_    0.671389 0.140339 0.559792 0.194653
H34   H     H_    0.643209 0.159887 0.483909 0.154588
H35   H     H_    0.747093 0.901344 0.474386 0.160206
H36   H     H_    0.696082 0.194070 0.544492 0.188656
H37   H     H_    0.101949 0.213382 0.719673 0.070767
H38   H     H_    0.103139 0.159656 0.777162 0.027519
H39   H     H_    0.098990 0.225990 0.847342 0.051709
H40   H     H_    0.987811 0.335689 0.717820 0.187283
H41   H     H_    0.112403 0.301978 0.226174 0.224552
H42   H     H_    0.183747 0.223939 0.291649 0.209383
H43   H     H_    0.078991 0.735633 0.194718 0.200263
H44   H     H_    0.861923 0.927346 0.572247 0.162463
H45   H     H_    0.241274 0.150957 0.229314 0.057881
H46   H     H_    0.344427 0.268949 0.337674 0.043566
H47   H     H_    0.276245 0.337567 0.267127 0.150551
H48   H     H_    0.230115 0.269116 0.341503 0.193813
H49   H     H_    0.166442 0.342719 0.272422 0.181012
H50   H     H_    0.318013 0.293583 0.220157 0.182876
H51   H     H_    0.870176 0.749984 0.823641 0.210937
H52   H     H_    0.802609 0.814666 0.747378 0.204335
H53   H     H_    0.717806 0.718195 0.643631 0.179552
H54   H     H_    0.983186 0.773648 0.149508 0.171583
H55   H     H_    0.791295 0.743909 0.672544 0.206180
H56   H     H_    0.779000 0.648145 0.716588 0.067859
H57   H     H_    0.738566 0.854289 0.779580 0.167746
H58   H     H_    0.798378 0.782595 0.851788 0.197972
H59   H     H_    0.693015 0.686191 0.764473 0.073170
H60   H     H_    0.119362 0.669942 0.266613 0.060166
H61   H     H_    0.114256 0.729385 0.347607 0.116423
H62   H     H_    0.960628 0.843770 0.215879 0.120099
H63   H     H_    0.157909 0.748627 0.285127 0.122447
H64   H     H_    0.145131 0.803413 0.342256 0.144013
H65   H     H_    0.909484 0.774458 0.295943 0.192605
H66   H     H_    0.184918 0.862731 0.304841 0.252038
H67   H     H_    0.255822 0.788767 0.324455 0.193577
H68   H     H_    0.197110 0.808494 0.247756 0.252242
H69   H     H_    0.939581 0.680102 0.289099 0.166907
H70   H     H_    0.937704 0.624161 0.231984 0.202793
H71   H     H_    0.803019 0.651161 0.207242 0.261651
H72   H     H_    0.859499 0.631536 0.284191 0.204260
H73   H     H_    0.803974 0.708270 0.263048 0.250307
H74   H     H_    0.156139 0.616050 0.362322 0.140807
H75   H     H_    0.172609 0.574043 0.299089 0.144056
H76   H     H_    0.876705 0.831037 0.246056 0.155316
H77   H     H_    0.102481 0.516634 0.298904 0.247436
H78   H     H_    0.180393 0.511204 0.369069 0.198982
H79   H     H_    0.085406 0.558613 0.361530 0.243435
H80   H     H_    0.205940 0.153259 0.495978 0.158379
H81   H     H_    0.246638 0.138435 0.574999 0.158600
H82   H     H_    0.154521 0.194057 0.540634 0.185545
H83   H     H_    0.377581 0.937506 0.649485 0.164111
H84   H     H_    0.398665 0.882081 0.594616 0.172052
H85   H     H_    0.375672 0.866692 0.649140 0.183263
H86   H     H_    0.252806 0.862937 0.420652 0.161142
H87   H     H_    0.039866 0.717103 0.348479 0.191683
H88   H     H_    0.291156 0.844233 0.498368 0.195238
H89   H     H_    0.343489 0.805384 0.453825 0.181156
H90   H     H_    0.088613 0.220064 0.938792 0.121000
H91   H     H_    0.103952 0.151607 0.897282 0.137705
H92   H     H_    0.993211 0.145660 0.901444 0.256645
H93   H     H_    0.063541 0.147631 0.974101 0.185184
H94   H     H_    0.978989 0.213066 0.944154 0.243594
H95   H     H_    0.125771 0.075214 0.822286 0.130815
H96   H     H_    0.085929 0.069742 0.742417 0.151169
H97   H     H_    0.989165 0.043004 0.746696 0.232950
H98   H     H_    0.887408 0.771586 0.170299 0.116525
H99   H     H_    0.083167 0.992774 0.789861 0.204946
H100  H     H_    0.027801 0.049164 0.826292 0.247961
H101  H     H_    0.784354 0.291462 0.588492 0.170004
H102  H     H_    0.866461 0.231210 0.581703 0.163075
H103  H     H_    0.891274 0.300102 0.542648 0.281497
H104  H     H_    0.796782 0.304219 0.499904 0.197665
H105  H     H_    0.812724 0.361571 0.552666 0.240274
H106  H     H_    0.893329 0.196167 0.761981 0.215992
H107  H     H_    0.903106 0.145599 0.700297 0.204551
H108  H     H_    0.766872 0.174944 0.654855 0.261925
H109  H     H_    0.216809 0.068275 0.424414 0.149302
H110  H     H_    0.804475 0.149684 0.729498 0.204378
H111  H     H_    0.755831 0.227719 0.713154 0.261354
H112  H     H_    0.863444 0.392196 0.676072 0.195203
H113  H     H_    0.908302 0.411297 0.752920 0.139439
H114  H     H_    0.809782 0.441549 0.714775 0.169260
H115  H     H_    0.119363 0.224011 0.638098 0.141376
H116  H     H_    0.099431 0.296840 0.671607 0.182026
H117  H     H_    0.996567 0.340502 0.575279 0.250780
H118  H     H_    0.087204 0.301790 0.570740 0.193513
H119  H     H_    0.019643 0.267858 0.542025 0.256345
H120  H     H_    0.752931 0.972287 0.401705 0.150105
H121  H     H_    0.171648 0.231195 0.807074 0.115190
H122  H     H_    0.152780 0.289343 0.860892 0.173788
H123  H     H_    0.206326 0.287503 0.822318 0.187991
H124  H     H_    0.280139 0.096331 0.149186 0.159039
H125  H     H_    0.332538 0.058722 0.220050 0.132444
H126  H     H_    0.452610 0.041423 0.213936 0.251138
H127  H     H_    0.395695 0.010714 0.151049 0.189559
H128  H     H_    0.400399 0.079148 0.143536 0.245858
H129  H     H_    0.115048 0.193657 0.072003 0.170254
H130  H     H_    0.100645 0.270711 0.081647 0.168083
O1    O     O_R   0.034890 0.904800 0.474600 -0.588451
O2    O     O_R   0.007210 0.439780 0.060160 -0.579450
O3    O     O_R   0.052870 0.560410 0.060140 -0.584414
O4    O     O_R   0.965100 0.974640 0.404830 -0.584933
O5    O     O_R   0.946890 0.560400 0.060170 -0.572114
O6    O     O_R   0.992540 0.560460 0.939590 -0.572976
O7    O     O_R   0.886560 0.560450 0.939620 -0.580597
O8    O     O_R   0.052860 0.439850 0.939580 -0.578481
O9    O     O_R   0.946880 0.439830 0.939610 -0.572272
O10   O     O_R   0.943320 0.965090 0.534890 -0.603747
O11   O     O_R   0.873530 0.034930 0.465120 -0.571150
O12   O     O_R   0.439770 0.025360 0.404880 -0.579941
O13   O     O_R   0.034900 0.025360 0.595170 -0.593498
O14   O     O_R   0.965110 0.095200 0.525400 -0.565520
O15   O     O_R   0.126470 0.965070 0.534880 -0.555107
O16   O     O_R   0.056680 0.034910 0.465110 -0.570360
O17   O     O_R   0.439750 0.095160 0.474640 -0.594336
O18   O     O_3   0.068842 0.831624 0.257352 -0.560751
O19   O     O_3   0.876904 0.709243 0.200140 -0.578079
O20   O     O_3   0.061444 0.630463 0.282867 -0.605290
O21   O     O_3   0.160883 0.109130 0.523085 -0.567116
O22   O     O_3   0.285707 0.922881 0.583517 -0.563011
O23   O     O_R   0.591620 0.034840 0.534930 -0.559533
O24   O     O_3   0.340119 0.889135 0.477039 -0.569866
O25   O     O_3   0.006287 0.225020 0.854517 -0.555000
O26   O     O_3   0.019473 0.139654 0.779455 -0.567818
O27   O     O_3   0.887141 0.294293 0.647280 -0.570482
O28   O     O_3   0.853295 0.234111 0.679625 -0.627395
O29   O     O_3   0.851686 0.355417 0.738506 -0.546675
O30   O     O_3   0.016485 0.263142 0.646258 -0.531340
O31   O     O_3   0.092939 0.316565 0.773601 -0.579487
O32   O     O_3   0.338682 0.139084 0.219493 -0.535275
O33   O     O_3   0.145222 0.221727 0.158898 -0.647625
O34   O     O_R   0.591640 0.965040 0.465170 -0.595427
O35   O     O_3   0.238423 0.209610 0.127841 -0.619650
O36   O     O_3   0.404576 0.209435 0.287834 -0.533061
O37   O     O_3   0.744476 0.031026 0.608444 -0.571521
O38   O     O_3   0.877914 0.663427 0.744071 -0.550141
O39   O     O_3   0.592538 0.821244 0.739343 -0.605548
O40   O     O_3   0.618432 0.740690 0.677445 -0.660410
O41   O     O_3   0.691766 0.750578 0.830925 -0.575762
O42   O     O_3   0.756976 0.108504 0.528499 -0.589169
O43   O     O_R   0.560340 0.974530 0.595230 -0.580076
O44   O     O_R   0.560360 0.904730 0.525470 -0.579021
O45   O     O_R   0.408470 0.034850 0.534940 -0.605766
O46   O     O_R   0.408490 0.965050 0.465180 -0.548978
O47   O     O_R   0.113190 0.439800 0.060140 -0.583562

loop_
_geom_bond_atom_site_label_1
_geom_bond_atom_site_label_2
_ccdc_geom_bond_type
C96   H88   S    
C87   C88   S    
C108  H119  S    
C34   H24   S    
C1    C21   S    
C111  H127  S    
C46   C52   S    
C27   C29   S    
C89   H70   S    
C89   H69   S    
C48   C76   S    
C6    O36   S    
C50   O45   A    
C38   H39   S    
C91   H71   S    
C63   C65   S    
C109  O31   S    
C99   O26   S    
C2    C57   S    
C39   C41   S    
C93   H78   S    
C77   C78   S    
C55   O9    A    
C95   H85   S    
C91   H72   S    
C5    H7    S    
C100  H97   S    
C26   C27   S    
C29   C30   S    
C3    H130  S    
C3    H129  S    
C83   C84   T    
C72   H55   S    
C49   C84   S    
C52   C85   S    
C42   H37   S    
C6    H10   S    
C89   O19   S    
C56   H42   S    
C103  H105  S    
C85   C86   S    
C30   C31   S    
C8    O37   S    
Cu6   O9    S    
C78   C80   S    
C88   H67   S    
Cu4   O46   S    
C33   O27   S    
C18   H65   S    
C79   H54   S    
C28   O14   A    
C11   C12   S    
C14   H31   S    
C64   H1    S    
C13   C79   S    
C14   H32   S    
C94   H82   S    
Cu2   O16   S    
C105  H111  S    
C12   H29   S    
C37   C42   S    
C2    C13   S    
Cu3   O17   S    
C110  C111  S    
C104  C105  S    
C51   O47   A    
C32   O26   S    
C106  H114  S    
C54   C74   S    
C92   O20   S    
C40   O15   A    
C61   C66   S    
C17   H98   S    
C93   H77   S    
C60   C67   T    
C14   O41   S    
C95   H83   S    
C28   O13   A    
C56   H48   S    
C8    H15   S    
C107  C108  S    
C62   H41   S    
C95   O22   S    
C35   C64   S    
C41   O31   S    
C2    H60   S    
C105  H108  S    
C7    H11   S    
C89   C91   S    
C104  H106  S    
C7    H14   S    
C92   H74   S    
C111  H128  S    
C103  H103  S    
C99   H95   S    
C10   H21   S    
C68   C79   S    
C105  H110  S    
C41   C42   S    
C87   H63   S    
C108  H118  S    
C48   O23   A    
C77   H58   S    
C59   O33   S    
C18   H76   S    
C73   H56   S    
C54   O7    A    
C49   O43   A    
C69   C70   T    
C10   H23   S    
Cu5   Cu6   S    
C74   C82   T    
C72   C75   S    
C15   H36   S    
Cu3   O23   S    
C15   H34   S    
Cu1   Cu2   S    
C98   H92   S    
Cu6   O5    S    
C97   C98   S    
C108  H117  S    
Cu5   O6    S    
C109  H122  S    
C25   C29   S    
C15   H33   S    
C91   H73   S    
C63   C67   S    
C28   C45   S    
C80   O41   S    
C24   C35   S    
Cu3   O43   S    
C22   C31   S    
C13   C19   S    
C8    H17   S    
C34   C39   S    
C29   O24   S    
C23   C30   S    
C24   O37   S    
Cu4   O34   S    
C106  O29   S    
C68   C101  S    
C80   H59   S    
C52   C64   S    
C16   C46   S    
C79   H43   S    
C42   O30   S    
Cu6   O2    S    
C75   C81   S    
C88   H66   S    
C39   C43   S    
C20   C101  S    
C33   O28   S    
C25   C26   S    
C30   H13   S    
C34   O29   S    
C14   H30   S    
C15   O42   S    
C33   C37   S    
C57   H61   S    
C5    O35   S    
C106  H113  S    
C96   O24   S    
C53   O5    A    
C72   H53   S    
C12   H28   S    
C9    H18   S    
C47   C70   S    
C62   C63   S    
C25   C50   S    
C22   O21   S    
Cu1   O10   S    
C32   H38   S    
C16   O11   A    
Cu6   O7    S    
C78   C82   S    
C96   H89   S    
C99   C100  S    
C73   C78   S    
Cu5   O47   S    
C20   C21   T    
C71   H52   S    
C17   C18   S    
C64   C76   S    
C4    H5    S    
C55   O8    A    
C86   H44   S    
Cu2   O14   S    
C32   C37   S    
C26   H2    S    
C104  O28   S    
C6    H9    S    
C68   O18   S    
C77   H51   S    
C102  H102  S    
C87   O18   S    
C81   O40   S    
C52   H120  S    
C88   H68   S    
C27   O22   S    
C59   O35   S    
C100  H100  S    
C98   H93   S    
C32   C38   S    
C27   C31   S    
Cu4   O44   S    
C54   O6    A    
C41   H40   S    
C80   C81   S    
C49   O44   A    
C93   H79   S    
Cu2   O11   S    
C107  O30   S    
C47   O12   A    
C3    C4    S    
C58   H45   S    
C109  H121  S    
C71   C77   S    
C23   H109  S    
C94   O21   S    
C44   C45   T    
C96   H86   S    
C110  O32   S    
C109  H123  S    
C61   C69   S    
Cu1   O1    S    
C5    H6    S    
C100  H99   S    
C111  H126  S    
C10   O39   S    
C62   H49   S    
C8    H16   S    
C56   C61   S    
Cu3   O45   S    
C24   C76   S    
C72   C73   S    
C1    O1    A    
C87   H64   S    
C4    H4    S    
C48   O34   A    
C1    O4    A    
C97   O25   S    
Cu3   Cu4   S    
C6    C7    S    
C51   C60   S    
C13   C17   S    
C47   O17   A    
C95   H84   S    
C57   C101  S    
C98   H94   S    
C65   H50   S    
C68   H62   S    
C59   C63   S    
C35   O42   S    
Cu2   O4    S    
C106  H112  S    
C9    O38   S    
C94   H80   S    
C102  H101  S    
C37   C44   S    
C57   H87   S    
C58   C59   S    
C85   H35   S    
C9    H20   S    
C36   C55   S    
Cu4   O12   S    
Cu1   O13   S    
C71   C75   S    
C16   O10   A    
C110  H124  S    
C75   C83   S    
C3    O33   S    
C38   C39   S    
C38   O25   S    
C58   C61   S    
C2    O20   S    
C65   H47   S    
C92   C93   S    
C40   O16   A    
C33   C34   S    
C66   H46   S    
C56   C62   S    
C53   O3    A    
C23   C25   S    
C97   H91   S    
C107  H116  S    
C102  C103  S    
C51   O2    A    
C11   H25   S    
C7    H12   S    
C17   O19   S    
C11   H26   S    
C99   H96   S    
C110  H125  S    
C11   O40   S    
C9    H19   S    
C12   H27   S    
C97   H90   S    
C10   H22   S    
C104  H107  S    
C58   O32   S    
C102  O27   S    
C65   C66   S    
C22   C26   S    
C5    H8    S    
C53   C90   S    
C19   C90   T    
C73   O38   S    
C22   C23   S    
C4    H3    S    
C36   C43   T    
C81   O39   S    
Cu5   O3    S    
C31   C40   S    
C94   H81   S    
C107  H115  S    
C35   C46   S    
C24   C86   S    
C76   C85   S    
C18   C101  S    
C71   H57   S    
C103  H104  S    
C92   H75   S    
C50   O46   A    
Cu1   O15   S    
C46   C86   S    
Cu5   O8    S    
C66   O36   S    
