data_mof_unit_42591.cif
_audit_creation_date              2012-12-11T14:42:18-0500
_audit_creation_method            fapswitch 2.2
_symmetry_space_group_name_H-M    P1
_symmetry_Int_Tables_number       1
_space_group_crystal_system       triclinic
_cell_length_a                    18.996621
_cell_length_b                    10.958143
_cell_length_c                    18.880215
_cell_angle_alpha                 89.694516
_cell_angle_beta                  89.311548
_cell_angle_gamma                 89.852451
_cell_volume                      3929.89876298

loop_
_atom_site_label
_atom_site_type_symbol
_atom_type_description
_atom_site_fract_x
_atom_site_fract_y
_atom_site_fract_z
_atom_type_partial_charge
C1    C     C_R   0.727275 0.953603 0.853189 0.548377
C2    C     C_R   0.245845 0.410177 0.924585 0.034002
C3    C     C_3   0.872934 0.983632 0.913628 -0.373964
C4    C     C_3   0.891971 0.361520 0.049895 -0.374857
C5    C     C_3   0.135646 0.273456 0.935710 -0.381274
C6    C     C_3   0.392000 0.861702 0.049871 -0.374760
C7    C     C_3   0.635707 0.773281 0.935637 -0.381219
C8    C     C_3   0.490833 0.471654 0.562034 -0.299525
C9    C     C_3   0.628122 0.317713 0.363224 -0.279543
C10   C     C_3   0.874211 0.823337 0.637207 -0.278216
C11   C     C_3   0.012119 0.970043 0.435623 -0.299188
C12   C     C_3   0.890951 0.341705 0.581523 -0.373905
C13   C     C_R   0.261301 0.924094 0.071485 0.042956
C14   C     C_3   0.120626 0.312861 0.431280 -0.379811
C15   C     C_3   0.379367 0.811394 0.568949 -0.379659
C16   C     C_3   0.609041 0.843468 0.418742 -0.374515
C17   C     C_R   0.745891 0.910026 0.924527 0.032434
C18   C     C_R   0.819146 0.396523 0.025519 -0.019835
C19   C     C_R   0.192931 0.352690 0.966023 -0.027245
C20   C     C_R   0.319168 0.896641 0.025487 -0.019546
C21   C     C_R   0.692996 0.852489 0.965962 -0.027729
C22   C     C_R   0.809750 0.399481 0.953555 -0.127194
C23   C     C_R   0.195162 0.361699 0.038555 -0.128797
C24   C     C_R   0.309772 0.899559 0.953524 -0.127075
C25   C     C_R   0.275146 0.958577 0.144882 0.548505
C26   C     C_R   0.695230 0.861470 0.038496 -0.128770
C27   C     C_R   0.743382 0.412691 0.924877 0.008040
C28   C     C_R   0.254372 0.406740 0.072950 0.010932
C29   C     C_R   0.243404 0.912772 0.924842 0.008174
C30   C     C_R   0.754419 0.906584 0.072897 0.010708
C31   C     C_R   0.536266 0.277879 0.522748 0.150045
C32   C     C_R   0.537968 0.263254 0.449472 0.146730
C33   C     C_R   0.962526 0.765044 0.549932 0.146607
C34   C     C_R   0.964224 0.778689 0.476536 0.151661
C35   C     C_R   0.504916 0.161162 0.421476 0.027276
C36   C     C_R   0.227257 0.453656 0.853219 0.543591
C37   C     C_R   0.518493 0.176041 0.566749 0.026067
C38   C     C_R   0.980937 0.675531 0.433469 0.025897
C39   C     C_R   0.994801 0.662236 0.578805 0.027022
C40   C     C_R   0.486972 0.061150 0.464477 -0.180716
C41   C     C_R   0.497103 0.066894 0.536613 -0.195446
C42   C     C_R   0.001257 0.566000 0.464658 -0.195742
C43   C     C_R   0.011538 0.560897 0.536803 -0.179493
C44   C     C_R   0.828711 0.401970 0.545966 -0.000271
C45   C     C_R   0.187164 0.360680 0.464811 -0.000192
C46   C     C_R   0.312753 0.859813 0.535258 0.000703
C47   C     C_R   0.775132 0.458528 0.144906 0.553079
C48   C     C_R   0.671452 0.902168 0.454152 -0.001433
C49   C     C_R   0.836284 0.430224 0.474258 -0.107105
C50   C     C_R   0.188371 0.363212 0.537658 -0.106668
C51   C     C_R   0.311223 0.861201 0.462431 -0.107538
C52   C     C_R   0.663954 0.930503 0.525758 -0.106327
C53   C     C_R   0.530316 0.176942 0.851136 0.544910
C54   C     C_R   0.470934 0.178785 0.149695 0.544510
C55   C     C_R   0.030289 0.676942 0.851119 0.539581
C56   C     C_R   0.970911 0.678788 0.149679 0.549716
C57   C     C_R   0.782751 0.489382 0.437200 0.000963
C58   C     C_R   0.693163 0.440306 0.043700 -0.002930
C59   C     C_R   0.242347 0.422509 0.573787 0.017230
C60   C     C_R   0.257417 0.921402 0.426061 0.016564
C61   C     C_R   0.717606 0.988941 0.562569 0.001010
C62   C     C_R   0.725348 0.537307 0.475354 -0.155111
C63   C     C_R   0.299214 0.471605 0.535998 -0.145371
C64   C     C_R   0.200838 0.971977 0.463561 -0.145461
C65   C     C_R   0.775028 0.036143 0.524050 -0.155126
C66   C     C_R   0.717243 0.511033 0.547699 -0.161217
C67   C     C_R   0.302562 0.459298 0.462788 -0.145651
C68   C     C_R   0.197599 0.960390 0.536830 -0.146041
C69   C     C_R   0.307870 0.452938 0.957625 0.002027
C70   C     C_R   0.782988 0.009790 0.451803 -0.159608
C71   C     C_R   0.763971 0.431182 0.581442 0.035011
C72   C     C_R   0.247402 0.402273 0.426515 0.041725
C73   C     C_R   0.252682 0.902761 0.573366 0.041897
C74   C     C_R   0.736150 0.930553 0.418458 0.034976
C75   C     C_R   0.736749 0.363711 0.853283 0.545191
C76   C     C_R   0.262371 0.364259 0.146575 0.543750
C77   C     C_R   0.236756 0.863731 0.853271 0.545742
C78   C     C_R   0.762383 0.864223 0.146556 0.543022
C79   C     C_R   0.709276 0.003150 0.640042 0.558981
C80   C     C_R   0.193183 0.940469 0.043644 -0.002750
C81   C     C_R   0.272288 0.955561 0.352982 0.545486
C82   C     C_R   0.227628 0.456160 0.646913 0.544056
C83   C     C_R   0.790965 0.503431 0.359760 0.560851
C84   C     C_R   0.534814 0.178218 0.641693 0.552867
C85   C     C_R   0.471273 0.174754 0.353946 0.566571
C86   C     C_R   0.028692 0.675225 0.646137 0.566540
C87   C     C_R   0.965069 0.677818 0.358384 0.551652
C88   C     C_R   0.742004 0.366783 0.647669 0.539642
C89   C     C_R   0.259926 0.361342 0.354008 0.549181
C90   C     C_R   0.240114 0.861889 0.646019 0.548984
C91   C     C_R   0.807922 0.952749 0.957558 0.001814
C92   C     C_R   0.757981 0.866426 0.352315 0.538831
C93   C     C_2   0.503129 0.163637 0.923329 -0.124849
C94   C     C_2   0.501838 0.178652 0.078802 -0.111327
C95   C     C_2   0.003083 0.663640 0.923303 -0.124592
C96   C     C_2   0.001805 0.678658 0.078780 -0.111588
C97   C     C_2   0.521986 0.078994 0.044182 -0.176426
C98   C     C_2   0.535577 0.084335 0.967422 -0.156925
C99   C     C_2   0.021923 0.578991 0.044153 -0.176404
C100  C     C_2   0.035528 0.584344 0.967399 -0.156522
C101  C     C_R   0.684282 0.440459 0.969471 -0.000454
C102  C     C_R   0.761284 0.423981 0.071523 0.041580
C103  C     C_R   0.310480 0.457991 0.032506 0.003960
C104  C     C_R   0.184308 0.940608 0.969420 -0.000693
C105  C     C_R   0.810533 0.957814 0.032443 0.004132
C106  C     C_3   0.611421 0.461774 0.939944 -0.367072
C107  C     C_3   0.372200 0.518091 0.068274 -0.377062
C108  C     C_3   0.111450 0.961945 0.939878 -0.367043
C109  C     C_3   0.872251 0.017929 0.068202 -0.377065
C110  C     C_3   0.629731 0.449577 0.093257 -0.370401
C111  C     C_3   0.372890 0.483859 0.913722 -0.373957
C112  C     C_3   0.129735 0.949793 0.093168 -0.370413
Cr1   Cr    Cr6+3 0.769270 0.163730 0.750710 0.986668
Cr2   Cr    Cr6+3 0.385840 0.322500 0.252290 1.011192
Cr3   Cr    Cr6+3 0.114160 0.822500 0.747710 1.008578
Cr4   Cr    Cr6+3 0.885840 0.822500 0.252290 1.010125
Cr5   Cr    Cr6+3 0.230730 0.163730 0.249290 0.999018
Cr6   Cr    Cr6+3 0.269270 0.663730 0.750710 0.998740
Cr7   Cr    Cr6+3 0.730730 0.663730 0.249290 0.987570
Cr8   Cr    Cr6+3 0.612620 0.009790 0.748780 0.993191
Cr9   Cr    Cr6+3 0.387380 0.009790 0.251220 0.994538
Cr10  Cr    Cr6+3 0.112620 0.509790 0.748780 0.996499
Cr11  Cr    Cr6+3 0.887380 0.509790 0.251220 0.990723
Cr12  Cr    Cr6+3 0.614160 0.322500 0.747710 1.007791
H1    H     H_    0.530027 0.993441 0.072222 0.125132
H2    H     H_    0.340384 0.519776 0.562923 0.107700
H3    H     H_    0.159914 0.021076 0.436334 0.108211
H4    H     H_    0.814800 0.089162 0.550049 0.124297
H5    H     H_    0.672491 0.547685 0.576553 0.126939
H6    H     H_    0.348907 0.492232 0.434782 0.129204
H7    H     H_    0.151454 0.994397 0.564698 0.128418
H8    H     H_    0.827448 0.046577 0.422538 0.126525
H9    H     H_    0.500471 0.265307 0.050895 0.097409
H10   H     H_    0.463500 0.227491 0.942184 0.094472
H11   H     H_    0.000471 0.765325 0.050881 0.096920
H12   H     H_    0.575910 0.023588 0.947198 0.160603
H13   H     H_    0.963445 0.727482 0.942151 0.094399
H14   H     H_    0.854676 0.381695 0.919042 0.136639
H15   H     H_    0.151558 0.323034 0.068612 0.138221
H16   H     H_    0.354695 0.881741 0.919013 0.137143
H17   H     H_    0.651633 0.822772 0.068547 0.138199
H18   H     H_    0.462033 0.981032 0.442883 0.140798
H19   H     H_    0.486303 0.987963 0.569308 0.123680
H20   H     H_    0.011285 0.486288 0.432766 0.123067
H21   H     H_    0.035791 0.480116 0.559122 0.140643
H22   H     H_    0.613047 0.514070 0.889632 0.151208
H23   H     H_    0.029956 0.493431 0.072188 0.125571
H24   H     H_    0.585567 0.372722 0.933744 0.170459
H25   H     H_    0.577264 0.516955 0.975283 0.090459
H26   H     H_    0.354256 0.568128 0.116199 0.140911
H27   H     H_    0.412070 0.448421 0.082476 0.161250
H28   H     H_    0.397880 0.587193 0.033687 0.106329
H29   H     H_    0.113086 0.014206 0.889556 0.151059
H30   H     H_    0.085574 0.872905 0.933698 0.170779
H31   H     H_    0.077298 0.017172 0.975196 0.090487
H32   H     H_    0.854301 0.068012 0.116107 0.141174
H33   H     H_    0.912107 0.948260 0.082435 0.161112
H34   H     H_    0.075877 0.523624 0.947185 0.161016
H35   H     H_    0.897946 0.086991 0.033598 0.106320
H36   H     H_    0.614407 0.546694 0.100142 0.138227
H37   H     H_    0.584731 0.398262 0.072448 0.115369
H38   H     H_    0.639607 0.406875 0.145639 0.139761
H39   H     H_    0.377342 0.584296 0.906990 0.150747
H40   H     H_    0.421033 0.448263 0.939552 0.107163
H41   H     H_    0.371930 0.439519 0.861019 0.140625
H42   H     H_    0.114424 0.046920 0.100034 0.137673
H43   H     H_    0.084734 0.898475 0.072351 0.115228
H44   H     H_    0.139588 0.907098 0.145549 0.141860
H45   H     H_    0.883793 0.402137 0.446453 0.133998
H46   H     H_    0.877402 0.084066 0.906894 0.151192
H47   H     H_    0.921078 0.948016 0.939445 0.107388
H48   H     H_    0.871943 0.939301 0.860916 0.138886
H49   H     H_    0.889032 0.282673 0.086778 0.143392
H50   H     H_    0.928030 0.335058 0.005760 0.095405
H51   H     H_    0.915709 0.440019 0.076360 0.186040
H52   H     H_    0.158070 0.215132 0.893145 0.148706
H53   H     H_    0.112894 0.212450 0.976882 0.106456
H54   H     H_    0.091291 0.328269 0.915094 0.149986
H55   H     H_    0.389085 0.782845 0.086748 0.143062
H56   H     H_    0.143667 0.324792 0.566081 0.132728
H57   H     H_    0.428076 0.835287 0.005740 0.095419
H58   H     H_    0.415705 0.940221 0.076345 0.186555
H59   H     H_    0.658104 0.715062 0.893010 0.149189
H60   H     H_    0.613010 0.712175 0.976786 0.106518
H61   H     H_    0.591326 0.828122 0.915104 0.150031
H62   H     H_    0.592190 0.438400 0.526912 0.241417
H63   H     H_    0.506888 0.557356 0.588407 0.127615
H64   H     H_    0.451055 0.425282 0.596274 0.166651
H65   H     H_    0.467163 0.495013 0.510137 0.121549
H66   H     H_    0.565674 0.444205 0.418505 0.241275
H67   H     H_    0.355667 0.821691 0.434142 0.132120
H68   H     H_    0.638678 0.385011 0.320426 0.173863
H69   H     H_    0.620326 0.227545 0.337890 0.139556
H70   H     H_    0.673989 0.312216 0.399013 0.157590
H71   H     H_    0.936097 0.947390 0.579045 0.240292
H72   H     H_    0.864824 0.891991 0.679159 0.172756
H73   H     H_    0.882222 0.733715 0.663764 0.139310
H74   H     H_    0.827587 0.817548 0.602496 0.157986
H75   H     H_    0.910329 0.941962 0.470742 0.240408
H76   H     H_    0.997248 0.055978 0.408128 0.127676
H77   H     H_    0.051510 0.921310 0.402176 0.166780
H78   H     H_    0.616306 0.903289 0.553657 0.134881
H79   H     H_    0.035719 0.993228 0.487397 0.121783
H80   H     H_    0.938497 0.341614 0.546860 0.094518
H81   H     H_    0.904209 0.391690 0.630589 0.148223
H82   H     H_    0.880379 0.244576 0.593653 0.148253
H83   H     H_    0.075639 0.310481 0.469385 0.082471
H84   H     H_    0.105169 0.372640 0.386412 0.146478
H85   H     H_    0.128257 0.218115 0.412695 0.154303
H86   H     H_    0.424444 0.809813 0.530934 0.082505
H87   H     H_    0.394584 0.870307 0.613851 0.146133
H88   H     H_    0.371902 0.716328 0.587571 0.154219
H89   H     H_    0.685589 0.590560 0.448960 0.125237
H90   H     H_    0.561532 0.843735 0.453452 0.095748
H91   H     H_    0.595897 0.894396 0.369615 0.148132
H92   H     H_    0.619325 0.746380 0.406676 0.148003
N1    N     N_2   0.551714 0.393975 0.551919 -0.474847
N2    N     N_2   0.565990 0.354496 0.402699 -0.510017
N3    N     N_2   0.935602 0.857944 0.595853 -0.510065
N4    N     N_2   0.950282 0.895317 0.446336 -0.473780
O1    O     O_R   0.784320 0.290430 0.830510 -0.525622
O2    O     O_R   0.456080 0.282180 0.333210 -0.481164
O3    O     O_R   0.043920 0.782180 0.666790 -0.480660
O4    O     O_R   0.956080 0.782180 0.333210 -0.479162
O5    O     O_R   0.679040 0.374160 0.674430 -0.489706
O6    O     O_R   0.320960 0.374160 0.325570 -0.505609
O7    O     O_R   0.179040 0.874160 0.674430 -0.505135
O8    O     O_R   0.820960 0.874160 0.325570 -0.490167
O9    O     O_3   0.665350 0.165340 0.749070 -0.258124
O10   O     O_3   0.334650 0.165340 0.250930 -0.239147
O11   O     O_3   0.165350 0.665340 0.749070 -0.238789
O12   O     O_R   0.215680 0.290430 0.169490 -0.529093
O13   O     O_3   0.834650 0.665340 0.250930 -0.259306
O14   O     O_R   0.762640 0.040960 0.825200 -0.498851
O15   O     O_R   0.237360 0.040960 0.174800 -0.502136
O16   O     O_R   0.262640 0.540960 0.825200 -0.501568
O17   O     O_R   0.737360 0.540960 0.174800 -0.499075
O18   O     O_R   0.667400 0.923970 0.829950 -0.525649
O19   O     O_R   0.332600 0.923970 0.170050 -0.534266
O20   O     O_R   0.167400 0.423970 0.829950 -0.529399
O21   O     O_R   0.832600 0.423970 0.170050 -0.530324
O22   O     O_R   0.553960 0.081340 0.821780 -0.494919
O23   O     O_R   0.284320 0.790430 0.830510 -0.525936
O24   O     O_R   0.446040 0.081340 0.178220 -0.505923
O25   O     O_R   0.053960 0.581340 0.821780 -0.498568
O26   O     O_R   0.946040 0.581340 0.178220 -0.502377
O27   O     O_R   0.543180 0.283240 0.826740 -0.531861
O28   O     O_R   0.456820 0.283240 0.173260 -0.532516
O29   O     O_R   0.043180 0.783240 0.826740 -0.532898
O30   O     O_R   0.956820 0.783240 0.173260 -0.531663
O31   O     O_R   0.678360 0.375140 0.822710 -0.509910
O32   O     O_R   0.321640 0.375140 0.177290 -0.504566
O33   O     O_R   0.178360 0.875140 0.822710 -0.510854
O34   O     O_R   0.715680 0.790430 0.169490 -0.528813
O35   O     O_R   0.821640 0.875140 0.177290 -0.503524
O36   O     O_R   0.785050 0.289380 0.670560 -0.535985
O37   O     O_R   0.214950 0.289380 0.329440 -0.527100
O38   O     O_R   0.285050 0.789380 0.670560 -0.526994
O39   O     O_R   0.714950 0.789380 0.329440 -0.536255
O40   O     O_R   0.763320 0.039990 0.676930 -0.520683
O41   O     O_R   0.236680 0.039990 0.323070 -0.504985
O42   O     O_R   0.263320 0.539990 0.676930 -0.505750
O43   O     O_R   0.736680 0.539990 0.323070 -0.519093
O44   O     O_R   0.668130 0.922920 0.670000 -0.527306
O45   O     O_R   0.554640 0.080370 0.673500 -0.531825
O46   O     O_R   0.331870 0.922920 0.330000 -0.530832
O47   O     O_R   0.168130 0.422920 0.670000 -0.532298
O48   O     O_R   0.831870 0.422920 0.330000 -0.526378
O49   O     O_R   0.445360 0.080370 0.326500 -0.521792
O50   O     O_R   0.054640 0.580370 0.673500 -0.521748
O51   O     O_R   0.945360 0.580370 0.326500 -0.532364
O52   O     O_R   0.543920 0.282180 0.666790 -0.479486

loop_
_geom_bond_atom_site_label_1
_geom_bond_atom_site_label_2
_ccdc_geom_bond_type
C44   C49   A    
C9    N2    S    
Cr9   O24   S    
Cr7   O39   S    
C21   C26   A    
C10   H73   S    
C81   O41   A    
C40   H18   S    
C6    H55   S    
C16   H91   S    
C35   C85   S    
C91   C105  A    
C83   O43   A    
C17   C91   A    
C59   C82   S    
Cr11  O21   S    
C89   O6    A    
C109  H33   S    
C39   C86   S    
C16   C48   S    
C9    H68   S    
H71   N3    S    
Cr12  O5    S    
C110  H38   S    
C49   C57   A    
C57   C62   A    
C88   O36   A    
C24   H16   S    
Cr10  O11   S    
C33   C39   A    
Cr4   O30   S    
C7    H60   S    
C80   C104  A    
C111  H40   S    
C50   C59   A    
C64   C68   A    
C30   C78   S    
Cr3   O3    S    
C83   O48   A    
C24   C29   A    
C73   C90   S    
C41   H19   S    
Cr12  O31   S    
C14   H84   S    
C52   C61   A    
C11   H77   S    
C34   N4    S    
C3    H48   S    
C97   H1    S    
Cr5   O15   S    
C74   C92   S    
C65   C70   A    
C112  H44   S    
C96   C99   D    
C98   H12   S    
Cr5   O10   S    
C94   H9    S    
C106  H24   S    
C44   C71   A    
C3    C91   S    
C67   C72   A    
C18   C102  A    
C85   O49   A    
C16   H92   S    
C109  H32   S    
C11   H76   S    
Cr8   O45   S    
C15   H87   S    
C8    N1    S    
C87   O51   A    
C47   O17   A    
C107  H26   S    
C60   C64   A    
Cr11  O48   S    
Cr7   O13   S    
Cr10  O20   S    
C108  H29   S    
C20   C24   A    
Cr8   O44   S    
C4    H51   S    
C56   O30   A    
Cr4   O13   S    
C82   O42   A    
C57   C83   S    
C37   C84   S    
C82   O47   A    
C111  H41   S    
Cr1   O40   S    
C54   O28   A    
C14   C45   S    
C2    C69   A    
C85   O2    A    
C8    H65   S    
C9    H69   S    
Cr3   O11   S    
C36   O20   A    
C14   H85   S    
C111  H39   S    
C66   H5    S    
C4    C18   S    
C80   C112  S    
C33   N3    S    
C23   H15   S    
C13   C80   A    
C112  H42   S    
C47   C102  S    
Cr11  O13   S    
C14   H83   S    
C45   C72   A    
C79   O44   A    
C13   C25   S    
C75   O31   A    
H66   N2    S    
C70   H8    S    
C34   C38   A    
C110  H37   S    
C10   N3    S    
C97   C98   S    
C96   H11   S    
C70   C74   A    
C107  H27   S    
C69   C103  A    
C8    H63   S    
Cr1   O14   S    
H62   N1    S    
C63   C67   A    
C95   H13   S    
Cr1   O36   S    
C84   O52   A    
C6    H57   S    
C53   C93   S    
C78   O34   A    
C32   C35   A    
C48   C74   A    
C90   O7    A    
C77   O33   A    
C53   O22   A    
C86   O50   A    
C77   O23   A    
C93   H10   S    
C47   O21   A    
C62   C66   A    
C95   C100  D    
C10   H74   S    
C11   H79   S    
C94   C97   D    
C68   C73   A    
Cr9   O19   S    
C112  H43   S    
C56   O26   A    
C46   C51   A    
C27   C101  A    
C17   C21   A    
C31   C37   A    
C29   C104  A    
C76   O12   A    
C12   H82   S    
Cr4   O4    S    
C68   H7    S    
C50   H56   S    
C53   O27   A    
C90   O38   A    
Cr3   O7    S    
C15   H88   S    
C43   H21   S    
C86   O3    A    
C10   H72   S    
Cr2   O6    S    
Cr5   O37   S    
C60   C81   S    
C66   C71   A    
Cr6   O42   S    
C88   O5    A    
C1    O14   A    
C64   H3    S    
Cr2   O32   S    
C65   H4    S    
C9    H70   S    
C55   O29   A    
C33   C34   A    
C89   O37   A    
C58   C101  A    
Cr8   O22   S    
C23   C28   A    
Cr2   O2    S    
C75   O1    A    
C16   H90   S    
C5    H53   S    
Cr10  O25   S    
C5    C19   S    
C107  H28   S    
C55   C95   S    
C40   C41   A    
Cr2   O28   S    
C6    H58   S    
C26   C30   A    
C4    H49   S    
C30   C105  A    
C42   H20   S    
C81   O46   A    
C62   H89   S    
C67   H6    S    
C42   C43   A    
C79   O40   A    
C26   H17   S    
Cr7   O34   S    
Cr9   O49   S    
C104  C108  S    
C92   O39   A    
C51   H67   S    
Cr6   O23   S    
C19   C23   A    
C76   O32   A    
C103  C107  S    
C2    C36   S    
C101  C106  S    
C56   C96   S    
Cr6   O16   S    
C99   H23   S    
C28   C76   S    
Cr12  O52   S    
C25   O15   A    
Cr9   O10   S    
C13   C20   A    
C2    C19   A    
C58   C110  S    
C59   C63   A    
C7    H61   S    
C31   C32   A    
Cr7   O17   S    
H75   N4    S    
Cr12  O9    S    
Cr11  O51   S    
Cr10  O47   S    
C27   C75   S    
Cr9   O46   S    
Cr2   O10   S    
Cr11  O26   S    
C39   C43   A    
C3    H46   S    
Cr1   O9    S    
Cr1   O1    S    
Cr3   O29   S    
C1    O18   A    
C36   O16   A    
C6    C20   S    
C22   H14   S    
Cr5   O12   S    
C1    C17   S    
C106  H22   S    
C99   C100  S    
C7    H59   S    
C38   C87   S    
C22   C27   A    
Cr3   O33   S    
C87   O4    A    
Cr12  O27   S    
C18   C22   A    
C35   C40   A    
Cr5   O41   S    
C12   C44   S    
C78   O35   A    
C7    C21   S    
C12   H81   S    
Cr7   O43   S    
C72   C89   S    
C69   C111  S    
C28   C103  A    
C3    H47   S    
C108  H31   S    
C105  C109  S    
C45   C50   A    
C61   C79   S    
C58   C102  A    
C93   C98   D    
Cr8   O18   S    
C5    H52   S    
C84   O45   A    
C52   H78   S    
C12   H80   S    
C61   C65   A    
C37   C41   A    
C110  H36   S    
C5    H54   S    
C54   C94   S    
C63   H2    S    
C49   H45   S    
Cr10  O50   S    
C71   C88   S    
Cr6   O11   S    
C38   C42   A    
C100  H34   S    
C48   C52   A    
C29   C77   S    
C92   O8    A    
Cr6   O38   S    
C55   O25   A    
C108  H30   S    
C15   H86   S    
C106  H25   S    
C25   O19   A    
C4    H50   S    
C51   C60   A    
C15   C46   S    
C31   N1    S    
Cr8   O9    S    
C11   N4    S    
C8    H64   S    
C46   C73   A    
C32   N2    S    
C54   O24   A    
Cr4   O8    S    
Cr4   O35   S    
C109  H35   S    
