data_mof_unit_20900.cif
_audit_creation_date              2013-03-05T16:45:09-0500
_audit_creation_method            fapswitch 2.2
_symmetry_space_group_name_H-M    P1
_symmetry_Int_Tables_number       1
_space_group_crystal_system       triclinic
_cell_length_a                    15.092784
_cell_length_b                    15.09363
_cell_length_c                    9.9359
_cell_angle_alpha                 91.236723
_cell_angle_beta                  90.759895
_cell_angle_gamma                 89.948068
_cell_volume                      2262.71996751

loop_
_atom_site_label
_atom_site_type_symbol
_atom_site_description
_atom_site_fract_x
_atom_site_fract_y
_atom_site_fract_z
_atom_type_partial_charge
O1    O     O_R   0.408400 0.908380 0.614690 -0.615962
O2    O     O_R   0.408400 0.091620 0.614690 -0.593991
O3    O     O_R   0.908400 0.408380 0.614690 -0.630798
O4    O     O_R   0.908400 0.591620 0.614690 -0.605742
O5    O     O_R   0.408370 0.908370 0.385350 -0.627852
O6    O     O_R   0.408370 0.091630 0.385350 -0.633507
O7    O     O_R   0.908370 0.408370 0.385350 -0.631084
O8    O     O_R   0.908370 0.591630 0.385350 -0.625677
C1    C     C_R   0.384536 0.876148 0.498922 0.890645
C2    C     C_R   0.384068 0.124129 0.500491 0.881943
C3    C     C_R   0.880263 0.380239 0.498906 0.899008
C4    C     C_R   0.881926 0.621819 0.500528 0.875964
Zn1   Zn    Zn3+2 0.500010 1.000000 0.653130 1.001804
Zn2   Zn    Zn3+2 0.000010 0.500000 0.653130 1.005983
Zn3   Zn    Zn3+2 0.499980 1.000000 0.346870 0.977536
Zn4   Zn    Zn3+2 0.999980 0.500000 0.346870 0.971299
O9    O     O_R   0.591610 0.091610 0.614650 -0.630890
O10   O     O_R   0.591610 0.908390 0.614650 -0.598357
O11   O     O_R   0.091610 0.591610 0.614650 -0.612403
O12   O     O_R   0.091610 0.408390 0.614650 -0.579699
O13   O     O_R   0.591590 0.091600 0.385310 -0.619351
O14   O     O_R   0.591590 0.908400 0.385310 -0.606249
O15   O     O_R   0.091590 0.591600 0.385310 -0.641252
O16   O     O_R   0.091590 0.408400 0.385310 -0.609622
C5    C     C_R   0.619762 0.119688 0.501355 0.912070
C6    C     C_R   0.622559 0.882757 0.500131 0.928875
C7    C     C_R   0.121747 0.617878 0.500997 0.903125
C8    C     C_R   0.123023 0.383188 0.499735 0.953599
C9    C     C_R   0.307959 0.246046 0.620852 0.094140
C10   C     C_R   0.299478 0.768404 0.620438 -0.068886
C11   C     C_R   0.793557 0.730086 0.624504 0.045433
C12   C     C_R   0.820575 0.246168 0.588667 -0.041641
C13   C     C_R   0.333098 0.204416 0.500771 -0.161265
C14   C     C_R   0.326043 0.802655 0.498137 0.003041
C15   C     C_R   0.826504 0.697905 0.502497 -0.158863
C16   C     C_R   0.813070 0.315421 0.498986 -0.011555
C17   C     C_R   0.309519 0.244211 0.378880 -0.184204
C18   C     C_R   0.293648 0.767334 0.376837 -0.189362
C19   C     C_R   0.808384 0.742846 0.383020 -0.159940
C20   C     C_R   0.735760 0.326678 0.422169 -0.211394
H1    H     H_    0.337040 0.222414 0.284172 0.190104
H2    H     H_    0.321334 0.785246 0.281957 0.167645
H3    H     H_    0.838591 0.723477 0.288531 0.199183
H4    H     H_    0.726392 0.383968 0.360102 0.152088
C21   C     C_R   0.744197 0.808223 0.382830 -0.088457
C22   C     C_R   0.670529 0.262238 0.424432 -0.166214
C23   C     C_R   0.242679 0.307310 0.377766 -0.128721
C24   C     C_R   0.225198 0.707733 0.377851 -0.164781
H5    H     H_    0.725481 0.837890 0.288271 0.204105
H6    H     H_    0.611639 0.268962 0.361853 0.159922
H7    H     H_    0.218736 0.331216 0.281893 0.200739
H8    H     H_    0.198773 0.683606 0.281995 0.164422
C25   C     C_R   0.699541 0.828340 0.502356 -0.128308
C26   C     C_R   0.683184 0.188187 0.504926 0.003291
C27   C     C_R   0.202262 0.331763 0.499442 -0.142214
C28   C     C_R   0.192954 0.678885 0.501235 -0.001858
C29   C     C_R   0.731367 0.796154 0.624640 0.047265
C30   C     C_R   0.756041 0.182686 0.591523 -0.071592
C31   C     C_R   0.243174 0.309275 0.620279 0.130453
C32   C     C_R   0.232289 0.706811 0.622668 -0.098493
C33   C     C_3   0.681447 0.756684 0.737726 0.200272
C34   C     C_3   0.821916 0.109451 0.611595 0.197772
C35   C     C_3   0.206552 0.281162 0.751583 0.185013
C36   C     C_3   0.280608 0.651330 0.723985 0.256793
C37   C     C_3   0.280081 0.211444 0.752953 0.151731
C38   C     C_3   0.355747 0.717757 0.717835 0.215672
C39   C     C_3   0.748693 0.681480 0.734680 0.193249
C40   C     C_3   0.893918 0.180542 0.608926 0.200091
H9    H     H_    0.614114 0.735476 0.707421 0.154719
H10   H     H_    0.816078 0.079116 0.711903 0.088887
H11   H     H_    0.139009 0.252183 0.740851 0.077929
H12   H     H_    0.249684 0.652516 0.824506 0.067291
H13   H     H_    0.253810 0.142949 0.744334 0.057104
H14   H     H_    0.367126 0.755309 0.814005 0.079776
H15   H     H_    0.719934 0.617186 0.698914 0.098339
H16   H     H_    0.928219 0.189940 0.707662 0.065339
C41   C     C_R   0.431515 0.961705 0.067089 0.193976
C42   C     C_R   0.979164 0.425232 0.067229 0.211292
N1    N     N_R   0.499140 1.000000 0.142800 -0.143273
N2    N     N_R   0.999140 0.500000 0.142800 -0.137855
C43   C     C_R   0.571405 0.027933 0.075947 -0.083570
C44   C     C_R   0.021408 0.574211 0.076090 -0.091533
H17   H     H_    0.628219 0.051600 0.133696 0.171740
H18   H     H_    0.037766 0.633617 0.134099 0.149212
C45   C     C_R   0.572406 0.027723 0.932809 0.278269
C46   C     C_R   0.019802 0.575520 0.932922 0.269987
N3    N     N_R   0.499160 1.000000 0.857150 -0.093600
N4    N     N_R   0.999160 0.500000 0.857150 -0.096120
C47   C     C_R   0.433269 0.960269 0.925043 0.128475
C48   C     C_R   0.982419 0.424730 0.924940 0.160933
C49   C     C_3   0.338162 0.979132 0.906875 -0.479800
C50   C     C_3   0.900255 0.371849 0.906981 -0.487743
C51   C     C_3   0.333266 0.985296 0.060088 0.266718
C52   C     C_3   0.891508 0.376245 0.059308 0.224264
H19   H     H_    0.327532 0.042013 0.854717 0.228384
H20   H     H_    0.302864 0.921686 0.859066 0.184323
H21   H     H_    0.847427 0.407507 0.850780 0.227135
H22   H     H_    0.915003 0.304947 0.864537 0.179863
C53   C     C_3   0.309694 0.078763 0.111582 -0.718519
H23   H     H_    0.288957 0.076949 0.217947 0.241133
H24   H     H_    0.366984 0.124153 0.103028 0.256586
H25   H     H_    0.252783 0.105422 0.053012 0.243549
C54   C     C_3   0.270844 0.914938 0.114026 -0.858295
H26   H     H_    0.291801 0.847480 0.080643 0.212197
H27   H     H_    0.268933 0.919923 0.225314 0.254033
H28   H     H_    0.202497 0.926406 0.075251 0.250996
C55   C     C_3   0.810848 0.432711 0.101422 -0.766858
H29   H     H_    0.806137 0.493804 0.041219 0.256316
H30   H     H_    0.748802 0.394132 0.085661 0.236851
H31   H     H_    0.815635 0.454725 0.207626 0.255498
C56   C     C_3   0.894199 0.283325 0.119918 -0.723815
H32   H     H_    0.892340 0.286309 0.230763 0.287228
H33   H     H_    0.836010 0.244263 0.083338 0.228163
H34   H     H_    0.955398 0.247358 0.089975 0.225978
Cl1   Cl    Cl    0.683468 0.827541 0.884578 -0.538148
Cl2   Cl    Cl    0.822514 0.029331 0.475602 -0.547791
Cl3   Cl    Cl    0.214360 0.367676 0.877354 -0.488980
Cl4   Cl    Cl    0.303985 0.540504 0.664758 -0.452383
Cl5   Cl    Cl    0.367303 0.228840 0.874377 -0.549528
Cl6   Cl    Cl    0.455311 0.675800 0.643596 -0.563183
Cl7   Cl    Cl    0.816136 0.671702 0.882875 -0.575973
Cl8   Cl    Cl    0.969361 0.174232 0.470874 -0.583838
C57   C     C_3   0.655983 0.058028 0.868722 -0.762111
H35   H     H_    0.712661 0.058180 0.941257 0.205828
H36   H     H_    0.674351 0.012095 0.785305 0.287359
H37   H     H_    0.647778 0.127117 0.835014 0.236032
C58   C     C_3   0.036974 0.662727 0.868541 -0.737202
H38   H     H_    0.026598 0.718944 0.940660 0.212842
H39   H     H_    0.106121 0.665705 0.835878 0.209494
H40   H     H_    0.991870 0.673546 0.782321 0.291991

loop_
_geom_bond_atom_site_label_1
_geom_bond_atom_site_label_2
_geom_bond_distance
_ccdc_geom_bond_type
C30   C34   1.500800 S    
C35   C37   1.528776 S    
C27   C31   1.391235 A    
C56   H32   1.102024 S    
O10   C6    1.287376 A    
C12   C30   1.367913 A    
C51   C54   1.530461 S    
C50   H22   1.109396 S    
C57   H35   1.111186 S    
C42   C48   1.415128 A    
O7    C3    1.291108 A    
C41   C47   1.411656 A    
Zn1   O10   1.989260 S    
C12   C16   1.391667 A    
C3    C16   1.409770 S    
C18   H2    1.076141 S    
C24   H8    1.083508 S    
C35   Cl3   1.790694 S    
C46   N4    1.385838 A    
C57   H36   1.106978 S    
C38   H14   1.111868 S    
C9    C13   1.393379 A    
C52   C56   1.538513 S    
C37   H13   1.108771 S    
C34   H10   1.110329 S    
O2    Zn1   1.993809 S    
C49   H20   1.112483 S    
Zn3   O14   1.993599 S    
Zn3   N1    2.027492 S    
C9    C31   1.365759 A    
C10   C32   1.377060 A    
C33   Cl1   1.790310 S    
C55   H29   1.111627 S    
O15   C7    1.285498 A    
C17   C23   1.386830 A    
O11   C7    1.293276 A    
C51   C53   1.533413 S    
C18   C24   1.370771 A    
C19   C21   1.382215 A    
C45   N3    1.388359 A    
O6    Zn3   1.989573 S    
C21   C25   1.400760 A    
O8    Zn4   1.989573 S    
C38   Cl6   1.791859 S    
C17   H1    1.078426 S    
C55   H30   1.110714 S    
C22   C26   1.399836 A    
C56   H34   1.111665 S    
C39   Cl7   1.787555 S    
C43   H17   1.082022 S    
C8    C27   1.425158 S    
C50   H21   1.112468 S    
C41   N1    1.379720 A    
C52   C55   1.542627 S    
C10   C14   1.394653 A    
Zn2   O12   1.989260 S    
C16   C20   1.398042 A    
O1    C1    1.286340 A    
C5    C26   1.409175 S    
C56   H33   1.110955 S    
C40   Cl8   1.795184 S    
N1    C43   1.356725 A    
C25   C29   1.397339 A    
C7    C28   1.415819 S    
C57   H37   1.108472 S    
C19   H3    1.083507 S    
O12   C8    1.291670 A    
C44   C46   1.422952 A    
C13   C17   1.404904 A    
C28   C32   1.394760 A    
Zn4   N2    2.027492 S    
C36   C38   1.517113 S    
O1    Zn1   1.984090 S    
C15   C19   1.403562 A    
C58   H39   1.098270 S    
O5    C1    1.293862 A    
C49   C51   1.525919 S    
C33   C39   1.522079 S    
C48   C50   1.482059 S    
C53   H23   1.107084 S    
C21   H5    1.083470 S    
O8    C4    1.290676 A    
Zn1   N3    2.027334 S    
C50   C52   1.521017 S    
C37   Cl5   1.789498 S    
C54   H27   1.107438 S    
C4    C15   1.420090 S    
C10   C38   1.500365 S    
O3    Zn2   1.984089 S    
C9    C37   1.489026 S    
N2    C44   1.358518 A    
O7    Zn4   2.002745 S    
C53   H24   1.108951 S    
C35   H11   1.112577 S    
Zn4   O15   1.983879 S    
C44   H18   1.082347 S    
N3    C47   1.356468 A    
C1    C14   1.418151 S    
C55   H31   1.100923 S    
C11   C15   1.393867 A    
Zn3   O13   1.983879 S    
O4    C4    1.289966 A    
C20   C22   1.385292 A    
C58   H38   1.111064 S    
O2    C2    1.294509 A    
C6    C25   1.422477 S    
C23   C27   1.403494 A    
C2    C13   1.434772 S    
C26   C30   1.390750 A    
C33   H9    1.101900 S    
C24   C28   1.403060 A    
O13   C5    1.286931 A    
C46   C58   1.500101 S    
C14   C18   1.390314 A    
Zn2   O11   2.002429 S    
O16   C8    1.290931 A    
N4    C48   1.358783 A    
O6    C2    1.292486 A    
C23   H7    1.083354 S    
C29   C33   1.495736 S    
Zn1   O9    2.002429 S    
C40   H16   1.109601 S    
C22   H6    1.083873 S    
C31   C35   1.493667 S    
C12   C40   1.499235 S    
C32   C36   1.504096 S    
O9    C5    1.288761 A    
C11   C29   1.368834 A    
C58   H40   1.101973 S    
Zn2   N4    2.027334 S    
C36   Cl4   1.797457 S    
C42   C52   1.516471 S    
C41   C51   1.525741 S    
C45   C57   1.496916 S    
C54   H28   1.111080 S    
C42   N2    1.373418 A    
C34   C40   1.528756 S    
C36   H12   1.107821 S    
O4    Zn2   1.993809 S    
O5    Zn3   2.002745 S    
O3    C3    1.284715 A    
C34   Cl2   1.793890 S    
C11   C39   1.500103 S    
C49   H19   1.101752 S    
C20   H4    1.080985 S    
C53   H25   1.111112 S    
C39   H15   1.112757 S    
Zn4   O16   1.993599 S    
C47   C49   1.472643 S    
O14   C6    1.293983 A    
C54   H26   1.111028 S    
C43   C45   1.422424 A    
