data_mof_unit_50762.cif
_audit_creation_date              2012-10-26T18:28:59-0400
_audit_creation_method            fapswitch 2.2
_symmetry_space_group_name_H-M    P1
_symmetry_Int_Tables_number       1
_space_group_crystal_system       triclinic
_cell_length_a                    11.697749
_cell_length_b                    13.042556
_cell_length_c                    15.836889
_cell_angle_alpha                 92.52639
_cell_angle_beta                  74.082416
_cell_angle_gamma                 99.97878
_cell_volume                      2288.40074584

loop_
_atom_site_label
_atom_site_type_symbol
_atom_type_description
_atom_site_fract_x
_atom_site_fract_y
_atom_site_fract_z
_atom_type_partial_charge
C1    C     C_R   0.521301 0.700364 0.500087 0.543237
C2    C     C_R   0.404463 0.026146 0.427519 0.240739
C3    C     C_R   0.592579 0.867278 0.559649 -0.127795
C4    C     C_R   0.407282 0.132733 0.440504 -0.127463
C5    C     C_R   0.475529 0.865512 0.454305 -0.019387
C6    C     C_R   0.524292 0.134513 0.545885 -0.019294
C7    C     C_R   0.469745 0.972591 0.469812 0.023350
C8    C     C_R   0.530038 0.027420 0.530408 0.023473
C9    C     C_R   0.940171 0.596359 0.583615 -0.043433
C10   C     C_R   0.059228 0.402427 0.417405 -0.045408
C11   C     C_R   0.820589 0.587458 0.575044 0.399611
C12   C     C_R   0.478679 0.299643 0.499951 0.542592
C13   C     C_R   0.179327 0.412386 0.425089 0.399568
C14   C     C_R   0.859078 0.458619 0.464877 0.016404
C15   C     C_R   0.140729 0.540985 0.535448 0.018218
C16   C     C_R   0.426925 0.494458 0.668129 0.546535
C17   C     C_R   0.572947 0.504274 0.331816 0.547011
C18   C     C_R   0.979359 0.464679 0.470200 -0.052059
C19   C     C_R   0.020353 0.534741 0.530283 -0.051077
C20   C     C_R   0.382953 0.484051 0.764109 -0.003692
C21   C     C_R   0.615817 0.502314 0.235464 -0.002107
C22   C     C_R   0.222160 0.442431 0.896919 -0.107244
C23   C     C_R   0.353446 0.444813 0.086103 -0.123888
C24   C     C_R   0.775280 0.503621 0.100788 -0.107118
C25   C     C_R   0.260176 0.457865 0.806399 -0.115872
C26   C     C_R   0.737927 0.506636 0.192114 -0.118793
C27   C     C_R   0.466906 0.495173 0.813229 -0.113883
C28   C     C_R   0.531594 0.493521 0.186624 -0.112999
C29   C     C_R   0.431910 0.473886 0.903819 0.024561
C30   C     C_R   0.565675 0.484505 0.094675 0.022733
C31   C     C_R   0.306604 0.450339 0.946724 0.035403
C32   C     C_R   0.690630 0.493484 0.050981 0.036504
C33   C     C_R   0.518440 0.477282 0.952567 0.019857
C34   C     C_R   0.643195 0.484735 0.910992 -0.122451
C35   C     C_R   0.478730 0.469778 0.045416 0.019959
C36   C     C_1   0.142368 0.409388 0.085220 0.192219
C37   C     C_1   0.853673 0.500859 0.910325 0.199675
C38   C     C_1   0.979773 0.667396 0.646929 0.157584
C39   C     C_1   0.017862 0.327728 0.357154 0.156035
C40   C     C_1   0.568078 0.191453 0.614988 0.321075
C41   C     C_1   0.431679 0.808601 0.385239 0.320814
C42   C     C_R   0.268639 0.434693 0.038090 -0.008118
C43   C     C_R   0.727985 0.492194 0.958757 -0.005589
C44   C     C_R   0.468515 0.186752 0.496872 -0.063114
C45   C     C_R   0.531402 0.813266 0.503241 -0.063063
C46   C     C_R   0.595287 0.973854 0.572717 0.240986
Cu1   Cu    Cu3+1 0.386820 0.492450 0.493500 1.031290
Cu2   Cu    Cu3+1 0.613180 0.507550 0.506500 1.030890
H1    H     H_    0.439583 0.496822 0.221935 0.149349
H2    H     H_    0.637229 0.825475 0.595255 0.153297
H3    H     H_    0.174993 0.593723 0.580830 0.150100
H4    H     H_    0.824839 0.405900 0.419470 0.148515
H5    H     H_    0.228103 0.311710 0.331518 0.305865
H6    H     H_    0.774732 0.693980 0.663971 0.307817
H7    H     H_    0.702295 0.976890 0.649114 0.332571
H8    H     H_    0.297318 0.023090 0.351217 0.333108
H9    H     H_    0.559608 0.522684 0.779170 0.149768
H10   H     H_    0.804758 0.513275 0.228635 0.151266
H11   H     H_    0.193555 0.448729 0.769558 0.159973
H12   H     H_    0.126276 0.422942 0.927398 0.153798
H13   H     H_    0.870867 0.509100 0.069583 0.148236
H14   H     H_    0.318353 0.428423 0.155449 0.117785
H15   H     H_    0.677790 0.480983 0.840625 0.124004
H16   H     H_    0.362649 0.174534 0.404880 0.155327
N1    N     N_R   0.216750 0.481110 0.483710 -0.210246
N2    N     N_R   0.783250 0.518890 0.516290 -0.209929
N3    N     N_1   0.041408 0.389291 0.122868 -0.284942
N4    N     N_1   0.954037 0.508060 0.871231 -0.307609
N5    N     N_1   0.011416 0.724014 0.697507 -0.268807
N6    N     N_1   0.984706 0.267955 0.309201 -0.259227
N7    N     N_1   0.602467 0.237355 0.669958 -0.242239
N8    N     N_1   0.397218 0.762721 0.330293 -0.242405
O1    O     O_R   0.419950 0.645670 0.495380 -0.511034
O2    O     O_3   0.738610 0.646250 0.624537 -0.671670
O3    O     O_3   0.661920 0.025968 0.626183 -0.678144
O4    O     O_3   0.337671 0.974007 0.374164 -0.678219
O5    O     O_R   0.580050 0.354330 0.504620 -0.511046
O6    O     O_R   0.611110 0.658410 0.506370 -0.451752
O7    O     O_R   0.388890 0.341590 0.493630 -0.451644
O8    O     O_R   0.350820 0.490050 0.621260 -0.519975
O9    O     O_R   0.649180 0.509950 0.378740 -0.520413
O10   O     O_R   0.541970 0.502800 0.632250 -0.452794
O11   O     O_R   0.458030 0.497200 0.367750 -0.454191
O12   O     O_3   0.261431 0.353908 0.375291 -0.670969

loop_
_geom_bond_atom_site_label_1
_geom_bond_atom_site_label_2
_ccdc_geom_bond_type
C21   C26   A    
C37   N4    T    
C24   H13   S    
H8    O4    S    
C31   C42   A    
C27   C29   A    
C14   C18   A    
C36   C42   S    
C2    C7    A    
Cu1   O7    S    
C36   N3    T    
C7    C8    A    
C13   N1    A    
C15   C19   A    
C13   O12   S    
C23   C42   A    
C30   C35   A    
H5    O12   S    
C40   N7    T    
C24   C26   A    
C22   H12   S    
C20   C25   A    
C11   O2    S    
C12   O7    A    
C29   C33   A    
Cu2   O9    S    
C18   C19   A    
Cu2   O6    S    
Cu2   N2    S    
C34   H15   S    
H6    O2    S    
C9    C19   A    
C23   H14   S    
C14   H4    S    
C22   C25   A    
C15   H3    S    
C11   N2    A    
H7    O3    S    
C38   N5    T    
C6    C44   A    
C1    O6    A    
Cu1   O8    S    
C46   O3    S    
C3    H2    S    
C22   C31   A    
Cu1   O1    S    
C27   H9    S    
C5    C7    A    
C6    C8    A    
C4    C44   A    
C5    C45   A    
C3    C45   A    
C17   C21   S    
C10   C39   S    
C17   O11   A    
Cu2   O5    S    
C37   C43   S    
C2    C4    A    
C24   C32   A    
C9    C11   A    
C28   H1    S    
Cu1   Cu2   S    
C16   C20   S    
C12   O5    A    
C16   O10   A    
C33   C34   A    
C14   N2    A    
C26   H10   S    
C41   N8    T    
C21   C28   A    
C23   C35   A    
C6    C40   S    
C2    O4    S    
C5    C41   S    
C39   N6    T    
C34   C43   A    
C10   C13   A    
C20   C27   A    
C4    H16   S    
C3    C46   A    
C1    O1    A    
C28   C30   A    
C12   C44   S    
C30   C32   A    
C1    C45   S    
C10   C18   A    
C9    C38   S    
C33   C35   A    
C32   C43   A    
Cu2   O10   S    
C17   O9    A    
C8    C46   A    
Cu1   O11   S    
C29   C31   A    
C25   H11   S    
C16   O8    A    
Cu1   N1    S    
C15   N1    A    
