data_mof_unit_46551.cif
_audit_creation_date              2012-10-26T19:21:05-0400
_audit_creation_method            fapswitch 2.2
_symmetry_space_group_name_H-M    P1
_symmetry_Int_Tables_number       1
_space_group_crystal_system       triclinic
_cell_length_a                    9.805676
_cell_length_b                    11.040581
_cell_length_c                    13.413483
_cell_angle_alpha                 94.201383
_cell_angle_beta                  81.405855
_cell_angle_gamma                 111.263185
_cell_volume                      1337.81087234

loop_
_atom_site_label
_atom_site_type_symbol
_atom_type_description
_atom_site_fract_x
_atom_site_fract_y
_atom_site_fract_z
_atom_type_partial_charge
C1    C     C_R   0.556577 0.745473 0.507138 0.552613
C2    C     C_R   0.375613 0.488535 0.800589 -0.005563
C3    C     C_2   0.588569 0.884658 0.510846 -0.132518
C4    C     C_R   0.423250 0.493550 0.690875 0.535422
C5    C     C_2   0.484703 0.930587 0.497024 -0.163324
C6    C     C_2   0.411926 0.115413 0.488002 -0.137093
C7    C     C_2   0.516229 0.069531 0.500839 -0.164953
C8    C     C_2   0.922378 0.489570 0.491636 -0.023464
C9    C     C_2   0.076941 0.509229 0.509235 -0.028575
C10   C     C_R   0.443581 0.254554 0.492507 0.558509
C11   C     C_R   0.578160 0.512983 0.309610 0.562229
C12   C     C_R   0.436538 0.504354 0.972886 0.037717
C13   C     C_R   0.796948 0.675196 0.071845 -0.152800
C14   C     C_R   0.626904 0.537689 0.202099 -0.002678
C15   C     C_R   0.227481 0.418219 0.835848 -0.136881
C16   C     C_R   0.181902 0.398110 0.938298 -0.162967
C17   C     C_R   0.284727 0.439617 0.006249 -0.098988
C18   C     C_3   0.445963 0.260311 0.153479 0.010304
C19   C     C_3   0.439571 0.199946 0.046864 -0.271603
C20   C     C_3   0.472034 0.074296 0.040795 -0.481555
C21   C     C_R   0.478019 0.542690 0.870832 0.016137
C22   C     C_R   0.547458 0.538526 0.038347 0.036405
C23   C     C_R   0.689165 0.631609 0.006397 0.008504
C24   C     C_R   0.721564 0.681946 0.909869 -0.143157
C25   C     C_R   0.618518 0.637281 0.842673 -0.125251
C26   C     C_R   0.524948 0.481100 0.133240 0.252053
C27   C     C_R   0.764353 0.631488 0.170223 -0.187900
Cu1   Cu    Cu3+1 0.362000 0.479240 0.482530 0.949068
Cu2   Cu    Cu3+1 0.638000 0.520760 0.517470 0.919546
H1    H     H_    0.844342 0.674331 0.222314 0.136849
H2    H     H_    0.904350 0.747576 0.048244 0.117794
H3    H     H_    0.146614 0.377864 0.784035 0.133867
H4    H     H_    0.241414 0.425578 0.084964 0.178224
H5    H     H_    0.066422 0.347623 0.965137 0.116272
H6    H     H_    0.648598 0.682566 0.769942 0.140745
H7    H     H_    0.625753 0.134655 0.514576 0.156734
H8    H     H_    0.365965 0.187824 0.207152 0.156899
H9    H     H_    0.557039 0.281138 0.176709 0.112462
H10   H     H_    0.327994 0.178774 0.025207 0.176061
H11   H     H_    0.522066 0.269582 0.992369 0.166023
H12   H     H_    0.375329 0.865480 0.482960 0.156353
H13   H     H_    0.584125 0.093617 0.060699 0.149168
H14   H     H_    0.467013 0.033272 0.962756 0.152112
H15   H     H_    0.389103 0.001661 0.093016 0.148622
H16   H     H_    0.302600 0.050015 0.474253 0.099522
H17   H     H_    0.697745 0.950048 0.524914 0.100464
H18   H     H_    0.125271 0.576875 0.568238 0.144797
H19   H     H_    0.873393 0.420722 0.433472 0.145400
H20   H     H_    0.106624 0.385166 0.400144 0.208969
H21   H     H_    0.894649 0.617236 0.598212 0.198982
H22   H     H_    0.828034 0.755295 0.885630 0.106177
N1    N     N_2   0.845330 0.551960 0.543750 -0.352601
N2    N     N_2   0.154690 0.448120 0.456210 -0.351033
O1    O     O_R   0.426290 0.668220 0.490680 -0.498774
O2    O     O_R   0.659360 0.703290 0.520190 -0.498034
O3    O     O_R   0.326580 0.473880 0.629020 -0.501306
O4    O     O_R   0.559660 0.508940 0.658530 -0.493816
O5    O     O_R   0.340640 0.296710 0.479810 -0.488077
O6    O     O_R   0.573710 0.331780 0.509320 -0.493933
O7    O     O_R   0.440340 0.491060 0.341470 -0.444527
O8    O     O_R   0.673420 0.526120 0.370980 -0.511441
O9    O     O_3   0.403309 0.370554 0.160096 -0.588186

loop_
_geom_bond_atom_site_label_1
_geom_bond_atom_site_label_2
_ccdc_geom_bond_type
C4    O4    A    
C6    C10   S    
C13   C27   A    
H21   N1    S    
C23   C24   A    
C8    H19   S    
C9    H18   S    
C6    C7    D    
C6    H16   S    
Cu1   O5    S    
C14   C27   A    
C7    H7    S    
C8    N1    D    
C3    H17   S    
C20   H13   S    
C19   C20   S    
Cu1   N2    S    
C16   H5    S    
C3    C5    D    
C24   H22   S    
C10   O6    A    
Cu1   O3    S    
C15   H3    S    
C14   C26   A    
C27   H1    S    
C2    C15   A    
C16   C17   A    
C2    C21   A    
C17   H4    S    
C25   H6    S    
C1    O1    A    
H20   N2    S    
C2    C4    S    
C19   H10   S    
Cu1   Cu2   S    
C10   O5    A    
C18   H8    S    
Cu2   O4    S    
C1    O2    A    
C1    C3    S    
Cu1   O7    S    
C26   O9    S    
C11   C14   S    
Cu2   O8    S    
C9    N2    D    
C19   H11   S    
C5    H12   S    
C11   O7    A    
C12   C22   A    
C12   C17   A    
C20   H14   S    
C24   C25   A    
C13   C23   A    
C18   C19   S    
C22   C26   A    
C5    C7    S    
C21   C25   A    
C22   C23   A    
C18   O9    S    
Cu1   O1    S    
Cu2   O2    S    
C20   H15   S    
C18   H9    S    
C12   C21   A    
C13   H2    S    
C15   C16   A    
C4    O3    A    
Cu2   O6    S    
C8    C9    S    
C11   O8    A    
Cu2   N1    S    
