data_mof_unit_38805.cif
_audit_creation_date              2012-12-11T16:17:49-0500
_audit_creation_method            fapswitch 2.2
_symmetry_space_group_name_H-M    P1
_symmetry_Int_Tables_number       1
_space_group_crystal_system       triclinic
_cell_length_a                    14.022455
_cell_length_b                    14.042625
_cell_length_c                    30.025663
_cell_angle_alpha                 96.803291
_cell_angle_beta                  96.859425
_cell_angle_gamma                 61.647954
_cell_volume                      5153.04179477

loop_
_atom_site_label
_atom_site_type_symbol
_atom_type_description
_atom_site_fract_x
_atom_site_fract_y
_atom_site_fract_z
_atom_type_partial_charge
C1    C     C_R   0.387030 0.707900 0.440966 0.598520
C2    C     C_R   0.418587 0.290168 0.221165 0.009849
C3    C     C_R   0.427007 0.292854 0.268342 0.228931
C4    C     C_R   0.333769 0.351366 0.292454 0.021670
C5    C     C_R   0.315027 0.343853 0.198283 -0.003953
C6    C     C_1   0.305144 0.327848 0.149863 -0.057830
C7    C     C_1   0.348240 0.356054 0.340836 -0.004312
C8    C     C_1   0.293845 0.306489 0.110266 0.000645
C9    C     C_R   0.740804 0.385838 0.394210 0.022481
C10   C     C_R   0.793652 0.278023 0.375248 0.209837
C11   C     C_R   0.807001 0.257267 0.328529 0.048240
C12   C     C_R   0.398765 0.380981 0.426629 0.535680
C13   C     C_R   0.767813 0.345593 0.301186 -0.011394
C14   C     C_R   0.719422 0.453566 0.320030 0.013081
C15   C     C_R   0.708331 0.473357 0.366542 0.183139
C16   C     C_R   0.802465 0.406878 0.150833 0.201901
C17   C     C_R   0.830160 0.400486 0.107046 0.213099
C18   C     C_R   0.846415 0.219275 0.094464 0.196860
C19   C     C_R   0.815075 0.227425 0.138030 0.213191
C20   C     C_R   0.801174 0.317960 0.167104 -0.024246
C21   C     C_1   0.788924 0.319582 0.213928 0.072863
C22   C     C_1   0.780077 0.327034 0.253585 0.007977
C23   C     C_R   0.704447 0.409493 0.440613 0.599636
C24   C     C_R   0.868623 0.300186 0.081307 -0.047714
C25   C     C_R   0.370803 0.758698 0.397959 0.041484
C26   C     C_R   0.406544 0.836808 0.396347 0.251171
C27   C     C_R   0.415546 0.867838 0.354591 0.040224
C28   C     C_R   0.397263 0.813262 0.314574 0.005262
C29   C     C_R   0.362588 0.734008 0.315543 0.025489
C30   C     C_R   0.338699 0.714703 0.357144 -0.014882
C31   C     C_R   0.255878 0.958951 0.174081 0.025325
C32   C     C_R   0.217561 0.949851 0.128844 -0.052770
C33   C     C_R   0.405291 0.851010 0.107831 0.216620
C34   C     C_R   0.389848 0.710985 0.568305 0.566235
C35   C     C_R   0.441182 0.834808 0.153707 0.000271
C36   C     C_R   0.366141 0.892202 0.186679 0.013339
C37   C     C_1   0.393869 0.867544 0.233167 -0.036550
C38   C     C_1   0.402316 0.844747 0.271245 -0.045154
C39   C     C_R   0.293154 0.910559 0.095011 0.013409
C40   C     C_R   0.376895 0.378384 0.599510 -0.000038
C41   C     C_R   0.459836 0.349334 0.635073 0.208206
C42   C     C_R   0.433234 0.380544 0.680068 -0.010731
C43   C     C_R   0.323920 0.425977 0.690050 0.003029
C44   C     C_R   0.241417 0.445195 0.655452 0.235126
C45   C     C_R   0.404726 0.385390 0.554126 0.556999
C46   C     C_R   0.266407 0.425789 0.609912 -0.020526
C47   C     C_R   0.264668 0.453837 0.855675 0.243243
C48   C     C_R   0.264937 0.413899 0.896481 0.235763
C49   C     C_R   0.323138 0.232277 0.858671 -0.037820
C50   C     C_R   0.317955 0.274484 0.817723 0.200789
C51   C     C_R   0.288849 0.384551 0.816375 0.001053
C52   C     C_1   0.290118 0.421074 0.773831 0.142155
C53   C     C_1   0.300340 0.432701 0.736014 0.111853
C54   C     C_R   0.292940 0.303497 0.898228 -0.037439
C55   C     C_1   0.764886 0.375343 0.611883 0.072459
C56   C     C_R   0.714151 0.407229 0.568176 0.556557
C57   C     C_R   0.780988 0.428895 0.729565 -0.017900
C58   C     C_R   0.798342 0.412253 0.775852 0.240755
C59   C     C_R   0.887284 0.215363 0.758616 -0.017354
C60   C     C_R   0.868338 0.232240 0.712229 0.257987
C61   C     C_R   0.817358 0.338175 0.697912 0.023196
C62   C     C_R   0.850871 0.306354 0.790236 0.000943
C63   C     C_1   0.875974 0.292588 0.837801 0.022689
C64   C     C_1   0.794534 0.354869 0.650463 0.065088
C65   C     C_1   0.904716 0.282363 0.877085 0.047234
C66   C     C_1   0.377744 0.751547 0.614270 -0.007108
C67   C     C_1   0.366729 0.364306 0.380782 0.011514
C68   C     C_R   0.278059 0.777882 0.720507 0.010994
C69   C     C_R   0.265165 0.801429 0.767060 0.216474
C70   C     C_R   0.431750 0.818283 0.777634 0.218722
C71   C     C_R   0.439587 0.806196 0.730616 0.024113
C72   C     C_R   0.361149 0.787773 0.702157 -0.011253
C73   C     C_R   0.341545 0.822099 0.795473 0.047105
C74   C     C_1   0.321417 0.857209 0.842314 0.095041
C75   C     C_1   0.369413 0.772435 0.654067 -0.054378
C76   C     C_1   0.298036 0.894495 0.880162 0.065394
C77   C     C_R   0.944155 0.275205 0.045823 0.573117
C78   C     C_R   0.229968 0.410325 0.270143 -0.005755
C79   C     C_R   0.275892 0.270497 0.065110 0.556364
C80   C     C_R   0.258869 0.956702 0.050102 0.582960
C81   C     C_R   0.952054 0.269119 0.922211 0.552304
C82   C     C_R   0.276102 0.265858 0.939209 0.575388
C83   C     C_R   0.262056 0.949916 0.923080 0.556743
C84   C     C_R   0.219896 0.403593 0.222204 0.012590
Cr1   Cr    Cr6+3 0.581000 0.584320 0.508140 1.125218
Cr2   Cr    Cr6+3 0.339110 0.576430 0.496080 1.004745
Cr3   Cr    Cr6+3 0.579910 0.339270 0.495810 1.159739
Cr4   Cr    Cr6+3 0.082090 0.079210 0.982490 1.118837
Cr5   Cr    Cr6+3 0.082460 0.324610 0.994920 1.146952
Cr6   Cr    Cr6+3 0.323630 0.087860 0.996130 1.098496
O1    O     O_R   0.688580 0.499770 0.460490 -0.449330
O2    O     O_R   0.348600 0.476260 0.536540 -0.523152
O3    O     O_R   0.494840 0.313840 0.539010 -0.428813
O4    O     O_R   0.672120 0.351750 0.545910 -0.436973
O5    O     O_3   0.500010 0.500010 0.500010 -0.290700
O6    O     O_R   0.167510 0.972920 0.030390 -0.504721
O7    O     O_R   0.990840 0.178580 0.027590 -0.464754
O8    O     O_R   0.972840 0.345510 0.038590 -0.451346
O9    O     O_R   0.181550 0.320660 0.045200 -0.481971
O10   O     O_R   0.346150 0.177650 0.050510 -0.489931
O11   O     O_R   0.314200 0.996600 0.036060 -0.448879
O12   O     O_R   0.480400 0.672610 0.462660 -0.408311
O13   O     O_R   0.168690 0.969990 0.933130 -0.464946
O14   O     O_R   0.991920 0.175870 0.937430 -0.499947
O15   O     O_R   0.974010 0.342590 0.941330 -0.461067
O16   O     O_R   0.182630 0.317940 0.955040 -0.453103
O17   O     O_R   0.347320 0.174720 0.953250 -0.518212
O18   O     O_R   0.315290 0.993890 0.945900 -0.502066
O19   O     O_3   0.162730 0.163890 0.991180 -0.305901
O20   O     O_R   0.315310 0.685650 0.451800 -0.533675
O21   O     O_R   0.346220 0.474990 0.446280 -0.526977
O22   O     O_R   0.492270 0.312460 0.441630 -0.463868
O23   O     O_R   0.669740 0.350480 0.455640 -0.449694
O24   O     O_R   0.691150 0.501150 0.557860 -0.526124
O25   O     O_R   0.482790 0.673890 0.552920 -0.483219
O26   O     O_R   0.317880 0.687030 0.549170 -0.512304
C85   C     C_3   0.132549 0.478762 0.298196 -0.271889
C86   C     C_3   0.072958 0.415809 0.305805 -0.428565
H1    H     H_    0.032651 0.400111 0.273953 0.158794
H2    H     H_    0.130555 0.337363 0.320100 0.157637
H3    H     H_    0.009817 0.463871 0.329906 0.145983
H4    H     H_    0.158399 0.504776 0.331675 0.138216
H5    H     H_    0.076207 0.557056 0.283879 0.133911
Cl1   Cl    Cl    0.798969 0.121871 0.157039 -0.631769
Cl2   Cl    Cl    0.853704 0.109332 0.056870 -0.498709
C87   C     C_3   0.861922 0.141412 0.307602 -0.212748
C88   C     C_3   0.982325 0.102948 0.303108 -0.437011
H6    H     H_    0.992791 0.155489 0.281324 0.147053
H7    H     H_    0.024479 0.104645 0.336721 0.190006
H8    H     H_    0.020363 0.018466 0.287715 0.136566
H9    H     H_    0.853468 0.084513 0.327509 0.215655
H10   H     H_    0.821806 0.135259 0.273945 0.189029
C89   C     C_3   0.100184 0.971445 0.118341 -0.239612
C90   C     C_3   0.072464 0.902290 0.144993 -0.390718
H11   H     H_    0.134642 0.815710 0.141343 0.154360
H12   H     H_    0.992441 0.908479 0.131792 0.228152
H13   H     H_    0.067095 0.929721 0.181163 0.151352
H14   H     H_    0.043914 0.058752 0.124694 0.166827
H15   H     H_    0.083597 0.948566 0.083113 0.231920
C91   C     C_3   0.180327 0.038301 0.209168 -0.273210
C92   C     C_3   0.216819 0.122579 0.228580 -0.432654
H16   H     H_    0.294298 0.085055 0.249645 0.162712
H17   H     H_    0.228247 0.161561 0.201056 0.160274
H18   H     H_    0.154237 0.185916 0.249994 0.132939
H19   H     H_    0.095699 0.084412 0.194956 0.150854
H20   H     H_    0.177697 0.993875 0.236836 0.142496
C93   C     C_3   0.357617 0.666499 0.272203 -0.259111
C94   C     C_3   0.245147 0.716119 0.247159 -0.430301
H21   H     H_    0.246594 0.665975 0.215486 0.147010
H22   H     H_    0.182883 0.719309 0.267626 0.147561
H23   H     H_    0.221641 0.799480 0.238570 0.154047
H24   H     H_    0.417834 0.658266 0.249154 0.145378
H25   H     H_    0.384365 0.581030 0.278748 0.145766
C95   C     C_3   0.277041 0.650088 0.358073 -0.266115
C96   C     C_3   0.159286 0.725090 0.369241 -0.401767
H26   H     H_    0.154167 0.779216 0.399905 0.199639
H27   H     H_    0.113689 0.776872 0.340987 0.143210
H28   H     H_    0.119331 0.675979 0.374657 0.134950
H29   H     H_    0.272959 0.604525 0.326022 0.134466
H30   H     H_    0.319327 0.586200 0.381903 0.180530
Cl3   Cl    Cl    0.439997 0.895694 0.447315 -0.569031
C97   C     C_3   0.558923 0.759848 0.167779 -0.210486
C98   C     C_3   0.620500 0.823931 0.184019 -0.397043
H31   H     H_    0.584314 0.879070 0.213892 0.131370
H32   H     H_    0.706596 0.767274 0.193584 0.199828
H33   H     H_    0.618215 0.872135 0.156768 0.192430
H34   H     H_    0.563418 0.710273 0.194942 0.167330
H35   H     H_    0.600926 0.700693 0.139867 0.271144
Cl4   Cl    Cl    0.499863 0.793611 0.065826 -0.500886
C99   C     C_3   0.110209 0.460506 0.195529 -0.247691
C100  C     C_3   0.068550 0.381532 0.174225 -0.397418
H36   H     H_    0.129596 0.311651 0.154790 0.135535
H37   H     H_    0.042608 0.350260 0.200031 0.152348
H38   H     H_    0.997969 0.425397 0.150621 0.220992
H39   H     H_    0.045505 0.524353 0.215462 0.164978
H40   H     H_    0.118270 0.503691 0.168632 0.161888
C101  C     C_3   0.449229 0.955362 0.352489 -0.239585
C102  C     C_3   0.570730 0.905351 0.346796 -0.382569
H41   H     H_    0.618176 0.856145 0.375567 0.221284
H42   H     H_    0.591893 0.852863 0.315052 0.144692
H43   H     H_    0.593294 0.970799 0.345569 0.179644
H44   H     H_    0.402878 0.006841 0.324199 0.132431
H45   H     H_    0.429348 0.012226 0.382968 0.205607
Cl5   Cl    Cl    0.232625 0.502353 0.945770 -0.443712
Cl6   Cl    Cl    0.233410 0.590772 0.853783 -0.408694
Cl7   Cl    Cl    0.106473 0.492289 0.669899 -0.631411
C103  C     C_3   0.175435 0.451197 0.572855 -0.230145
C104  C     C_3   0.108675 0.573249 0.567600 -0.392150
H46   H     H_    0.065109 0.616296 0.598094 0.199138
H47   H     H_    0.161403 0.608576 0.561445 0.182040
H48   H     H_    0.047493 0.587613 0.538622 0.145286
H49   H     H_    0.207586 0.410014 0.540037 0.143111
H50   H     H_    0.121188 0.418423 0.580118 0.202840
Cl8   Cl    Cl    0.598792 0.273640 0.624231 -0.567570
Cl9   Cl    Cl    0.347038 0.189931 0.767045 -0.667224
C105  C     C_3   0.362011 0.111536 0.860030 -0.228612
C106  C     C_3   0.482256 0.054000 0.876529 -0.326279
H51   H     H_    0.533330 0.040034 0.848452 0.202579
H52   H     H_    0.502724 0.102492 0.904219 0.178173
H53   H     H_    0.502455 0.975098 0.889252 0.212766
H54   H     H_    0.311479 0.097648 0.881359 0.143643
H55   H     H_    0.351021 0.072286 0.826988 0.214489
C107  C     C_3   0.521397 0.369123 0.717265 -0.249187
C108  C     C_3   0.576079 0.257236 0.735819 -0.383596
H56   H     H_    0.639757 0.252958 0.762486 0.138146
H57   H     H_    0.515935 0.242729 0.750722 0.198170
H58   H     H_    0.614739 0.192570 0.708994 0.219749
H59   H     H_    0.583637 0.385036 0.704863 0.185351
H60   H     H_    0.487330 0.431840 0.745331 0.148344
C109  C     C_3   0.725415 0.543123 0.713885 -0.279972
C110  C     C_3   0.809307 0.577275 0.704818 -0.364800
H61   H     H_    0.860215 0.577363 0.736133 0.229719
H62   H     H_    0.862482 0.520949 0.678614 0.197983
H63   H     H_    0.767657 0.660175 0.692759 0.141192
H64   H     H_    0.671056 0.548980 0.683082 0.123485
H65   H     H_    0.671118 0.602031 0.739015 0.217527
C111  C     C_3   0.519896 0.226424 0.195255 -0.219355
C112  C     C_3   0.545214 0.107763 0.186509 -0.392171
H66   H     H_    0.561168 0.069723 0.218790 0.182245
H67   H     H_    0.476057 0.101125 0.166816 0.152100
H68   H     H_    0.618416 0.062915 0.167109 0.207196
H69   H     H_    0.510265 0.261200 0.162667 0.172109
H70   H     H_    0.590866 0.231744 0.213728 0.221341
Cl10  Cl    Cl    0.758405 0.524068 0.816631 -0.503541
C113  C     C_3   0.946567 0.100796 0.774141 -0.235068
C114  C     C_3   0.866947 0.057365 0.778020 -0.390878
H71   H     H_    0.808008 0.108820 0.803291 0.149419
H72   H     H_    0.822151 0.056140 0.745038 0.191311
H73   H     H_    0.911894 0.973414 0.788954 0.215841
H74   H     H_    0.008742 0.045722 0.750730 0.210233
H75   H     H_    0.993033 0.097453 0.807068 0.156107
Cl11  Cl    Cl    0.907000 0.120971 0.671408 -0.596416
C115  C     C_3   0.205098 0.739875 0.690735 -0.253890
C116  C     C_3   0.105440 0.834728 0.670361 -0.357205
H76   H     H_    0.054037 0.889424 0.697290 0.216054
H77   H     H_    0.129995 0.881102 0.650947 0.192260
H78   H     H_    0.056764 0.803638 0.647345 0.162784
H79   H     H_    0.250464 0.680653 0.663312 0.137588
H80   H     H_    0.178621 0.694701 0.709906 0.224526
Cl12  Cl    Cl    0.151174 0.808480 0.789958 -0.575599
Cl13  Cl    Cl    0.535274 0.827273 0.814668 -0.602378
C117  C     C_3   0.530244 0.813967 0.710570 -0.269244
C118  C     C_3   0.492308 0.927937 0.696547 -0.375233
H81   H     H_    0.419306 0.953055 0.672532 0.184559
H82   H     H_    0.473076 0.985646 0.726693 0.237062
H83   H     H_    0.558091 0.930083 0.680138 0.157129
H84   H     H_    0.602852 0.792573 0.734426 0.209647
H85   H     H_    0.558922 0.755183 0.680914 0.134590
Cl14  Cl    Cl    0.555697 0.222436 0.298006 -0.663284
Cl15  Cl    Cl    0.815559 0.519465 0.085579 -0.448577
Cl16  Cl    Cl    0.779911 0.523478 0.186273 -0.713026
C119  C     C_3   0.676307 0.549413 0.290699 -0.229843
C120  C     C_3   0.756125 0.595454 0.292715 -0.382616
H86   H     H_    0.771243 0.624586 0.327444 0.189897
H87   H     H_    0.834709 0.532195 0.280448 0.187287
H88   H     H_    0.722360 0.664987 0.271185 0.164832
H89   H     H_    0.658065 0.527658 0.255230 0.179406
H90   H     H_    0.596655 0.614248 0.301265 0.181642
Cl17  Cl    Cl    0.648618 0.611040 0.388535 -0.622930
Cl18  Cl    Cl    0.848116 0.169020 0.410696 -0.581483

loop_
_geom_bond_atom_site_label_1
_geom_bond_atom_site_label_2
_ccdc_geom_bond_type
C111  H70   S    
C100  H36   S    
C63   C65   T    
C58   C62   A    
C87   C88   S    
C106  H53   S    
C109  C110  S    
C11   C13   A    
C73   C74   S    
C19   C20   A    
C94   H23   S    
C12   O22   A    
C100  H38   S    
C55   C56   S    
C33   Cl4   S    
C34   C66   S    
C90   H13   S    
Cr4   O6    S    
C102  H41   S    
Cr1   O1    S    
C119  H90   S    
C115  H79   S    
C99   H40   S    
C56   O4    A    
C100  H37   S    
C26   C27   A    
C41   Cl8   S    
C83   O13   A    
Cr5   O9    S    
C104  H48   S    
C18   C24   A    
C5    C6    S    
C79   O9    A    
C28   C29   A    
C98   H32   S    
C37   C38   T    
C94   H22   S    
Cr6   O17   S    
C34   O25   A    
C84   C99   S    
C92   H17   S    
C70   Cl13  S    
C32   C89   S    
C102  H42   S    
C14   C119  S    
C99   C100  S    
C34   O26   A    
C118  H81   S    
Cr3   O4    S    
Cr5   O19   S    
C17   Cl15  S    
C111  H69   S    
C83   O18   A    
Cr2   O26   S    
C18   C19   A    
C41   C42   A    
C32   C39   A    
C106  H52   S    
C45   O2    A    
C86   H1    S    
C113  H74   S    
C93   C94   S    
C65   C81   S    
C43   C53   S    
C98   H31   S    
C104  H47   S    
C16   C17   A    
C118  H82   S    
Cr3   O5    S    
Cr5   O16   S    
C8    C79   S    
C105  H54   S    
C77   O7    A    
C70   C71   A    
C87   H10   S    
C46   C103  S    
C47   Cl6   S    
C9    C10   A    
C31   C36   A    
Cr4   O7    S    
C68   C72   A    
C27   C28   A    
C45   O3    A    
C59   C60   A    
C49   C54   A    
C21   C22   T    
C103  H50   S    
C96   H28   S    
C1    C25   S    
C42   C107  S    
C106  H51   S    
C116  H77   S    
C70   C73   A    
C4    C7    S    
C59   C113  S    
C76   C83   S    
Cr6   O10   S    
Cr4   O14   S    
C16   Cl16  S    
C44   C46   A    
C119  H89   S    
C117  C118  S    
C99   H39   S    
Cr2   O5    S    
C40   C45   S    
C12   C67   S    
C81   O15   A    
C19   Cl1   S    
C17   C24   A    
C95   H30   S    
C51   C52   S    
C35   C97   S    
C47   C48   A    
C3    Cl14  S    
C79   O10   A    
Cr1   O25   S    
C98   H33   S    
C91   C92   S    
C10   C11   A    
C92   H18   S    
C91   H20   S    
C120  H87   S    
C5    C84   A    
C58   Cl10  S    
C68   C69   A    
C47   C51   A    
Cr3   O22   S    
C111  C112  S    
C101  H45   S    
C117  H85   S    
C60   C61   A    
C116  H78   S    
C61   C64   S    
C48   C54   A    
C85   H4    S    
C88   H7    S    
Cr6   O11   S    
C4    C78   A    
C29   C30   A    
C2    C3    A    
C1    O20   A    
C2    C111  S    
C33   C39   A    
C50   Cl9   S    
C112  H67   S    
C110  H61   S    
C108  H58   S    
C28   C38   S    
C16   C20   A    
C118  H83   S    
C112  H66   S    
C55   C64   T    
C11   C87   S    
C62   C63   S    
C50   C51   A    
C95   C96   S    
C77   O8    A    
C25   C26   A    
C113  H75   S    
C82   O17   A    
C94   H21   S    
C69   C73   A    
C96   H27   S    
C101  H44   S    
C103  H49   S    
C74   C76   T    
C101  C102  S    
C97   H35   S    
Cr4   O19   S    
C6    C8    T    
C40   C41   A    
C110  H62   S    
C108  H57   S    
C89   H15   S    
C30   C95   S    
C114  H72   S    
C43   C44   A    
C107  C108  S    
C89   C90   S    
C49   C50   A    
C23   O1    A    
C2    C5    A    
C80   O6    A    
C42   C43   A    
C40   C46   A    
C105  H55   S    
C88   H6    S    
C54   C82   S    
Cr4   O13   S    
C15   Cl17  S    
C52   C53   T    
C112  H68   S    
C48   Cl5   S    
C97   C98   S    
C115  C116  S    
C25   C30   A    
C57   C109  S    
Cr1   O24   S    
C59   C62   A    
Cr2   O20   S    
C20   C21   S    
C60   Cl11  S    
C107  H60   S    
C31   C32   A    
C9    C23   S    
C27   C101  S    
C71   C117  S    
C105  C106  S    
C91   H19   S    
C29   C93   S    
C120  H88   S    
C90   H12   S    
C57   C61   A    
C90   H11   S    
C81   O14   A    
C49   C105  S    
C114  H73   S    
C107  H59   S    
C80   O11   A    
C26   Cl3   S    
C117  H84   S    
Cr5   O8    S    
C39   C80   S    
C93   H24   S    
C85   H5    S    
C88   H8    S    
Cr6   O18   S    
C95   H29   S    
C18   Cl2   S    
Cr2   O2    S    
C92   H16   S    
Cr1   O5    S    
C72   C75   S    
C57   C58   A    
C120  H86   S    
C87   H9    S    
C109  H65   S    
C66   C75   T    
Cr3   O3    S    
C33   C35   A    
C13   C22   S    
Cr2   O21   S    
C10   Cl18  S    
C82   O16   A    
C115  H80   S    
C78   C85   S    
C93   H25   S    
C69   Cl12  S    
C86   H2    S    
Cr3   O23   S    
C102  H43   S    
C68   C115  S    
C109  H64   S    
C7    C67   T    
C97   H34   S    
C78   C84   A    
C24   C77   S    
C89   H14   S    
C110  H63   S    
C71   C72   A    
C108  H56   S    
C36   C37   S    
C114  H71   S    
C116  H76   S    
Cr5   O15   S    
C96   H26   S    
C56   O24   A    
C14   C15   A    
C104  H46   S    
C103  C104  S    
C35   C36   A    
Cr6   O19   S    
C23   O23   A    
C31   C91   S    
C85   C86   S    
C1    O12   A    
C86   H3    S    
C12   O21   A    
Cr1   O12   S    
C3    C4    A    
C9    C15   A    
C44   Cl7   S    
C119  C120  S    
C113  C114  S    
C13   C14   A    
