data_mof_unit_47404.cif
_audit_creation_date              2013-03-05T15:43:30-0500
_audit_creation_method            fapswitch 2.2
_symmetry_space_group_name_H-M    P1
_symmetry_Int_Tables_number       1
_space_group_crystal_system       triclinic
_cell_length_a                    10.745914
_cell_length_b                    10.932179
_cell_length_c                    9.693948
_cell_angle_alpha                 89.989139
_cell_angle_beta                  89.987529
_cell_angle_gamma                 90.187004
_cell_volume                      1138.80259752

loop_
_atom_site_label
_atom_site_type_symbol
_atom_site_description
_atom_site_fract_x
_atom_site_fract_y
_atom_site_fract_z
_atom_type_partial_charge
O1    O     O_R   0.500020 0.321960 0.617040 -0.580252
O2    O     O_R   0.499980 0.321920 0.382900 -0.577538
C1    C     C_R   0.498244 0.265356 0.500072 0.836612
O3    O     O_R   0.317710 0.500000 0.617070 -0.582029
O4    O     O_R   0.317670 0.499960 0.382930 -0.574786
C2    C     C_R   0.259997 0.499830 0.499840 0.821190
Cu1   Cu    Cu3+1 0.500030 0.500020 0.638630 0.954426
Cu2   Cu    Cu3+1 0.499970 0.499980 0.361370 0.949244
O5    O     O_R   0.500020 0.678080 0.617100 -0.565872
O6    O     O_R   0.499980 0.678040 0.382960 -0.575303
O7    O     O_R   0.682330 0.500040 0.617070 -0.593142
O8    O     O_R   0.682290 0.500000 0.382930 -0.589698
C3    C     C_R   0.500997 0.734646 0.500083 0.893818
C4    C     C_R   0.740074 0.500533 0.499792 0.778770
C5    C     C_3   0.071319 0.387763 0.575616 -0.476588
H1    H     H_    0.106574 0.384721 0.683559 0.177207
H2    H     H_    0.104067 0.303026 0.523425 0.192629
C6    C     C_3   0.927692 0.389824 0.577311 -0.433436
H3    H     H_    0.891255 0.304765 0.528496 0.180436
H4    H     H_    0.894667 0.390327 0.686153 0.179306
H5    H     H_    0.099967 0.606857 0.687755 0.085141
H6    H     H_    0.895708 0.617755 0.682526 0.138129
C7    C     C_3   0.073808 0.618427 0.577084 0.229297
C8    C     C_3   0.071113 0.497682 0.349185 -0.349492
C9    C     C_3   0.122207 0.502379 0.499491 0.017709
H7    H     H_    0.106690 0.574449 0.285430 0.224539
H8    H     H_    0.103544 0.412408 0.297707 0.161412
C10   C     C_3   0.878105 0.504084 0.499322 0.108586
C11   C     C_3   0.928128 0.621991 0.573342 -0.093342
C12   C     C_3   0.928840 0.498659 0.349161 -0.366078
H9    H     H_    0.894525 0.414116 0.297300 0.172334
H10   H     H_    0.894976 0.577077 0.286832 0.181044
C13   C     C_2   0.495180 0.932990 0.386886 -0.118615
C14   C     C_2   0.507026 0.866643 0.502317 -0.267025
H11   H     H_    0.482902 0.888236 0.287746 0.169675
H12   H     H_    0.524179 0.907682 0.602059 0.141519
C15   C     C_2   0.500888 0.066961 0.386762 -0.158386
C16   C     C_2   0.491454 0.133363 0.502429 -0.308431
H13   H     H_    0.511405 0.111656 0.287312 0.166581
H14   H     H_    0.475761 0.092356 0.602515 0.156724
C17   C     C_2   0.424698 0.432954 0.922130 -0.057717
N1    N     N_2   0.498630 0.498660 0.846910 -0.278841
H15   H     H_    0.357356 0.374554 0.870743 0.146911
H16   H     H_    0.564210 0.552733 0.893886 0.190744
C18   C     C_2   0.426220 0.431295 0.077865 -0.065503
N2    N     N_2   0.498590 0.498630 0.153040 -0.281995
H17   H     H_    0.361749 0.369831 0.129298 0.147144
H18   H     H_    0.558446 0.558798 0.106040 0.191027
N3    N     N_R   0.134161 0.732150 0.529548 0.119567
O9    O     O_R   0.197160 0.798294 0.616801 -0.375450
O10   O     O_R   0.128952 0.766937 0.401325 -0.387070
C19   C     C_3   0.872976 0.742138 0.516159 -0.764057
H19   H     H_    0.770431 0.742803 0.528865 0.191124
H20   H     H_    0.909918 0.821519 0.574958 0.255838
H21   H     H_    0.894420 0.755178 0.405369 0.261961

loop_
_geom_bond_atom_site_label_1
_geom_bond_atom_site_label_2
_geom_bond_distance
_ccdc_geom_bond_type
C5    C6    1.543724 S    
C16   H14   1.081667 S    
C19   H21   1.107477 S    
C5    H2    1.113638 S    
C15   C16   1.339859 D    
H6    C11   1.115120 S    
O4    Cu2   1.970051 S    
C17   N1    1.294092 D    
C14   H12   1.081581 S    
C8    H8    1.114334 S    
Cu2   O8    1.970357 S    
N3    O10   1.301061 A    
C10   C12   1.555495 S    
O2    C1    1.293272 A    
O8    C4    1.291993 A    
C3    C14   1.444428 S    
C15   H13   1.086442 S    
Cu1   N1    2.019161 S    
C18   N2    1.294001 D    
C8    C9    1.557985 S    
Cu1   O7    1.970051 S    
C17   H15   1.084748 S    
O4    C2    1.291587 A    
N1    H16   1.025165 S    
O3    Cu1   1.970356 S    
C7    C11   1.566501 S    
O3    C2    1.294750 A    
C10   C11   1.568854 S    
C13   H11   1.086385 S    
C19   H20   1.110677 S    
C13   C15   1.465679 S    
C13   C14   1.339690 D    
C6    H4    1.113131 S    
C7    C9    1.565339 S    
H5    C7    1.116384 S    
C12   H9    1.113993 S    
O7    C4    1.295089 A    
C8    C12   1.528924 S    
C7    N3    1.474104 S    
C2    C9    1.481035 S    
C5    C9    1.551972 S    
C5    H1    1.113471 S    
C12   H10   1.111015 S    
N2    H18   1.025163 S    
Cu1   Cu2   2.687744 S    
C6    C10   1.555622 S    
C19   H19   1.108818 S    
Cu2   O6    1.957842 S    
N3    O9    1.301497 A    
C18   H17   1.084776 S    
Cu1   O5    1.957703 S    
O5    C3    1.291885 A    
C6    H3    1.113464 S    
C17   C18   1.509881 S    
Cu2   N2    2.019654 S    
C4    C10   1.483651 S    
O1    Cu1   1.957842 S    
O6    C3    1.293210 A    
O2    Cu2   1.957703 S    
C1    C16   1.444749 S    
C8    H7    1.109081 S    
O1    C1    1.291966 A    
C11   C19   1.545533 S    
