data_mof_unit_18754.cif
_audit_creation_date              2013-03-05T16:43:53-0500
_audit_creation_method            fapswitch 2.2
_symmetry_space_group_name_H-M    P1
_symmetry_Int_Tables_number       1
_space_group_crystal_system       triclinic
_cell_length_a                    9.869365
_cell_length_b                    10.690776
_cell_length_c                    16.779669
_cell_angle_alpha                 89.613468
_cell_angle_beta                  85.282726
_cell_angle_gamma                 89.048353
_cell_volume                      1764.17629628

loop_
_atom_site_label
_atom_site_type_symbol
_atom_site_description
_atom_site_fract_x
_atom_site_fract_y
_atom_site_fract_z
_atom_type_partial_charge
O1    O     O_R   0.385310 0.683210 0.499990 -0.589618
O2    O     O_R   0.614650 0.683240 0.500000 -0.566249
C1    C     C_R   0.499579 0.739915 0.497629 0.890195
O3    O     O_R   0.371780 0.500000 0.615800 -0.626276
O4    O     O_R   0.601120 0.500040 0.615800 -0.533023
C2    C     C_R   0.481522 0.495154 0.652736 1.007849
Zn1   Zn    Zn3+2 0.346870 0.499980 0.499990 0.996192
Zn2   Zn    Zn3+2 0.653130 0.500020 0.500010 1.050398
O5    O     O_R   0.385350 0.316760 0.500000 -0.642409
O6    O     O_R   0.614690 0.316790 0.500010 -0.584063
O7    O     O_R   0.398880 0.499960 0.384200 -0.636691
O8    O     O_R   0.628220 0.500000 0.384200 -0.644936
C3    C     C_R   0.500873 0.260365 0.502155 0.959395
C4    C     C_R   0.518767 0.498145 0.346754 0.870140
C5    C     C_R   0.470764 0.458758 0.736261 -0.252169
C6    C     C_R   0.534353 0.344976 0.757323 0.519793
C7    C     C_R   0.522488 0.307327 0.837695 -0.261740
C8    C     C_R   0.440213 0.375311 0.893387 0.049204
C9    C     C_R   0.370000 0.482637 0.871213 -0.225534
C10   C     C_R   0.387467 0.527842 0.793056 0.190631
C11   C     C_R   0.418517 0.445673 0.140817 -0.230734
C12   C     C_R   0.410830 0.469491 0.221615 -0.192318
C13   C     C_R   0.656755 0.480931 0.216258 -0.331775
C14   C     C_R   0.665614 0.454807 0.134274 0.560469
C15   C     C_R   0.545409 0.434823 0.096917 0.080813
C16   C     C_2   0.452203 0.353200 0.977445 -0.219273
C17   C     C_2   0.551479 0.412156 0.010892 -0.162667
C18   C     C_R   0.529535 0.484876 0.260233 -0.082816
H1    H     H_    0.311224 0.474725 0.253779 0.157371
H2    H     H_    0.748750 0.497533 0.245299 0.155676
H3    H     H_    0.633085 0.454804 0.972980 0.194377
H4    H     H_    0.311264 0.536902 0.916635 0.192871
H5    H     H_    0.324036 0.438287 0.112878 0.151751
H6    H     H_    0.369427 0.307704 0.012304 0.161060
H7    H     H_    0.580586 0.228314 0.858044 0.162180
C19   C     C_R   0.619782 0.936239 0.478377 -0.078863
C20   C     C_R   0.499026 0.872314 0.497075 -0.093158
C21   C     C_R   0.382736 0.937139 0.528909 -0.115488
H8    H     H_    0.290207 0.889364 0.547643 0.244076
C22   C     C_R   0.384318 0.065746 0.534388 -0.215607
H9    H     H_    0.291758 0.115560 0.555271 0.170641
C23   C     C_R   0.503326 0.128749 0.508909 -0.054232
C24   C     C_R   0.623524 0.062258 0.488655 -0.193660
C25   C     C_3   0.733799 0.080229 0.422081 0.857341
C26   C     C_3   0.725872 0.937417 0.407531 0.798428
C27   C     C_R   0.918877 0.495654 0.570304 0.144894
N1    N     N_R   0.857140 0.500860 0.500530 -0.087097
C28   C     C_R   0.937910 0.492595 0.430439 -0.066496
H10   H     H_    0.892101 0.488758 0.374204 0.119115
C29   C     C_R   0.081654 0.491987 0.430476 -0.064641
H11   H     H_    0.142952 0.487330 0.374216 0.122180
N2    N     N_R   0.142780 0.500820 0.500530 -0.067690
C30   C     C_R   0.060877 0.498825 0.570137 -0.036951
C31   C     C_3   0.050598 0.593699 0.636022 -0.051415
C32   C     C_3   0.893678 0.582677 0.639453 0.819344
H12   H     H_    0.100996 0.559084 0.688793 0.129093
O9    O     O_3   0.614290 0.278911 0.698840 -0.587303
C33   C     C_3   0.602564 0.148071 0.709113 -0.341515
H13   H     H_    0.495378 0.119586 0.724192 0.180850
H14   H     H_    0.669937 0.113230 0.754517 0.174484
H15   H     H_    0.637941 0.101704 0.652309 0.185083
O10   O     O_3   0.789407 0.458482 0.089092 -0.616050
C34   C     C_3   0.869658 0.354007 0.108344 -0.355057
H16   H     H_    0.814801 0.264794 0.102197 0.162827
H17   H     H_    0.904549 0.362353 0.169365 0.148348
H18   H     H_    0.961704 0.350566 0.065714 0.203748
O11   O     O_3   0.681777 0.154403 0.360570 -0.612636
C35   C     C_3   0.782408 0.177805 0.297891 -0.196322
H19   H     H_    0.854842 0.248655 0.316099 0.170316
H20   H     H_    0.731496 0.216848 0.246593 0.168058
H21   H     H_    0.837463 0.091209 0.276835 0.152574
O12   O     O_3   0.862652 0.123287 0.444013 -0.652990
C36   C     C_3   0.884002 0.109812 0.525894 -0.290007
H22   H     H_    0.864966 0.012956 0.547987 0.204620
H23   H     H_    0.820817 0.178954 0.562054 0.200371
H24   H     H_    0.991959 0.130170 0.533661 0.198704
O13   O     O_3   0.674312 0.913372 0.332270 -0.641018
C37   C     C_3   0.646058 0.786235 0.321128 -0.295469
H25   H     H_    0.537427 0.768980 0.339124 0.153375
H26   H     H_    0.712878 0.720832 0.352174 0.206909
H27   H     H_    0.662483 0.765503 0.256351 0.187988
O14   O     O_3   0.844120 0.866968 0.424067 -0.599554
C38   C     C_3   0.948400 0.876662 0.361433 -0.227428
H28   H     H_    0.915542 0.845308 0.303204 0.155531
H29   H     H_    0.034059 0.814220 0.375723 0.207048
H30   H     H_    0.988613 0.972743 0.355800 0.180988
N3    N     N_R   0.097199 0.717663 0.609343 0.241186
O15   O     O_R   0.138753 0.794408 0.661575 -0.359529
O16   O     O_R   0.073178 0.760465 0.538933 -0.380276
O17   O     O_3   0.825064 0.514865 0.703804 -0.614650
C39   C     C_3   0.877121 0.535275 0.778499 -0.363741
H31   H     H_    0.793914 0.521539 0.826210 0.209198
H32   H     H_    0.916583 0.630928 0.785405 0.177584
H33   H     H_    0.958033 0.464716 0.788168 0.188394
O18   O     O_3   0.820663 0.689693 0.614314 -0.553997
C40   C     C_3   0.782795 0.771080 0.678225 -0.169986
H34   H     H_    0.872579 0.803310 0.707633 0.163725
H35   H     H_    0.707043 0.727275 0.722021 0.190566
H36   H     H_    0.733070 0.855270 0.653900 0.163749
N4    N     N_R   0.328167 0.647092 0.773876 0.221802
O19   O     O_R   0.219755 0.688522 0.815508 -0.392806
O20   O     O_R   0.392879 0.722504 0.723391 -0.395585

loop_
_geom_bond_atom_site_label_1
_geom_bond_atom_site_label_2
_geom_bond_distance
_ccdc_geom_bond_type
N3    O15   1.299805 A    
C34   H17   1.111391 S    
C12   H1    1.082643 S    
C36   H22   1.111190 S    
O18   C40   1.408066 S    
C8    C16   1.442682 S    
O17   C39   1.412722 S    
O13   C37   1.408788 S    
N2    C30   1.364908 A    
Zn1   O7    1.968344 S    
C16   C17   1.337150 D    
C20   C21   1.400211 A    
C38   H28   1.110098 S    
C19   C20   1.395892 A    
Zn1   N2    2.013385 S    
C32   O17   1.426735 S    
O4    C2    1.288944 A    
O7    C4    1.293167 A    
C37   H26   1.109712 S    
C11   H5    1.081833 S    
C33   H14   1.110213 S    
C5    C6    1.415542 A    
C40   H36   1.109431 S    
C8    C9    1.394772 A    
O5    C3    1.283893 A    
C2    C5    1.447918 S    
C31   C32   1.551446 S    
C16   H6    1.084833 S    
C26   O14   1.423887 S    
C35   H19   1.111366 S    
C40   H35   1.111279 S    
C27   C32   1.494349 S    
C29   N2    1.369173 A    
C13   C14   1.400952 A    
C33   H15   1.105442 S    
C28   C29   1.418612 A    
C34   H18   1.109350 S    
C12   C18   1.397193 A    
C11   C12   1.376883 A    
C36   H23   1.109912 S    
O3    Zn1   1.978700 S    
C9    H4    1.084254 S    
C3    C23   1.410836 S    
C29   H11   1.079518 S    
C5    C10   1.410672 A    
C31   H12   1.109202 S    
C17   H3    1.088684 S    
O11   C35   1.409977 S    
C13   H2    1.082863 S    
C21   H8    1.076909 S    
C14   C15   1.406607 A    
C32   O18   1.422056 S    
C39   H31   1.109566 S    
C37   H25   1.107804 S    
C6    C7    1.400991 A    
C33   H13   1.114204 S    
C30   C31   1.501508 S    
O1    C1    1.286840 A    
C24   C25   1.507767 S    
O10   C34   1.409603 S    
C39   H32   1.110445 S    
N1    C28   1.367964 A    
C10   N4    1.439467 S    
Zn2   O8    1.978700 S    
C40   H34   1.109860 S    
N4    O20   1.301693 A    
C7    C8    1.387659 A    
C19   C26   1.518268 S    
C13   C18   1.403219 A    
O3    C2    1.291510 A    
C22   H9    1.083792 S    
C38   H29   1.109169 S    
O8    C4    1.294072 A    
N3    O16   1.302530 A    
C36   H24   1.109277 S    
C23   C24   1.391768 A    
C25   C26   1.552065 S    
Zn1   O5    1.989040 S    
C11   C15   1.403218 A    
C27   N1    1.363968 A    
C28   H10   1.080652 S    
C14   O10   1.384864 S    
O1    Zn1   2.001446 S    
Zn2   O6    2.001447 S    
O2    Zn2   1.989039 S    
O12   C36   1.413089 S    
C25   O11   1.421381 S    
O6    C3    1.281614 A    
O4    Zn2   1.968344 S    
C15   C17   1.461489 S    
C9    C10   1.392908 A    
O2    C1    1.281683 A    
Zn2   N1    2.014355 S    
C39   H33   1.110247 S    
C21   C22   1.379027 A    
C37   H27   1.109027 S    
O9    C33   1.413700 S    
C31   N3    1.465144 S    
C35   H21   1.110520 S    
C27   C30   1.402191 A    
C22   C23   1.398498 A    
N4    O19   1.301717 A    
C25   O12   1.436389 S    
C6    O9    1.395603 S    
C34   H16   1.114035 S    
C38   H30   1.107970 S    
C1    C20   1.415337 S    
C35   H20   1.107674 S    
O14   C38   1.413736 S    
C19   C24   1.360873 A    
C26   O13   1.426263 S    
C7    H7    1.082184 S    
C4    C18   1.454654 S    
