data_mof_unit_19886.cif
_audit_creation_date              2012-10-26T21:05:11-0400
_audit_creation_method            fapswitch 2.2
_symmetry_space_group_name_H-M    P1
_symmetry_Int_Tables_number       1
_space_group_crystal_system       triclinic
_cell_length_a                    9.652414
_cell_length_b                    10.751343
_cell_length_c                    13.875692
_cell_angle_alpha                 92.526405
_cell_angle_beta                  85.43423
_cell_angle_gamma                 88.84846
_cell_volume                      1433.60186136

loop_
_atom_site_label
_atom_site_type_symbol
_atom_type_description
_atom_site_fract_x
_atom_site_fract_y
_atom_site_fract_z
_atom_type_partial_charge
C1    C     C_R   0.498697 0.737059 0.501241 0.536876
C2    C     C_R   0.534357 0.929912 0.420358 -0.141347
C3    C     C_R   0.535491 0.058271 0.420288 -0.163802
C4    C     C_R   0.477916 0.500911 0.682662 0.525428
C5    C     C_R   0.501191 0.129083 0.505870 0.007591
C6    C     C_R   0.884845 0.375025 0.341535 0.060480
C7    C     C_R   0.970370 0.367529 0.254893 -0.138034
C8    C     C_R   0.111919 0.352407 0.261060 -0.183058
C9    C     C_R   0.165256 0.371551 0.350240 -0.078224
C10   C     C_R   0.085401 0.436386 0.426434 0.143472
C11   C     C_R   0.936795 0.437078 0.424650 0.159596
C12   C     C_1   0.465283 0.500655 0.785732 -0.033146
C13   C     C_R   0.916749 0.560463 0.570717 -0.003638
C14   C     C_R   0.064232 0.560923 0.570419 -0.001351
C15   C     C_R   0.500787 0.262846 0.500975 0.518529
C16   C     C_R   0.522051 0.499808 0.317367 0.529595
C17   C     C_1   0.534624 0.498504 0.214279 -0.026200
C18   C     C_2   0.557010 0.496424 0.023849 -0.124249
C19   C     C_2   0.442642 0.499867 0.976087 -0.126602
C20   C     C_1   0.454238 0.500259 0.872510 -0.058791
C21   C     C_1   0.545520 0.497388 0.127459 -0.057204
C22   C     C_3   0.801008 0.259033 0.351076 -0.337646
C23   C     C_R   0.420247 0.881705 0.680012 -0.107189
C24   C     C_R   0.384987 0.952531 0.765442 -0.122114
C25   C     C_R   0.387732 0.082000 0.765683 -0.120763
C26   C     C_R   0.425751 0.141418 0.680495 -0.096369
C27   C     C_R   0.461625 0.071541 0.593170 0.030754
C28   C     C_R   0.458705 0.940147 0.592951 0.022679
C29   C     C_R   0.495938 0.871015 0.505549 0.010532
Cu1   Cu    Cu3+1 0.359340 0.500010 0.500010 0.926349
Cu2   Cu    Cu3+1 0.640660 0.499990 0.499990 0.934642
H1    H     H_    0.339906 0.502909 0.014476 0.133037
H2    H     H_    0.360551 0.136649 0.832165 0.114951
H3    H     H_    0.427145 0.241953 0.683705 0.127686
H4    H     H_    0.561115 0.102252 0.352734 0.095240
H5    H     H_    0.854466 0.610668 0.628602 0.120057
H6    H     H_    0.840415 0.182471 0.298724 0.089868
H7    H     H_    0.811523 0.218890 0.422486 0.159110
H8    H     H_    0.692874 0.277538 0.334057 0.149936
H9    H     H_    0.928676 0.335777 0.188038 0.119234
H10   H     H_    0.177822 0.315424 0.199189 0.118340
H11   H     H_    0.267459 0.334538 0.357031 0.175785
H12   H     H_    0.111021 0.611645 0.628056 0.117943
H13   H     H_    0.659741 0.493490 0.985467 0.133899
H14   H     H_    0.562117 0.876066 0.353433 0.119668
H15   H     H_    0.417360 0.781362 0.682801 0.116377
H16   H     H_    0.355666 0.906765 0.831738 0.114163
N1    N     N_R   0.852210 0.498790 0.499090 -0.237522
N2    N     N_R   0.148080 0.498710 0.499060 -0.239521
O1    O     O_R   0.381190 0.680360 0.500010 -0.492669
O2    O     O_R   0.618760 0.680340 0.500000 -0.492399
O3    O     O_R   0.364420 0.499990 0.637850 -0.505275
O4    O     O_R   0.601990 0.499960 0.637840 -0.496275
O5    O     O_R   0.381240 0.319660 0.500000 -0.514309
O6    O     O_R   0.618810 0.319640 0.499990 -0.511408
O7    O     O_R   0.398010 0.500040 0.362160 -0.510001
O8    O     O_R   0.635580 0.500010 0.362150 -0.492710

loop_
_geom_bond_atom_site_label_1
_geom_bond_atom_site_label_2
_ccdc_geom_bond_type
C13   N1    A    
C7    H9    S    
C16   O7    A    
C24   C25   A    
C6    C7    A    
C18   H13   S    
C4    O4    A    
C4    C12   S    
C18   C21   S    
Cu1   O5    S    
C9    C10   A    
C19   C20   S    
C3    H4    S    
C16   O8    A    
C24   H16   S    
C1    C29   S    
C2    C3    A    
Cu1   O1    S    
C7    C8    A    
C23   H15   S    
C5    C27   A    
C23   C28   A    
Cu2   O4    S    
C1    O2    A    
Cu2   O8    S    
C11   N1    A    
C10   N2    A    
C12   C20   T    
C4    O3    A    
C2    C29   A    
C9    H11   S    
C22   H8    S    
C28   C29   A    
Cu1   N2    S    
C15   O6    A    
Cu2   N1    S    
C2    H14   S    
C26   C27   A    
Cu1   Cu2   S    
C5    C15   S    
C14   N2    A    
C16   C17   S    
C10   C11   A    
C19   H1    S    
C23   C24   A    
C6    C22   S    
C15   O5    A    
C6    C11   A    
C8    H10   S    
C13   H5    S    
C18   C19   D    
C1    O1    A    
C25   H2    S    
C27   C28   A    
Cu1   O3    S    
C8    C9    A    
Cu2   O6    S    
C25   C26   A    
C13   C14   A    
C22   H6    S    
Cu1   O7    S    
C26   H3    S    
C17   C21   T    
Cu2   O2    S    
C14   H12   S    
C3    C5    A    
C22   H7    S    
