data_mof_unit_29711.cif
_audit_creation_date              2012-12-10T19:42:55-0500
_audit_creation_method            fapswitch 2.2
_symmetry_space_group_name_H-M    P1
_symmetry_Int_Tables_number       1
_space_group_crystal_system       triclinic
_cell_length_a                    10.900107
_cell_length_b                    12.963946
_cell_length_c                    11.738556
_cell_angle_alpha                 99.006924
_cell_angle_beta                  95.194606
_cell_angle_gamma                 92.014029
_cell_volume                      1629.5223034

loop_
_atom_site_label
_atom_site_type_symbol
_atom_type_description
_atom_site_fract_x
_atom_site_fract_y
_atom_site_fract_z
_atom_type_partial_charge
C1    C     C_R   0.495805 0.299381 0.479157 0.833603
C2    C     C_R   0.499969 0.700595 0.521101 0.832152
C3    C     C_R   0.872072 0.500785 0.504287 -0.088122
C4    C     C_R   0.128105 0.503674 0.495977 -0.089508
C5    C     C_R   0.951616 0.521672 0.608330 0.018614
C6    C     C_R   0.048540 0.482488 0.392109 0.018179
C7    C     C_R   0.499392 0.813874 0.534564 -0.148608
C8    C     C_R   0.486636 0.186245 0.467773 -0.135223
C9    C     C_R   0.422936 0.016887 0.353904 0.518950
C10   C     C_R   0.554637 0.983497 0.650681 0.515042
C11   C     C_R   0.434120 0.125799 0.364325 -0.285969
C12   C     C_R   0.549703 0.874776 0.638634 -0.270952
C13   C     C_R   0.526797 0.138973 0.562243 -0.236404
C14   C     C_R   0.450752 0.861257 0.442904 -0.257029
C15   C     C_R   0.514529 0.031026 0.554983 -0.003211
C16   C     C_R   0.461266 0.969482 0.450309 0.007785
C17   C     C_R   0.410044 0.382594 0.022233 -0.338832
C18   C     C_R   0.593276 0.615904 0.977517 -0.335129
C19   C     C_R   0.412459 0.397683 0.143259 0.047315
C20   C     C_R   0.585071 0.603614 0.856372 0.042297
C21   C     C_R   0.543039 0.550926 0.158547 0.419193
C22   C     C_R   0.465185 0.445150 0.842502 0.420791
C23   C     C_R   0.262118 0.501073 0.498567 0.785850
C24   C     C_R   0.737931 0.500202 0.501557 0.797914
C25   C     C_R   0.535088 0.542509 0.034773 -0.027161
C26   C     C_R   0.468942 0.456237 0.965970 -0.025344
C27   C     C_R   0.140613 0.523095 0.100274 -0.191435
C28   C     C_R   0.854735 0.458468 0.890771 -0.201657
C29   C     C_R   0.121425 0.542954 0.217461 -0.131401
C30   C     C_R   0.877917 0.447296 0.774623 -0.129012
C31   C     C_R   0.089671 0.460264 0.274847 0.109054
C32   C     C_R   0.910347 0.535335 0.726007 0.110205
C33   C     C_R   0.079060 0.357504 0.214467 -0.247860
C34   C     C_R   0.919041 0.634658 0.794709 -0.248950
C35   C     C_R   0.096521 0.337263 0.096152 0.291005
C36   C     C_R   0.897313 0.646396 0.912197 0.294872
C37   C     C_R   0.125801 0.421243 0.039416 -0.109378
C38   C     C_R   0.866220 0.556977 0.959765 -0.099222
C39   C     C_R   0.922104 0.482030 0.397883 -0.243013
C40   C     C_R   0.078069 0.525751 0.602142 -0.248772
Cu1   Cu    Cu3+1 0.509250 0.507730 0.615930 0.959547
Cu2   Cu    Cu3+1 0.490750 0.492270 0.384070 0.959133
H1    H     H_    0.139910 0.407812 0.948725 0.138571
H2    H     H_    0.846709 0.563354 0.049166 0.128654
H3    H     H_    0.630408 0.661421 0.815253 0.142178
H4    H     H_    0.364683 0.341088 0.184192 0.141130
H5    H     H_    0.360117 0.313684 0.973975 0.170179
H6    H     H_    0.646753 0.682978 0.023859 0.186612
H7    H     H_    0.165408 0.586703 0.055845 0.148123
H8    H     H_    0.828543 0.390624 0.927851 0.148271
H9    H     H_    0.128358 0.622724 0.262783 0.133346
H10   H     H_    0.872638 0.370023 0.723029 0.130152
H11   H     H_    0.053592 0.293791 0.258771 0.129511
H12   H     H_    0.944732 0.702522 0.757097 0.129035
H13   H     H_    0.862425 0.465838 0.317371 0.160214
H14   H     H_    0.137758 0.544924 0.682186 0.161773
H15   H     H_    0.407845 0.813139 0.364705 0.204049
H16   H     H_    0.568165 0.186697 0.641427 0.201091
H17   H     H_    0.587573 0.838270 0.710142 0.161159
H18   H     H_    0.399443 0.163218 0.292458 0.157300
N1    N     N_R   0.523180 0.519350 0.790130 -0.189516
N2    N     N_R   0.476820 0.480650 0.209870 -0.193957
O1    O     O_R   0.506570 0.354460 0.582000 -0.557477
O2    O     O_R   0.493430 0.645540 0.418000 -0.556059
O3    O     O_R   0.490940 0.341410 0.386200 -0.602204
O4    O     O_R   0.509060 0.658590 0.613800 -0.600963
O5    O     O_R   0.327460 0.506540 0.597900 -0.572745
O6    O     O_R   0.672540 0.493460 0.402100 -0.573837
O7    O     O_R   0.311830 0.493480 0.402100 -0.578997
O8    O     O_R   0.688170 0.506520 0.597900 -0.579132
N3    N     N_2   0.406828 0.354017 0.772740 -0.391053
H19   H     H_    0.441143 0.284716 0.791145 0.225492
C41   C     C_3   0.273702 0.351126 0.751956 -0.659293
H20   H     H_    0.231797 0.291146 0.796534 0.196898
H21   H     H_    0.246372 0.329041 0.657682 0.240205
H22   H     H_    0.236627 0.428054 0.782775 0.212646
N4    N     N_2   0.634709 0.619804 0.228857 -0.385688
H23   H     H_    0.723862 0.599655 0.217026 0.222625
C42   C     C_3   0.618640 0.731415 0.241558 -0.682109
H24   H     H_    0.688402 0.770303 0.197130 0.200295
H25   H     H_    0.636464 0.765804 0.334190 0.247693
H26   H     H_    0.524448 0.748820 0.207544 0.232087
N5    N     N_2   0.090115 0.232477 0.036214 -0.452014
H27   H     H_    0.090802 0.176073 0.089272 0.252688
C43   C     C_3   0.997663 0.209078 0.938061 -0.699723
H28   H     H_    0.003051 0.126500 0.896590 0.236092
H29   H     H_    0.013270 0.259563 0.872118 0.224905
H30   H     H_    0.904078 0.219837 0.967133 0.229774
N6    N     N_2   0.898405 0.748376 0.979030 -0.454605
H31   H     H_    0.906480 0.808976 0.932298 0.251748
C44   C     C_3   0.975110 0.766060 0.088219 -0.704057
H32   H     H_    0.966370 0.847442 0.132071 0.235033
H33   H     H_    0.073275 0.755417 0.073037 0.231910
H34   H     H_    0.945617 0.712756 0.146955 0.225050
O9    O     O_3   0.367312 0.956795 0.253086 -0.590294
C45   C     C_3   0.440795 0.963676 0.161254 -0.376067
H35   H     H_    0.539491 0.950473 0.185730 0.163318
H36   H     H_    0.431944 0.040028 0.130305 0.167489
H37   H     H_    0.407452 0.901682 0.087605 0.191776
O10   O     O_3   0.608760 0.042739 0.752318 -0.590228
C46   C     C_3   0.523163 0.048942 0.836009 -0.378560
H38   H     H_    0.503992 0.971222 0.861356 0.167234
H39   H     H_    0.435715 0.082111 0.804998 0.162292
H40   H     H_    0.563383 0.102231 0.914840 0.190673

loop_
_geom_bond_atom_site_label_1
_geom_bond_atom_site_label_2
_ccdc_geom_bond_type
C36   N6    S    
C8    C13   A    
C27   C29   A    
C1    C8    S    
C41   H20   S    
C23   O7    A    
C2    C7    S    
Cu1   N1    S    
C19   H4    S    
C24   O8    A    
Cu1   O5    S    
C43   H28   S    
C46   H38   S    
C17   C26   A    
C35   C37   A    
C9    C16   A    
C10   C15   A    
C19   N2    A    
C15   C16   A    
C45   H37   S    
Cu1   Cu2   S    
C23   O5    A    
C20   N1    A    
C30   H10   S    
C17   C19   A    
C12   H17   S    
C28   H8    S    
C7    C14   A    
C39   H13   S    
C4    C40   A    
C40   H14   S    
C45   H36   S    
Cu2   O3    S    
C1    O3    A    
C31   C33   A    
N6    C44   S    
C9    O9    S    
C34   C36   A    
C20   H3    S    
Cu2   N2    S    
C5    C32   S    
C43   H29   S    
C6    C31   S    
C3    C39   A    
C46   H39   S    
Cu2   O6    S    
C41   H21   S    
C3    C24   S    
C18   C25   A    
C1    O1    A    
C2    O2    A    
N4    C42   S    
C33   H11   S    
C7    C12   A    
C4    C6    A    
C44   H32   S    
N3    C41   S    
C4    C23   S    
C35   N5    S    
C13   H16   S    
C3    C5    A    
C25   C26   A    
N4    H23   S    
Cu2   O7    S    
C32   C34   A    
C37   H1    S    
C38   H2    S    
C44   H33   S    
N5    H27   S    
C28   C38   A    
C45   H35   S    
C10   O10   S    
C9    C11   A    
C21   N2    A    
C10   C12   A    
N5    C43   S    
C34   H12   S    
C46   H40   S    
C13   C15   A    
C41   H22   S    
C14   C16   A    
Cu1   O1    S    
C11   H18   S    
Cu2   O2    S    
C22   N3    S    
C42   H25   S    
C29   H9    S    
C43   H30   S    
C14   H15   S    
C21   C25   A    
C17   H5    S    
C2    O4    A    
C18   H6    S    
C42   H26   S    
Cu1   O4    S    
C36   C38   A    
N3    H19   S    
C29   C31   A    
C44   H34   S    
C30   C32   A    
C27   C37   A    
C8    C11   A    
C28   C30   A    
O10   C46   S    
C33   C35   A    
C18   C20   A    
C24   O6    A    
C42   H24   S    
C22   C26   A    
C5    C40   A    
C21   N4    S    
O9    C45   S    
C6    C39   A    
N6    H31   S    
C27   H7    S    
Cu1   O8    S    
C22   N1    A    
