data_mof_unit_21010.cif
_audit_creation_date              2012-12-10T17:51:23-0500
_audit_creation_method            fapswitch 2.2
_symmetry_space_group_name_H-M    P1
_symmetry_Int_Tables_number       1
_space_group_crystal_system       triclinic
_cell_length_a                    9.911061
_cell_length_b                    10.617052
_cell_length_c                    16.612141
_cell_angle_alpha                 92.128283
_cell_angle_beta                  86.193436
_cell_angle_gamma                 89.972815
_cell_volume                      1742.96617379

loop_
_atom_site_label
_atom_site_type_symbol
_atom_type_description
_atom_site_fract_x
_atom_site_fract_y
_atom_site_fract_z
_atom_type_partial_charge
C1    C     C_R   0.499885 0.739356 0.499782 0.835324
C2    C     C_R   0.528543 0.534280 0.260471 -0.227165
C3    C     C_R   0.465778 0.860248 0.349511 -0.152018
C4    C     C_R   0.482454 0.507699 0.653555 0.834103
C5    C     C_R   0.455373 0.921650 0.277388 -0.154478
C6    C     C_R   0.463141 0.052554 0.276611 -0.091801
C7    C     C_R   0.479159 0.122342 0.348194 -0.133399
C8    C     C_R   0.487566 0.061361 0.421856 0.063549
C9    C     C_R   0.483637 0.929595 0.422268 0.093873
C10   C     C_R   0.499957 0.871367 0.495820 -0.064984
C11   C     C_R   0.519085 0.939315 0.567274 -0.221053
C12   C     C_R   0.351574 0.565819 0.783403 -0.207096
C13   C     C_R   0.519072 0.068319 0.567274 -0.192215
C14   C     C_R   0.501948 0.128063 0.495575 -0.086018
C15   C     C_R   0.848596 0.670424 0.603089 -0.157003
C16   C     C_R   0.500316 0.260598 0.499615 0.869692
C17   C     C_R   0.912968 0.754027 0.654268 -0.203239
C18   C     C_R   0.052544 0.753223 0.654905 -0.188488
C19   C     C_R   0.128516 0.669168 0.604133 -0.145797
C20   C     C_R   0.066709 0.584061 0.550816 0.157380
C21   C     C_R   0.922149 0.584272 0.550603 0.169338
C22   C     C_R   0.933791 0.418289 0.452265 -0.100726
C23   C     C_R   0.434184 0.572843 0.133136 -0.291961
C24   C     C_R   0.076800 0.417823 0.452687 -0.007935
C25   C     C_R   0.517600 0.502318 0.346083 0.886829
C26   C     C_R   0.475730 0.552613 0.738077 -0.033847
C27   C     C_R   0.593445 0.601393 0.769802 -0.220011
C28   C     C_R   0.587862 0.662690 0.844746 -0.160146
C29   C     C_R   0.465976 0.668288 0.892516 0.205794
C30   C     C_R   0.347067 0.622415 0.860738 -0.163404
C31   C     C_3   0.791107 0.714448 0.131428 -0.415205
C32   C     C_3   0.767849 0.856531 0.130278 -0.834339
C33   C     C_R   0.419784 0.522838 0.209415 0.434033
C34   C     C_R   0.648293 0.594525 0.232431 -0.288286
C35   C     C_R   0.661535 0.645922 0.156293 0.193550
C36   C     C_R   0.552730 0.634825 0.106160 0.089639
C37   C     C_2   0.464872 0.700802 0.979202 -0.251882
C38   C     C_2   0.569594 0.666891 0.020994 -0.177517
H1    H     H_    0.690551 0.594458 0.736415 0.159951
H2    H     H_    0.853889 0.818897 0.694266 0.149522
H3    H     H_    0.102407 0.817529 0.695367 0.152240
H4    H     H_    0.234918 0.672869 0.609152 0.198768
H5    H     H_    0.134700 0.350134 0.414419 0.199621
H6    H     H_    0.731029 0.606709 0.271464 0.198379
H7    H     H_    0.664760 0.638325 0.989935 0.150929
H8    H     H_    0.251921 0.626058 0.896855 0.127897
H9    H     H_    0.353359 0.559298 0.093100 0.181673
H10   H     H_    0.258748 0.531874 0.759434 0.157716
H11   H     H_    0.368786 0.726356 0.010962 0.152985
H12   H     H_    0.532384 0.892177 0.623055 0.134050
H13   H     H_    0.680365 0.701886 0.866037 0.126119
H14   H     H_    0.693063 0.879553 0.086148 0.261943
H15   H     H_    0.730755 0.893319 0.191227 0.267919
H16   H     H_    0.864581 0.904076 0.112784 0.255731
H17   H     H_    0.870202 0.697315 0.174238 0.218067
H18   H     H_    0.833495 0.678431 0.071481 0.193399
H19   H     H_    0.123299 0.486304 0.145505 0.349307
H20   H     H_    0.459986 0.758811 0.347891 0.144019
H21   H     H_    0.442509 0.867486 0.221920 0.157989
H22   H     H_    0.456834 0.100122 0.220460 0.171206
H23   H     H_    0.486667 0.223666 0.345415 0.152352
H24   H     H_    0.531732 0.121860 0.623138 0.142427
H25   H     H_    0.884444 0.351613 0.413181 0.159936
H26   H     H_    0.741182 0.674633 0.607414 0.196092
N1    N     N_R   0.857140 0.501200 0.500750 -0.126892
N2    N     N_R   0.142740 0.501280 0.500770 -0.126905
O1    O     O_R   0.385310 0.683220 0.500000 -0.630177
O2    O     O_2   0.178315 0.534190 0.291416 -0.325591
O3    O     O_3   0.180299 0.411577 0.153222 -0.548492
O4    O     O_R   0.614640 0.683250 0.500010 -0.629042
O5    O     O_R   0.371780 0.500010 0.615800 -0.639076
O6    O     O_R   0.601110 0.500030 0.615800 -0.634287
O7    O     O_R   0.385360 0.316750 0.499990 -0.606774
O8    O     O_R   0.614690 0.316780 0.500000 -0.611457
O9    O     O_R   0.398890 0.499970 0.384200 -0.533291
O10   O     O_R   0.628220 0.499990 0.384200 -0.620501
O11   O     O_2   0.288997 0.327488 0.277840 -0.317832
S1    S     S_3+6 0.264291 0.447294 0.235870 0.001085
Zn1   Zn    Zn3+2 0.346870 0.499980 0.499990 0.984890
Zn2   Zn    Zn3+2 0.653130 0.500020 0.500010 0.941016

loop_
_geom_bond_atom_site_label_1
_geom_bond_atom_site_label_2
_ccdc_geom_bond_type
C19   C20   A    
C12   H10   S    
O5    Zn1   S    
C7    C8    A    
O11   S1    D    
N2    Zn1   S    
C26   C27   A    
C37   C38   D    
C16   O8    A    
C22   C24   A    
C20   N2    A    
C28   C29   A    
C18   C19   A    
C5    C6    A    
C28   H13   S    
C33   S1    S    
C34   C35   A    
C32   H14   S    
C38   H7    S    
C22   H25   S    
C7    H23   S    
C13   H24   S    
C35   C36   A    
C27   H1    S    
C8    C9    A    
C23   C33   A    
C15   H26   S    
C31   H18   S    
C9    C10   A    
C19   H4    S    
C24   N2    A    
C21   N1    A    
C2    C34   A    
N1    Zn2   S    
O8    Zn2   S    
C13   C14   A    
O3    S1    S    
C32   H16   S    
O2    S1    D    
C23   H9    S    
C5    H21   S    
O4    Zn2   S    
C16   O7    A    
C6    H22   S    
O1    Zn1   S    
C18   H3    S    
C12   C26   A    
C25   O9    A    
C17   H2    S    
C22   N1    A    
C29   C30   A    
C3    C9    A    
C37   H11   S    
C31   C32   S    
C17   C18   A    
O7    Zn1   S    
C34   H6    S    
C2    C33   A    
C14   C16   S    
C32   H15   S    
C4    O6    A    
C15   C17   A    
C8    C14   A    
C12   C30   A    
C30   H8    S    
C1    C10   S    
O10   Zn2   S    
C3    C5    A    
C4    C26   S    
C6    C7    A    
C1    O4    A    
C25   O10   A    
C31   H17   S    
C36   C38   S    
O6    Zn2   S    
C11   H12   S    
C11   C13   A    
C1    O1    A    
C2    C25   S    
C31   C35   S    
C10   C11   A    
C3    H20   S    
C15   C21   A    
C20   C21   A    
C23   C36   A    
C29   C37   S    
C27   C28   A    
C24   H5    S    
H19   O3    S    
O9    Zn1   S    
C4    O5    A    
