data_mof_unit_7020.cif
_audit_creation_date              2012-12-10T19:06:59-0500
_audit_creation_method            fapswitch 2.2
_symmetry_space_group_name_H-M    P1
_symmetry_Int_Tables_number       1
_space_group_crystal_system       triclinic
_cell_length_a                    27.74336
_cell_length_b                    10.833383
_cell_length_c                    9.556161
_cell_angle_alpha                 90.481955
_cell_angle_beta                  90.058091
_cell_angle_gamma                 90.331076
_cell_volume                      2871.9954813

loop_
_atom_site_label
_atom_site_type_symbol
_atom_type_description
_atom_site_fract_x
_atom_site_fract_y
_atom_site_fract_z
_atom_type_partial_charge
C1    C     C_R   0.500125 0.262493 0.499344 0.798226
C2    C     C_R   0.975483 0.409352 0.581160 0.038419
C3    C     C_R   0.974581 0.631322 0.529349 0.041893
C4    C     C_R   0.407580 0.498200 0.500086 0.802758
C5    C     C_R   0.949762 0.518362 0.550359 0.079240
C6    C     C_R   0.950719 0.295469 0.572253 -0.239868
C7    C     C_R   0.900908 0.290666 0.555527 -0.143296
C8    C     C_R   0.874414 0.399554 0.542348 -0.016245
C9    C     C_R   0.898881 0.513651 0.537450 -0.047922
C10   C     C_R   0.872541 0.622791 0.518097 -0.020082
C11   C     C_R   0.822057 0.616356 0.509526 0.532962
C12   C     C_R   0.275715 0.420527 0.435826 -0.129601
C13   C     C_R   0.823983 0.397020 0.530357 0.531053
C14   C     C_R   0.720671 0.457288 0.624813 -0.101261
C15   C     C_R   0.670452 0.455350 0.620534 -0.220396
C16   C     C_R   0.500464 0.737708 0.500386 0.797623
C17   C     C_R   0.672355 0.539306 0.386624 -0.225419
C18   C     C_R   0.722640 0.540545 0.390495 -0.094544
C19   C     C_R   0.747055 0.500357 0.510069 0.347566
C20   C     C_R   0.025765 0.416652 0.608101 -0.009863
C21   C     C_R   0.051039 0.523013 0.561831 0.044018
C22   C     C_R   0.025666 0.630638 0.521592 0.055008
C23   C     C_R   0.253732 0.510569 0.519957 0.313993
C24   C     C_R   0.052347 0.322382 0.677012 0.131486
C25   C     C_R   0.102267 0.728576 0.460857 -0.148558
C26   C     C_R   0.947252 0.739913 0.512579 -0.214285
C27   C     C_R   0.897097 0.735654 0.508632 -0.143876
C28   C     C_R   0.592603 0.499173 0.500246 0.796347
C29   C     C_R   0.052294 0.732570 0.471215 -0.210963
C30   C     C_R   0.506988 0.065548 0.622777 0.032881
C31   C     C_R   0.503165 0.129517 0.497680 -0.065755
C32   C     C_R   0.504807 0.063322 0.370882 -0.211457
C33   C     C_R   0.504744 0.934750 0.372012 -0.187097
C34   C     C_R   0.102031 0.521402 0.554894 -0.049918
C35   C     C_R   0.504001 0.871090 0.499845 -0.127385
C36   C     C_R   0.509002 0.938347 0.624428 -0.008278
C37   C     C_3   0.480073 0.934747 0.758095 0.320385
C38   C     C_3   0.477183 0.074912 0.752433 -0.509241
C39   C     C_R   0.532071 0.571785 0.074459 0.271694
C40   C     C_R   0.177986 0.415475 0.586969 0.547715
C41   C     C_R   0.466574 0.435040 0.073448 -0.070939
C42   C     C_R   0.466454 0.435327 0.924821 -0.077466
C43   C     C_R   0.532198 0.571366 0.926808 0.318490
C44   C     C_3   0.585589 0.558038 0.922046 -0.508729
C45   C     C_R   0.127531 0.416920 0.598952 -0.065139
C46   C     C_3   0.585536 0.560298 0.079875 -0.530070
C47   C     C_R   0.177919 0.617657 0.489969 0.536018
C48   C     C_R   0.282277 0.594505 0.595586 -0.101509
C49   C     C_R   0.332273 0.589208 0.586773 -0.261532
C50   C     C_R   0.326137 0.412534 0.427524 0.113598
C51   C     C_3   0.347900 0.306779 0.345076 -0.412918
C52   C     C_3   0.367831 0.207728 0.441799 -0.797657
C53   C     C_3   0.554375 0.910327 0.882129 0.111918
C54   C     C_3   0.572410 0.908345 0.032255 -0.825827
C55   C     C_3   0.029957 0.234372 0.782570 -0.429901
C56   C     C_R   0.102541 0.319042 0.660786 -0.152383
C57   C     C_3   0.053510 0.245996 0.927112 -0.797718
C58   C     C_R   0.127535 0.623535 0.501923 -0.009943
C59   C     C_R   0.354675 0.499767 0.502499 -0.044659
C60   C     C_R   0.645748 0.497532 0.501957 -0.037438
Cu1   Cu    Cu3+1 0.500000 0.499980 0.640670 0.947913
Cu2   Cu    Cu3+1 0.500000 0.500020 0.359330 0.945371
H1    H     H_    0.265647 0.663480 0.662168 0.156223
H2    H     H_    0.444395 0.889086 0.743368 0.109375
H3    H     H_    0.253214 0.354955 0.379274 0.146304
H4    H     H_    0.440183 0.108985 0.730996 0.165441
H5    H     H_    0.496217 0.124080 0.838993 0.209227
H6    H     H_    0.440406 0.379505 0.128119 0.130521
H7    H     H_    0.439944 0.380623 0.868550 0.144319
H8    H     H_    0.596595 0.466935 0.879357 0.209762
H9    H     H_    0.604032 0.638950 0.875227 0.199367
H10   H     H_    0.597562 0.471482 0.125329 0.224311
H11   H     H_    0.603068 0.644207 0.124307 0.192800
H12   H     H_    0.121019 0.808262 0.419415 0.185944
H13   H     H_    0.122339 0.242068 0.703368 0.191106
H14   H     H_    0.651067 0.419762 0.709551 0.146763
H15   H     H_    0.739135 0.425822 0.717700 0.145925
H16   H     H_    0.883297 0.201174 0.552812 0.185996
H17   H     H_    0.969783 0.208753 0.574934 0.145409
H18   H     H_    0.353666 0.655457 0.645954 0.155321
H19   H     H_    0.395998 0.246354 0.512226 0.230149
H20   H     H_    0.338347 0.168239 0.506341 0.264578
H21   H     H_    0.384072 0.132450 0.378261 0.242463
H22   H     H_    0.320344 0.262663 0.276127 0.205278
H23   H     H_    0.963735 0.830058 0.505465 0.136899
H24   H     H_    0.376544 0.341010 0.274859 0.208571
H25   H     H_    0.565542 0.000632 0.837890 0.145016
H26   H     H_    0.571970 0.835274 0.821491 0.149659
H27   H     H_    0.558628 0.825298 0.086138 0.249278
H28   H     H_    0.612426 0.907584 0.033793 0.212697
H29   H     H_    0.559616 0.991687 0.089158 0.241962
H30   H     H_    0.091154 0.212013 0.925321 0.250013
H31   H     H_    0.053231 0.343723 0.963338 0.260725
H32   H     H_    0.033021 0.189504 0.003421 0.241860
H33   H     H_    0.991369 0.254354 0.800627 0.225207
H34   H     H_    0.654461 0.573196 0.294645 0.149529
H35   H     H_    0.033339 0.137816 0.743818 0.200740
H36   H     H_    0.877666 0.821294 0.495930 0.187422
H37   H     H_    0.742658 0.573598 0.300956 0.146832
H38   H     H_    0.035266 0.815093 0.433425 0.138766
H39   H     H_    0.503752 0.110107 0.271213 0.166185
H40   H     H_    0.503006 0.885747 0.273020 0.182373
N1    N     N_R   0.202097 0.514451 0.531842 -0.458900
N2    N     N_R   0.798810 0.504609 0.516055 -0.467264
N3    N     N_R   0.500300 0.500930 0.147930 -0.188105
N4    N     N_R   0.500310 0.500890 0.852020 -0.193137
O1    O     O_R   0.500000 0.319640 0.618810 -0.579958
O2    O     O_R   0.569730 0.499960 0.618810 -0.587075
O3    O     O_R   0.569740 0.500000 0.381220 -0.582868
O4    O     O_2   0.202825 0.316538 0.631697 -0.547109
O5    O     O_3   0.503722 0.891524 0.880942 -0.564142
O6    O     O_2   0.800287 0.287901 0.532445 -0.537438
O7    O     O_2   0.202500 0.713759 0.435502 -0.543454
O8    O     O_2   0.796381 0.721040 0.496183 -0.538516
O9    O     O_R   0.500010 0.319680 0.381230 -0.585281
O10   O     O_R   0.430260 0.500000 0.618780 -0.583948
O11   O     O_R   0.430270 0.500040 0.381190 -0.580570
O12   O     O_R   0.499990 0.680320 0.618770 -0.571676
O13   O     O_R   0.500000 0.680360 0.381190 -0.578313

loop_
_geom_bond_atom_site_label_1
_geom_bond_atom_site_label_2
_ccdc_geom_bond_type
C10   C27   A    
C27   H36   S    
C8    C13   A    
C57   H30   S    
C15   C60   A    
C35   C36   A    
C7    C8    A    
Cu2   N3    S    
C53   C54   S    
C24   C55   S    
C12   C23   A    
C26   C27   A    
C41   N3    A    
C50   C59   A    
C36   C37   S    
C22   C29   A    
C18   C19   A    
C13   O6    S    
C16   C35   S    
C30   C31   A    
C1    C31   S    
C30   C38   S    
C44   H9    S    
C39   N3    A    
C25   H12   S    
C41   C42   A    
C14   H15   S    
Cu1   O2    S    
C11   O8    S    
Cu2   O11   S    
C23   N1    S    
C38   H4    S    
C45   C56   A    
C8    C9    A    
C44   H8    S    
C11   N2    A    
C9    C10   A    
C46   H10   S    
Cu1   Cu2   S    
C40   O4    S    
C53   O5    S    
C15   H14   S    
C56   H13   S    
C57   H31   S    
C21   C22   A    
C2    C6    A    
C51   H24   S    
C44   C46   S    
C50   C51   S    
C41   H6    S    
C28   C60   S    
C25   C29   A    
C40   C45   A    
C47   N1    A    
C2    C20   A    
C33   H40   S    
C20   C24   A    
C54   H27   S    
C55   H33   S    
C16   O13   A    
C17   H34   S    
C48   H1    S    
C39   C43   A    
C21   C34   A    
C42   H7    S    
C51   C52   S    
C43   N4    A    
C52   H21   S    
C43   C44   S    
C5    C9    A    
C37   C38   S    
C16   O12   A    
C19   N2    S    
C31   C32   A    
C55   H35   S    
Cu1   O10   S    
C17   C18   A    
C53   H25   S    
C34   C45   A    
C38   H5    S    
C13   N2    A    
C52   H20   S    
Cu1   N4    S    
C42   N4    A    
Cu2   O13   S    
C1    O1    A    
C39   C46   S    
C48   C49   A    
C57   H32   S    
C7    H16   S    
C4    O11   A    
C2    C5    A    
C25   C58   A    
C37   H2    S    
C47   O7    S    
C23   C48   A    
C29   H38   S    
Cu1   O12   S    
C14   C15   A    
C14   C19   A    
C4    O10   A    
C3    C26   A    
C3    C5    A    
C12   C50   A    
C54   H28   S    
C6    C7    A    
C28   O3    A    
C24   C56   A    
C12   H3    S    
C49   C59   A    
C49   H18   S    
C30   C36   A    
C32   C33   A    
C55   C57   S    
Cu2   O9    S    
C40   N1    A    
C6    H17   S    
Cu2   O3    S    
C28   O2    A    
C26   H23   S    
C4    C59   S    
C33   C35   A    
C53   H26   S    
C52   H19   S    
Cu1   O1    S    
C37   O5    S    
C10   C11   A    
C17   C60   A    
C54   H29   S    
C20   C21   A    
C18   H37   S    
C34   C58   A    
C32   H39   S    
C3    C22   A    
C1    O9    A    
C51   H22   S    
C46   H11   S    
C47   C58   A    
