data_mof_unit_56912.cif
_audit_creation_date              2012-12-10T16:59:22-0500
_audit_creation_method            fapswitch 2.2
_symmetry_space_group_name_H-M    P1
_symmetry_Int_Tables_number       1
_space_group_crystal_system       triclinic
_cell_length_a                    19.304533
_cell_length_b                    10.972289
_cell_length_c                    9.713475
_cell_angle_alpha                 90.122149
_cell_angle_beta                  89.925371
_cell_angle_gamma                 89.721198
_cell_volume                      2057.42807526

loop_
_atom_site_label
_atom_site_type_symbol
_atom_type_description
_atom_site_fract_x
_atom_site_fract_y
_atom_site_fract_z
_atom_type_partial_charge
C1    C     C_R   0.499574 0.265731 0.499453 0.880696
C2    C     C_R   0.291675 0.496106 0.498723 -0.151437
C3    C     C_R   0.929626 0.476933 0.504007 0.407446
C4    C     C_R   0.069913 0.480419 0.500628 0.499422
C5    C     C_R   0.814009 0.376727 0.547979 0.150436
C6    C     C_R   0.741345 0.383378 0.547368 0.235339
C7    C     C_R   0.707833 0.490416 0.500471 -0.176691
C8    C     C_R   0.747244 0.589771 0.453608 0.115789
C9    C     C_R   0.819265 0.582698 0.455881 -0.151290
C10   C     C_R   0.853337 0.477358 0.502096 -0.095696
C11   C     C_2   0.495143 0.935641 0.389973 0.177325
C12   C     C_R   0.367678 0.500014 0.499873 0.854220
C13   C     C_2   0.512924 0.866235 0.500352 0.000639
C14   C     C_2   0.511132 0.066235 0.388855 0.180453
C15   C     C_2   0.492299 0.134851 0.497521 -0.317207
C16   C     C_2   0.458641 0.432539 0.922095 0.317560
C17   C     C_2   0.451317 0.452883 0.075030 -0.092157
C18   C     C_R   0.501497 0.734739 0.500066 0.788203
C19   C     C_R   0.632171 0.497983 0.499958 0.789257
C20   C     C_R   0.258000 0.395199 0.556910 0.067654
C21   C     C_R   0.185083 0.388992 0.555310 0.075047
C22   C     C_R   0.146183 0.483718 0.494935 -0.064367
C23   C     C_R   0.180048 0.583224 0.432187 0.208580
C24   C     C_R   0.252964 0.589191 0.433671 0.138614
Cu1   Cu    Cu3+1 0.500010 0.500020 0.638630 0.949577
Cu2   Cu    Cu3+1 0.499990 0.499980 0.361370 0.964810
H1    H     H_    0.466742 0.094331 0.585569 0.147105
H2    H     H_    0.518341 0.576710 0.890866 0.167657
H3    H     H_    0.403196 0.424803 0.122839 0.129772
H4    H     H_    0.848905 0.660155 0.420204 0.179107
N1    N     N_R   0.033326 0.581098 0.537887 -0.211640
N2    N     N_R   0.964454 0.579496 0.539120 -0.236628
N3    N     N_R   0.966265 0.376307 0.466725 -0.249786
N4    N     N_R   0.035166 0.377918 0.465161 -0.209784
N5    N     N_2   0.499250 0.498660 0.846910 -0.300446
N6    N     N_2   0.499230 0.498630 0.153040 -0.115700
O1    O     O_R   0.500010 0.321960 0.617040 -0.552664
O2    O     O_R   0.499990 0.321920 0.382900 -0.534461
O3    O     O_R   0.400160 0.500010 0.617110 -0.545719
O4    O     O_R   0.400130 0.499970 0.382960 -0.594291
O5    O     O_R   0.500010 0.678080 0.617100 -0.578497
O6    O     O_R   0.499990 0.678040 0.382960 -0.571937
O7    O     O_R   0.599870 0.500030 0.617040 -0.588653
O8    O     O_R   0.599840 0.499990 0.382890 -0.540409
N7    N     N_3   0.298610 0.297631 0.613820 -0.581630
H5    H     H_    0.288611 0.218149 0.557958 0.211698
H6    H     H_    0.283464 0.283842 0.715822 0.214608
N8    N     N_2   0.554666 0.916580 0.607790 -0.443821
H7    H     H_    0.605579 0.887920 0.604583 0.249655
C25   C     C_3   0.525595 0.915102 0.745433 -0.687438
H8    H     H_    0.546927 0.992645 0.805080 0.223906
H9    H     H_    0.539987 0.829412 0.799168 0.236405
H10   H     H_    0.468230 0.924336 0.742996 0.220503
N9    N     N_3   0.544324 0.118707 0.270663 -0.563883
H11   H     H_    0.590101 0.070184 0.251850 0.205706
H12   H     H_    0.511780 0.108327 0.185697 0.236984
N10   N     N_2   0.416979 0.342293 0.858775 -0.342153
H13   H     H_    0.365183 0.354700 0.880858 0.224718
C26   C     C_3   0.439027 0.218800 0.887709 -0.686199
H14   H     H_    0.407804 0.154254 0.825552 0.218035
H15   H     H_    0.431467 0.197543 0.998530 0.201739
H16   H     H_    0.494502 0.206005 0.860344 0.241331
N11   N     N_3   0.567847 0.494178 0.106620 -0.441841
H17   H     H_    0.582552 0.580034 0.071085 0.193060
H18   H     H_    0.577502 0.422842 0.037380 0.217048
N12   N     N_3   0.149904 0.288564 0.618522 -0.568319
H19   H     H_    0.166288 0.207645 0.571510 0.226858
H20   H     H_    0.163012 0.285740 0.722818 0.216735
N13   N     N_2   0.140569 0.679301 0.370832 -0.406719
H21   H     H_    0.162340 0.764931 0.371425 0.283948
C27   C     C_3   0.102944 0.649864 0.246001 -0.656891
H22   H     H_    0.047490 0.673930 0.260075 0.249838
H23   H     H_    0.106892 0.551390 0.219531 0.221493
H24   H     H_    0.123560 0.703476 0.158311 0.212225
N14   N     N_2   0.286541 0.691584 0.373460 -0.434833
H25   H     H_    0.330454 0.720202 0.424052 0.228826
C28   C     C_3   0.294880 0.685777 0.225376 -0.676634
H26   H     H_    0.308777 0.777244 0.185778 0.222771
H27   H     H_    0.246239 0.657129 0.174430 0.241366
H28   H     H_    0.336637 0.620555 0.197347 0.235444
N15   N     N_3   0.846345 0.268699 0.601256 -0.546809
H29   H     H_    0.881471 0.293343 0.678155 0.231578
H30   H     H_    0.872766 0.224571 0.521424 0.240683
N16   N     N_2   0.702765 0.280417 0.592607 -0.406605
H31   H     H_    0.659591 0.300463 0.650951 0.260451
C29   C     C_3   0.689040 0.191895 0.485751 -0.651333
H32   H     H_    0.656539 0.233400 0.403853 0.228606
H33   H     H_    0.661018 0.113066 0.530236 0.233169
H34   H     H_    0.738326 0.158149 0.440071 0.245038
N17   N     N_3   0.715265 0.699961 0.405682 -0.587822
H35   H     H_    0.683095 0.733921 0.483603 0.202560
H36   H     H_    0.684610 0.679277 0.320233 0.236810
N18   N     N_2   0.454225 0.890007 0.278942 -0.431345
H37   H     H_    0.414369 0.832647 0.305156 0.254675
C30   C     C_3   0.490114 0.859097 0.152243 -0.670811
H38   H     H_    0.481161 0.761931 0.125750 0.235233
H39   H     H_    0.546912 0.873601 0.160548 0.220002
H40   H     H_    0.469453 0.916122 0.067337 0.216134

loop_
_geom_bond_atom_site_label_1
_geom_bond_atom_site_label_2
_ccdc_geom_bond_type
N12   H20   S    
N11   H18   S    
N18   H37   S    
C21   N12   S    
C17   H3    S    
C23   N13   S    
C30   H38   S    
C2    C12   S    
Cu1   O7    S    
N15   H29   S    
N10   H13   S    
C30   H40   S    
Cu2   O8    S    
C7    C8    A    
C28   H26   S    
C13   C18   S    
N16   C29   S    
C18   O6    A    
C16   N5    D    
C5    C6    A    
C11   C14   S    
C29   H33   S    
N10   C26   S    
C3    N3    A    
C4    C22   S    
N13   C27   S    
Cu1   O1    S    
N17   H36   S    
H2    N5    S    
C8    C9    A    
C25   H9    S    
C23   C24   A    
C1    C15   S    
C17   N6    D    
N6    N11   S    
C9    C10   A    
C20   N7    S    
C1    O1    A    
C11   N18   S    
C28   H27   S    
N12   H19   S    
C26   H14   S    
N18   C30   S    
C21   C22   A    
C3    N2    A    
N15   H30   S    
C19   O7    A    
C25   H8    S    
C4    N4    A    
N7    H6    S    
N9    H12   S    
C26   H15   S    
C25   H10   S    
C6    N16   S    
C2    C20   A    
N16   H31   S    
C18   O5    A    
Cu1   O5    S    
C27   H23   S    
C29   H32   S    
Cu2   O2    S    
Cu1   Cu2   S    
N7    H5    S    
C12   O4    A    
N14   H25   S    
C13   N8    S    
C5    N15   S    
C15   H1    S    
N1    N2    A    
N3    N4    A    
N14   C28   S    
C9    H4    S    
Cu1   N5    S    
C1    O2    A    
Cu2   N6    S    
N8    H7    S    
C14   N9    S    
C7    C19   S    
C2    C24   A    
C8    N17   S    
C19   O8    A    
Cu2   O6    S    
C28   H28   S    
N9    H11   S    
C26   H16   S    
C14   C15   D    
C29   H34   S    
C27   H24   S    
C30   H39   S    
C24   N14   S    
C6    C7    A    
C12   O3    A    
C5    C10   A    
C3    C10   S    
Cu1   O3    S    
C11   C13   D    
Cu2   O4    S    
N17   H35   S    
C16   C17   S    
N8    C25   S    
C16   N10   S    
N13   H21   S    
C4    N1    A    
N11   H17   S    
C27   H22   S    
C20   C21   A    
C22   C23   A    
