data_mof_unit_12451.cif
_audit_creation_date              2012-12-10T18:09:54-0500
_audit_creation_method            fapswitch 2.2
_symmetry_space_group_name_H-M    P1
_symmetry_Int_Tables_number       1
_space_group_crystal_system       triclinic
_cell_length_a                    10.64539
_cell_length_b                    12.659136
_cell_length_c                    13.132891
_cell_angle_alpha                 82.568963
_cell_angle_beta                  91.524607
_cell_angle_gamma                 102.402188
_cell_volume                      1713.98865839

loop_
_atom_site_label
_atom_site_type_symbol
_atom_type_description
_atom_site_fract_x
_atom_site_fract_y
_atom_site_fract_z
_atom_type_partial_charge
C1    C     C_R   0.477857 0.439385 0.690755 0.819137
C2    C     C_R   0.445483 0.447210 0.971856 0.099576
C3    C     C_R   0.426061 0.472767 0.866245 0.090830
C4    C     C_R   0.741166 0.498686 0.506529 0.850413
C5    C     C_R   0.462397 0.532612 0.033950 0.043223
C6    C     C_R   0.443019 0.637824 0.993184 0.149410
C7    C     C_R   0.395552 0.652078 0.893029 -0.253594
C8    C     C_R   0.385800 0.570210 0.830851 -0.214912
C9    C     C_R   0.504469 0.516771 0.134371 -0.265831
C10   C     C_R   0.499824 0.701355 0.158768 -0.244840
C11   C     C_R   0.450098 0.400862 0.799172 -0.119122
C12   C     C_3   0.120559 0.495440 0.508420 0.043218
C13   C     C_R   0.300239 0.081145 0.363409 -0.280759
C14   C     C_R   0.653988 0.800281 0.629790 0.014530
C15   C     C_R   0.688435 0.905270 0.656519 -0.273546
C16   C     C_R   0.514891 0.560658 0.308653 0.909274
C17   C     C_R   0.630764 0.986465 0.606705 -0.180940
C18   C     C_R   0.537292 0.962468 0.529790 0.042526
C19   C     C_R   0.506604 0.854150 0.504999 0.188329
C20   C     C_R   0.471748 0.040577 0.478158 -0.045225
C21   C     C_R   0.369705 0.006094 0.409433 0.050596
C22   C     C_R   0.338618 0.897438 0.387902 0.115174
C23   C     C_3   0.064048 0.490481 0.398417 0.232527
C24   C     C_R   0.412675 0.825423 0.431442 -0.265042
C25   C     C_R   0.501680 0.151823 0.493208 -0.125057
C26   C     C_R   0.332544 0.188217 0.381061 0.551279
C27   C     C_R   0.258070 0.498173 0.503057 0.892045
C28   C     C_3   0.902317 0.393859 0.578883 -0.428037
C29   C     C_3   0.047569 0.391487 0.578395 -0.075481
C30   C     C_3   0.922871 0.500027 0.400121 -0.496695
C31   C     C_3   0.957090 0.601635 0.556932 0.017433
C32   C     C_3   0.878117 0.498544 0.512077 0.029099
C33   C     C_3   0.471955 0.842372 0.011422 -0.444369
C34   C     C_3   0.100126 0.600323 0.550749 -0.373822
C35   C     C_3   0.583906 0.889072 0.936908 -0.859465
C36   C     C_3   0.223164 0.854080 0.323182 -0.408996
C37   C     C_3   0.250527 0.881853 0.208432 -0.868542
C38   C     C_3   0.103802 0.376014 0.688351 -0.383139
C39   C     C_3   0.051209 0.262210 0.744810 -0.860148
C40   C     C_3   0.919227 0.613048 0.668407 -0.390032
C41   C     C_3   0.970923 0.728369 0.695710 -0.919254
C42   C     C_R   0.470678 0.724866 0.054458 0.177559
C43   C     C_R   0.510981 0.595982 0.198850 -0.084009
C44   C     C_R   0.460069 0.294415 0.838256 -0.193661
C45   C     C_R   0.454621 0.262094 0.943365 -0.157450
C46   C     C_R   0.450362 0.338001 0.010206 -0.182917
H1    H     H_    0.847174 0.319826 0.547790 0.176162
H2    H     H_    0.865672 0.390195 0.657982 0.173864
H3    H     H_    0.347146 0.584497 0.754521 0.168155
H4    H     H_    0.220918 0.059285 0.311790 0.187705
H5    H     H_    0.578150 0.184728 0.542932 0.141763
H6    H     H_    0.696719 0.736567 0.669360 0.148757
H7    H     H_    0.659084 0.066034 0.631552 0.130723
H8    H     H_    0.758775 0.923442 0.716337 0.155214
H9    H     H_    0.393263 0.745926 0.407962 0.233157
H10   H     H_    0.057259 0.318876 0.541842 0.178788
H11   H     H_    0.863185 0.431117 0.364118 0.167626
H12   H     H_    0.148053 0.674477 0.500320 0.189753
H13   H     H_    0.068371 0.409915 0.374149 0.127827
H14   H     H_    0.940740 0.675083 0.505987 0.173015
H15   H     H_    0.147714 0.605948 0.626896 0.166777
H16   H     H_    0.109304 0.553915 0.258158 0.341340
H17   H     H_    0.676730 0.885858 0.976591 0.261668
H18   H     H_    0.576799 0.843294 0.869771 0.265485
H19   H     H_    0.583123 0.975467 0.908532 0.244664
H20   H     H_    0.379009 0.849005 0.973541 0.201864
H21   H     H_    0.483873 0.895063 0.073906 0.210110
H22   H     H_    0.302979 0.331448 0.334269 0.384890
H23   H     H_    0.910093 0.576722 0.352938 0.192454
H24   H     H_    0.298371 0.968712 0.187824 0.256012
H25   H     H_    0.312799 0.829382 0.185697 0.260674
H26   H     H_    0.158993 0.864775 0.165051 0.254405
H27   H     H_    0.194934 0.764638 0.339685 0.264049
H28   H     H_    0.137561 0.883582 0.344241 0.195927
H29   H     H_    0.945609 0.247838 0.755719 0.252000
H30   H     H_    0.073441 0.198928 0.701159 0.258708
H31   H     H_    0.097128 0.254384 0.821567 0.257854
H32   H     H_    0.209512 0.386273 0.684319 0.200091
H33   H     H_    0.084586 0.437537 0.735050 0.206367
H34   H     H_    0.512385 0.764448 0.208844 0.159845
H35   H     H_    0.077675 0.747961 0.695983 0.262750
H36   H     H_    0.936282 0.789326 0.639745 0.260887
H37   H     H_    0.936698 0.734504 0.773436 0.252734
H38   H     H_    0.813679 0.593630 0.679286 0.220254
H39   H     H_    0.956128 0.554983 0.725577 0.206456
H40   H     H_    0.368109 0.726814 0.860783 0.161698
H41   H     H_    0.530614 0.441424 0.165280 0.163328
H42   H     H_    0.474594 0.236787 0.787833 0.158360
H43   H     H_    0.448802 0.308451 0.091067 0.141945
H44   H     H_    0.459790 0.179329 0.973350 0.143451
N1    N     N_R   0.433240 0.222190 0.444680 -0.152959
N2    N     N_R   0.566070 0.776970 0.554790 -0.125549
O1    O     O_R   0.468120 0.366740 0.627160 -0.614862
O2    O     O_3   0.257535 0.255895 0.333566 -0.803209
O3    O     O_R   0.510770 0.544830 0.662520 -0.624985
O4    O     O_R   0.663880 0.410950 0.482330 -0.620279
O5    O     O_R   0.706530 0.589040 0.517700 -0.629984
O6    O     O_R   0.489230 0.455170 0.337480 -0.642537
O7    O     O_R   0.531880 0.633260 0.372840 -0.625934
O8    O     O_R   0.293470 0.410960 0.482300 -0.635733
O9    O     O_R   0.336120 0.589050 0.517670 -0.645465
O10   O     O_3   0.134869 0.573207 0.327792 -0.807181
Zn1   Zn    Zn3+2 0.471520 0.381090 0.476390 0.930749
Zn2   Zn    Zn3+2 0.528480 0.618910 0.523610 0.917080

loop_
_geom_bond_atom_site_label_1
_geom_bond_atom_site_label_2
_ccdc_geom_bond_type
C26   O2    S    
C28   H1    S    
C12   C29   S    
C10   C42   A    
C40   H38   S    
C1    C11   S    
O1    Zn1   S    
C7    C8    A    
C46   H43   S    
C45   C46   A    
O3    Zn2   S    
C24   H9    S    
C23   H13   S    
C12   C23   S    
C33   C42   S    
C39   H31   S    
C28   C29   S    
C38   C39   S    
C23   O10   S    
C20   C25   A    
C35   H19   S    
O6    Zn1   S    
C41   H37   S    
C30   H11   S    
C31   C40   S    
C18   C19   A    
C19   N2    A    
C2    C46   A    
C4    O4    A    
C14   H6    S    
C29   C38   S    
C35   H18   S    
C39   H29   S    
O7    Zn2   S    
C4    O5    A    
C33   H20   S    
C27   O8    A    
C9    C43   A    
C25   N1    A    
C12   C27   S    
C23   C30   S    
C28   C32   S    
C3    C8    A    
C10   H34   S    
C38   H32   S    
C26   N1    A    
C27   O9    A    
O8    Zn1   S    
H22   O2    S    
C31   H14   S    
C25   H5    S    
C5    C9    A    
C31   C32   S    
C1    O3    A    
C41   H35   S    
C17   C18   A    
C31   C34   S    
C13   C21   A    
C11   C44   A    
C39   H30   S    
C45   H44   S    
C16   C43   S    
C14   N2    A    
C4    C32   S    
C36   H28   S    
C1    O1    A    
C40   C41   S    
O9    Zn2   S    
C37   H25   S    
C6    C42   A    
C22   C24   A    
C13   C26   A    
O4    Zn1   S    
C2    C5    A    
C12   C34   S    
C17   H7    S    
C30   H23   S    
C44   C45   A    
C33   H21   S    
C15   C17   A    
C28   H2    S    
C40   H39   S    
C10   C43   A    
C15   H8    S    
N1    Zn1   S    
C16   O7    A    
C6    C7    A    
C29   H10   S    
C22   C36   S    
C37   H24   S    
C2    C3    A    
C44   H42   S    
C9    H41   S    
C30   C32   S    
C16   O6    A    
C5    C6    A    
C41   H36   S    
C33   C35   S    
C19   C24   A    
C18   C20   A    
C34   H15   S    
O5    Zn2   S    
C3    C11   A    
C36   H27   S    
N2    Zn2   S    
C13   H4    S    
C7    H40   S    
C20   C21   A    
C36   C37   S    
C38   H33   S    
C37   H26   S    
C34   H12   S    
C14   C15   A    
C35   H17   S    
C21   C22   A    
C8    H3    S    
H16   O10   S    
