data_mof_unit_40712.cif
_audit_creation_date              2012-12-11T14:21:10-0500
_audit_creation_method            fapswitch 2.2
_symmetry_space_group_name_H-M    P1
_symmetry_Int_Tables_number       1
_space_group_crystal_system       triclinic
_cell_length_a                    11.587128
_cell_length_b                    11.564456
_cell_length_c                    19.496783
_cell_angle_alpha                 90.661586
_cell_angle_beta                  90.062233
_cell_angle_gamma                 59.839816
_cell_volume                      2258.68632199

loop_
_atom_site_label
_atom_site_type_symbol
_atom_type_description
_atom_site_fract_x
_atom_site_fract_y
_atom_site_fract_z
_atom_type_partial_charge
C1    C     C_R   0.640586 0.117791 0.599001 0.544568
C2    C     C_1   0.641575 0.703415 0.667758 0.001403
C3    C     C_1   0.126730 0.198280 0.859323 0.002578
C4    C     C_1   0.170582 0.170865 0.727477 -0.033210
C5    C     C_1   0.149781 0.182138 0.798821 -0.032136
C6    C     C_1   0.194276 0.161821 0.667057 -0.000111
C7    C     C_1   0.678774 0.190813 0.860867 0.001751
C8    C     C_1   0.658601 0.167831 0.728887 -0.032772
C9    C     C_1   0.665801 0.180859 0.800308 -0.032104
C10   C     C_1   0.653008 0.150498 0.668374 -0.001628
C11   C     C_R   0.642114 0.684552 0.190821 0.004184
C12   C     C_R   0.612561 0.745856 0.598434 0.535127
C13   C     C_R   0.544026 0.674601 0.230667 -0.000739
C14   C     C_R   0.569309 0.645714 0.299898 0.011539
C15   C     C_R   0.727436 0.725924 0.293816 -0.138530
C16   C     C_R   0.730450 0.715075 0.223087 -0.152016
C17   C     C_R   0.427231 0.683375 0.202707 -0.093680
C18   C     C_R   0.358556 0.628665 0.237025 0.258807
C19   C     C_R   0.396328 0.584640 0.303916 -0.099753
C20   C     C_R   0.501070 0.591461 0.335042 -0.139877
C21   C     C_R   0.651311 0.686315 0.332969 0.004228
C22   C     C_R   0.132699 0.216802 0.197024 0.005713
C23   C     C_R   0.240473 0.145733 0.597915 0.543251
C24   C     C_R   0.098093 0.325547 0.244664 0.002775
C25   C     C_R   0.098213 0.301747 0.315584 0.051210
C26   C     C_R   0.228148 0.062155 0.289421 -0.154209
C27   C     C_R   0.202058 0.086239 0.220201 -0.165924
C28   C     C_R   0.073679 0.453989 0.225458 -0.079209
C29   C     C_R   0.039688 0.555593 0.273891 -0.139194
C30   C     C_R   0.019026 0.536542 0.341749 -0.111583
C31   C     C_R   0.040592 0.412586 0.362868 0.167690
C32   C     C_R   0.174268 0.167938 0.337347 0.017177
C33   C     C_R   0.726728 0.215050 0.208728 -0.000525
C34   C     C_R   0.647829 0.115844 0.404861 0.569056
C35   C     C_R   0.835891 0.119315 0.249961 -0.000020
C36   C     C_R   0.815179 0.108618 0.320977 0.046211
C37   C     C_R   0.577112 0.260945 0.304370 -0.169404
C38   C     C_R   0.599888 0.287214 0.238186 -0.146284
C39   C     C_R   0.963886 0.028209 0.222974 -0.116167
C40   C     C_R   0.062880 0.931307 0.263187 -0.152438
C41   C     C_R   0.047967 0.933681 0.333299 -0.102484
C42   C     C_R   0.928094 0.028004 0.363691 0.170453
C43   C     C_R   0.682147 0.168892 0.345166 -0.007227
C44   C     C_R   0.081926 0.230850 0.928712 0.550606
C45   C     C_R   0.617393 0.738420 0.402396 0.518450
C46   C     C_R   0.683846 0.604242 0.929575 0.545968
C47   C     C_R   0.708351 0.206399 0.930264 0.558416
C48   C     C_R   0.079840 0.240295 0.126812 0.538547
C49   C     C_R   0.677994 0.617713 0.123845 0.537541
C50   C     C_R   0.742083 0.235275 0.134891 0.556494
C51   C     C_R   0.240962 0.141473 0.402897 0.566638
C52   C     C_1   0.670315 0.646271 0.860174 0.004642
C53   C     C_1   0.655096 0.683149 0.728273 -0.032724
C54   C     C_1   0.663547 0.666329 0.799640 -0.032188
Cr1   Cr    Cr6+3 0.404720 0.198220 0.499960 1.012450
Cr2   Cr    Cr6+3 0.698290 0.897110 0.500380 1.012519
Cr3   Cr    Cr6+3 0.396970 0.904720 0.499610 1.009788
Cr4   Cr    Cr6+3 0.926180 0.151990 0.028120 1.005771
Cr5   Cr    Cr6+3 0.921330 0.451820 0.027470 1.012537
Cr6   Cr    Cr6+3 0.626260 0.446870 0.028710 1.007752
H1    H     H_    0.783279 0.767409 0.317637 0.145799
H2    H     H_    0.024913 0.651622 0.258275 0.159266
H3    H     H_    0.987100 0.618235 0.378376 0.113740
H4    H     H_    0.474729 0.306886 0.322050 0.147601
H5    H     H_    0.994410 0.025231 0.171108 0.176767
H6    H     H_    0.515156 0.356300 0.208001 0.166295
H7    H     H_    0.157615 0.863840 0.240198 0.150778
H8    H     H_    0.132467 0.866082 0.364217 0.112651
H9    H     H_    0.392251 0.731022 0.153714 0.115880
H10   H     H_    0.801101 0.730052 0.193740 0.127410
H11   H     H_    0.343118 0.545845 0.332297 0.126577
H12   H     H_    0.527238 0.555970 0.387065 0.127873
H13   H     H_    0.292884 0.959859 0.305408 0.144222
H14   H     H_    0.091361 0.476899 0.174782 0.166480
H15   H     H_    0.237086 0.002706 0.184477 0.108329
O1    O     O_R   0.267740 0.231960 0.575440 -0.512902
O2    O     O_R   0.685970 0.784660 0.430010 -0.523137
O3    O     O_R   0.502530 0.767000 0.423990 -0.521127
O4    O     O_R   0.288330 0.026350 0.429250 -0.511418
O5    O     O_3   0.499990 0.000020 0.499980 -0.246355
O6    O     O_R   0.821500 0.119340 0.952830 -0.500951
O7    O     O_R   0.037130 0.162530 0.957360 -0.493704
O8    O     O_R   0.056440 0.344740 0.951340 -0.503476
O9    O     O_R   0.797900 0.560360 0.957470 -0.492737
O10   O     O_R   0.596130 0.579390 0.952730 -0.510262
O11   O     O_R   0.639060 0.321160 0.958670 -0.489642
O12   O     O_R   0.527280 0.186640 0.570530 -0.496310
O13   O     O_R   0.821240 0.124200 0.104370 -0.530165
O14   O     O_R   0.036890 0.167040 0.097840 -0.533070
O15   O     O_R   0.056180 0.349610 0.102880 -0.533453
O16   O     O_R   0.797660 0.564870 0.097950 -0.500854
O17   O     O_R   0.595880 0.584250 0.104270 -0.541104
O18   O     O_R   0.638830 0.325670 0.099150 -0.500017
O19   O     O_3   0.824590 0.350230 0.028100 -0.265341
O20   O     O_R   0.728090 0.003450 0.576380 -0.501238
O21   O     O_R   0.682970 0.789190 0.570490 -0.501548
O22   O     O_R   0.499290 0.771880 0.575530 -0.507271
O23   O     O_R   0.285330 0.030870 0.569730 -0.494739
O24   O     O_R   0.270980 0.227080 0.423890 -0.510740
O25   O     O_R   0.530280 0.182120 0.430050 -0.514864
O26   O     O_R   0.731330 0.998570 0.424830 -0.483355
N1    N     N_2   0.017782 0.396670 0.433138 -0.520770
H16   H     H_    0.069930 0.423630 0.466362 0.271283
C55   C     C_3   0.879951 0.458826 0.454194 -0.334784
H17   H     H_    0.872604 0.411137 0.501732 0.135269
H18   H     H_    0.817913 0.448746 0.413677 0.146250
H19   H     H_    0.843047 0.564764 0.467265 0.170587
N2    N     N_2   0.923539 0.040150 0.436729 -0.484909
H20   H     H_    0.999506 0.960142 0.462029 0.242647
C56   C     C_3   0.899500 0.166944 0.463576 -0.295133
H21   H     H_    0.805242 0.249962 0.442926 0.138555
H22   H     H_    0.984661 0.180801 0.450140 0.172921
H23   H     H_    0.890233 0.168433 0.520304 0.140839
O27   O     O_3   0.252355 0.618914 0.209652 -0.601081
C57   C     C_3   0.244202 0.628667 0.137501 -0.135998
H24   H     H_    0.341840 0.559871 0.112432 0.143256
H25   H     H_    0.204394 0.733900 0.121553 0.102960
H26   H     H_    0.172261 0.598859 0.119234 0.128510

loop_
_geom_bond_atom_site_label_1
_geom_bond_atom_site_label_2
_ccdc_geom_bond_type
C25   C31   A    
Cr2   O20   S    
C22   C48   S    
C26   C32   A    
C41   C42   A    
Cr3   O4    S    
C36   C42   A    
C35   C36   A    
C23   O1    A    
C44   O8    A    
C2    C12   S    
C18   O27   S    
C55   H18   S    
O27   C57   S    
C53   C54   S    
C17   H9    S    
C26   C27   A    
C29   C30   A    
C14   C21   A    
C28   C29   A    
Cr5   O8    S    
Cr2   O26   S    
C44   O7    A    
Cr4   O7    S    
C51   O4    A    
C30   C31   A    
Cr3   O23   S    
C15   C16   A    
C46   C52   S    
C26   H13   S    
N2    H20   S    
Cr2   O21   S    
C18   C19   A    
C1    O12   A    
C56   H21   S    
C19   H11   S    
C38   H6    S    
C8    C9    S    
C57   H25   S    
C40   H7    S    
Cr1   O25   S    
C34   O25   A    
C45   O3    A    
Cr5   O19   S    
C50   O13   A    
C46   O10   A    
Cr6   O18   S    
C25   C32   A    
C28   H14   S    
C48   O15   A    
C30   H3    S    
C39   H5    S    
Cr3   O5    S    
C49   O16   A    
C27   H15   S    
C55   H17   S    
C52   C54   T    
C41   H8    S    
C21   C45   S    
Cr6   O17   S    
C51   O24   A    
C3    C44   S    
C34   O26   A    
C34   C43   S    
C31   N1    S    
C14   C20   A    
C16   H10   S    
Cr5   O9    S    
C4    C6    T    
Cr4   O6    S    
C39   C40   A    
Cr6   O11   S    
C33   C50   S    
Cr2   O2    S    
Cr5   O15   S    
C7    C47   S    
C37   C43   A    
C35   C39   A    
C47   O11   A    
C32   C51   S    
C37   C38   A    
C11   C49   S    
C11   C16   A    
C1    O20   A    
C57   H26   S    
Cr3   O22   S    
C17   C18   A    
C15   H1    S    
Cr5   O16   S    
C24   C25   A    
N1    C55   S    
C56   H23   S    
C12   O22   A    
C46   O9    A    
Cr1   O1    S    
C40   C41   A    
C22   C27   A    
C22   C24   A    
C49   O17   A    
C37   H4    S    
C7    C9    T    
C29   H2    S    
Cr3   O3    S    
C12   O21   A    
C1    C10   S    
C24   C28   A    
C4    C5    S    
C3    C5    T    
C2    C53   T    
Cr4   O13   S    
Cr6   O10   S    
C50   O18   A    
C33   C38   A    
Cr2   O5    S    
C13   C17   A    
C48   O14   A    
C19   C20   A    
Cr4   O19   S    
Cr1   O5    S    
C11   C13   A    
C6    C23   S    
C33   C35   A    
N2    C56   S    
C47   O6    A    
Cr1   O12   S    
N1    H16   S    
Cr4   O14   S    
C56   H22   S    
C15   C21   A    
C23   O23   A    
C8    C10   T    
Cr1   O24   S    
C20   H12   S    
C36   C43   A    
C45   O2    A    
C13   C14   A    
C42   N2    S    
C55   H19   S    
C57   H24   S    
Cr6   O19   S    
