data_mof_unit_11271.cif
_audit_creation_date              2012-12-10T18:42:28-0500
_audit_creation_method            fapswitch 2.2
_symmetry_space_group_name_H-M    P1
_symmetry_Int_Tables_number       1
_space_group_crystal_system       triclinic
_cell_length_a                    8.594165
_cell_length_b                    10.728867
_cell_length_c                    9.849425
_cell_angle_alpha                 90.040792
_cell_angle_beta                  98.684899
_cell_angle_gamma                 90.151588
_cell_volume                      897.755593962

loop_
_atom_site_label
_atom_site_type_symbol
_atom_type_description
_atom_site_fract_x
_atom_site_fract_y
_atom_site_fract_z
_atom_type_partial_charge
C1    C     C_R   0.499853 0.259874 0.499906 0.868406
C2    C     C_R   0.500147 0.740126 0.500094 0.868406
C3    C     C_R   0.201088 0.499962 0.464050 0.971610
C4    C     C_R   0.798912 0.500038 0.535950 0.971611
C5    C     C_2   0.035947 0.500048 0.444724 -0.369275
C6    C     C_2   0.964053 0.499952 0.555276 -0.369275
C7    C     C_R   0.498466 0.063724 0.375939 -0.155045
C8    C     C_R   0.501534 0.936276 0.624061 -0.155046
C9    C     C_R   0.498704 0.936068 0.376029 -0.189382
C10   C     C_R   0.501296 0.063932 0.623971 -0.189382
C11   C     C_R   0.500183 0.872600 0.500087 -0.024648
C12   C     C_R   0.499817 0.127399 0.499913 -0.024648
C13   C     C_R   0.596798 0.578398 0.084780 -0.306093
C14   C     C_R   0.403202 0.421602 0.915220 -0.306093
C15   C     C_R   0.596839 0.578420 0.940955 0.682658
C16   C     C_R   0.403161 0.421580 0.059045 0.682658
H1    H     H_    0.973983 0.500241 0.339881 0.195288
H2    H     H_    0.026017 0.499759 0.660119 0.195288
H3    H     H_    0.497214 0.112032 0.279206 0.188359
H4    H     H_    0.502785 0.887968 0.720794 0.188359
H5    H     H_    0.497652 0.887596 0.279340 0.169527
H6    H     H_    0.502347 0.112404 0.720660 0.169527
H7    H     H_    0.674170 0.641052 0.149609 0.189932
H8    H     H_    0.325830 0.358948 0.850391 0.189932
N1    N     N_R   0.499960 0.499970 0.857200 -0.157688
N2    N     N_R   0.500040 0.500030 0.142800 -0.157688
O1    O     O_R   0.499990 0.316750 0.614620 -0.638033
O2    O     O_R   0.500010 0.683250 0.385380 -0.638032
O3    O     O_R   0.499990 0.316780 0.385290 -0.583104
O4    O     O_R   0.500010 0.683220 0.614710 -0.583104
O5    O     O_R   0.271750 0.499990 0.587840 -0.625636
O6    O     O_R   0.728250 0.500010 0.412160 -0.625637
O7    O     O_R   0.271750 0.500010 0.358510 -0.571899
O8    O     O_R   0.728250 0.499990 0.641490 -0.571899
Zn1   Zn    Zn3+2 0.500000 0.499980 0.653120 1.007768
Zn2   Zn    Zn3+2 0.500000 0.500020 0.346880 1.007768
F1    F     F_    0.694047 0.657046 0.885998 -0.652745
F2    F     F_    0.305953 0.342954 0.114002 -0.652745

loop_
_geom_bond_atom_site_label_1
_geom_bond_atom_site_label_2
_ccdc_geom_bond_type
C4    O8    A    
C7    H3    S    
C2    O4    A    
O2    Zn2   S    
C1    O3    A    
C4    O6    A    
C10   H6    S    
C3    O5    A    
C9    C11   A    
O3    Zn2   S    
C9    H5    S    
C8    H4    S    
C1    C12   S    
C10   C12   A    
O4    Zn1   S    
N1    Zn1   S    
C8    C11   A    
C5    C6    D    
C2    C11   S    
O6    Zn2   S    
N2    Zn2   S    
O5    Zn1   S    
C13   C15   A    
C14   N1    A    
C16   N2    A    
C7    C12   A    
C6    H2    S    
C14   C16   A    
C13   N2    A    
C15   N1    A    
C5    H1    S    
C3    O7    A    
C7    C9    A    
O7    Zn2   S    
C13   H7    S    
C4    C6    S    
O8    Zn1   S    
C14   H8    S    
C1    O1    A    
C15   F1    S    
C2    O2    A    
O1    Zn1   S    
C8    C10   A    
C16   F2    S    
C3    C5    S    
