data_mof_unit_21713.cif
_audit_creation_date              2012-12-11T15:41:14-0500
_audit_creation_method            fapswitch 2.2
_symmetry_space_group_name_H-M    P1
_symmetry_Int_Tables_number       1
_space_group_crystal_system       triclinic
_cell_length_a                    19.00108
_cell_length_b                    11.020624
_cell_length_c                    18.776595
_cell_angle_alpha                 89.890426
_cell_angle_beta                  90.429555
_cell_angle_gamma                 90.127603
_cell_volume                      3931.76224466

loop_
_atom_site_label
_atom_site_type_symbol
_atom_type_description
_atom_site_fract_x
_atom_site_fract_y
_atom_site_fract_z
_atom_type_partial_charge
C1    C     C_R   0.727475 0.955032 0.853530 0.544598
C2    C     C_R   0.275398 0.961950 0.143914 0.541254
C3    C     C_R   0.227475 0.455032 0.853530 0.544598
C4    C     C_R   0.775398 0.461950 0.143914 0.541254
C5    C     C_R   0.702147 0.473696 0.035023 -0.007361
C6    C     C_R   0.310901 0.442163 0.957285 -0.019206
C7    C     C_R   0.202147 0.973696 0.035023 -0.007361
C8    C     C_R   0.810901 0.942163 0.957285 -0.019206
C9    C     C_R   0.694382 0.463966 0.961983 0.061619
C10   C     C_R   0.320956 0.411274 0.028356 0.039281
C11   C     C_R   0.194382 0.963966 0.961983 0.061619
C12   C     C_R   0.820956 0.911274 0.028356 0.039281
C13   C     C_R   0.817643 0.416243 0.951546 -0.162652
C14   C     C_R   0.222907 0.273338 0.021552 -0.156853
C15   C     C_R   0.317644 0.916243 0.951546 -0.162652
C16   C     C_R   0.722907 0.773338 0.021552 -0.156853
C17   C     C_R   0.824668 0.423826 0.025137 -0.162439
C18   C     C_R   0.213675 0.302323 0.949657 -0.149716
C19   C     C_R   0.324668 0.923826 0.025137 -0.162439
C20   C     C_R   0.713675 0.802323 0.949657 -0.149716
C21   C     C_3   0.630272 0.427300 0.049938 -0.241734
C22   C     C_3   0.335663 0.569701 0.968241 -0.251829
C23   C     C_3   0.130272 0.927300 0.049938 -0.241735
C24   C     C_3   0.835663 0.069701 0.968241 -0.251829
C25   C     C_3   0.620959 0.415903 0.969742 -0.034390
C26   C     C_3   0.346718 0.536287 0.046415 -0.034112
C27   C     C_3   0.120959 0.915902 0.969742 -0.034390
C28   C     C_3   0.846718 0.036287 0.046415 -0.034112
C29   C     C_R   0.750659 0.424440 0.920000 -0.002692
C30   C     C_R   0.273454 0.334375 0.063207 0.021226
C31   C     C_R   0.250659 0.924440 0.920000 -0.002692
C32   C     C_R   0.773454 0.834375 0.063207 0.021226
C33   C     C_R   0.513256 0.171990 0.418700 0.007653
C34   C     C_R   0.522915 0.170432 0.566275 0.009189
C35   C     C_R   0.013255 0.671990 0.418700 0.007653
C36   C     C_R   0.022915 0.670432 0.566275 0.009189
C37   C     C_R   0.526644 0.280067 0.455905 0.022863
C38   C     C_R   0.530343 0.278122 0.528498 0.039867
C39   C     C_R   0.026644 0.780067 0.455905 0.022863
C40   C     C_R   0.030343 0.778122 0.528498 0.039867
C41   C     C_R   0.525939 0.060376 0.528719 -0.138445
C42   C     C_R   0.522968 0.061487 0.454300 -0.135896
C43   C     C_R   0.025939 0.560376 0.528719 -0.138446
C44   C     C_R   0.022968 0.561487 0.454300 -0.135896
C45   C     C_R   0.529943 0.177209 0.850685 0.546522
C46   C     C_R   0.469830 0.178139 0.149211 0.542742
C47   C     C_R   0.029943 0.677210 0.850685 0.546522
C48   C     C_R   0.969830 0.678139 0.149211 0.542742
C49   C     C_3   0.487737 0.398866 0.457745 -0.269652
C50   C     C_3   0.491698 0.394141 0.537754 -0.276631
C51   C     C_3   0.987737 0.898866 0.457745 -0.269653
C52   C     C_3   0.991698 0.894141 0.537754 -0.276631
C53   C     C_R   0.760221 0.426007 0.426930 -0.002575
C54   C     C_R   0.240036 0.427789 0.572591 -0.001378
C55   C     C_R   0.260221 0.926007 0.426930 -0.002575
C56   C     C_R   0.740036 0.927789 0.572591 -0.001379
C57   C     C_R   0.819756 0.402138 0.468975 0.102769
C58   C     C_R   0.183171 0.382304 0.533274 0.094569
C59   C     C_R   0.319756 0.902138 0.468975 0.102768
C60   C     C_R   0.683171 0.882304 0.533274 0.094569
C61   C     C_R   0.815744 0.397836 0.542295 -0.003156
C62   C     C_R   0.185805 0.375644 0.460085 0.006382
C63   C     C_R   0.315744 0.897835 0.542295 -0.003155
C64   C     C_R   0.685805 0.875644 0.460085 0.006382
C65   C     C_R   0.692480 0.449226 0.534552 -0.168804
C66   C     C_R   0.298994 0.474177 0.461388 -0.175129
C67   C     C_R   0.192480 0.949226 0.534552 -0.168804
C68   C     C_R   0.798994 0.974178 0.461388 -0.175129
C69   C     C_R   0.696739 0.453638 0.460346 -0.182865
C70   C     C_R   0.297242 0.477719 0.535882 -0.177807
C71   C     C_R   0.196740 0.953638 0.460346 -0.182865
C72   C     C_R   0.797242 0.977719 0.535881 -0.177807
C73   C     C_3   0.865651 0.291959 0.466515 -0.038215
C74   C     C_3   0.149590 0.259836 0.539853 -0.048036
C75   C     C_3   0.365651 0.791959 0.466515 -0.038215
C76   C     C_3   0.649590 0.759836 0.539853 -0.048035
C77   C     C_3   0.865429 0.292933 0.546766 -0.224531
C78   C     C_3   0.150655 0.254041 0.459552 -0.224260
C79   C     C_3   0.365428 0.792932 0.546766 -0.224530
C80   C     C_3   0.650655 0.754041 0.459552 -0.224260
C81   C     C_R   0.750987 0.413634 0.576014 -0.001943
C82   C     C_R   0.245771 0.414002 0.423216 0.004838
C83   C     C_R   0.250987 0.913634 0.576014 -0.001943
C84   C     C_R   0.745771 0.914002 0.423216 0.004838
C85   C     C_R   0.738352 0.364648 0.852298 0.537542
C86   C     C_R   0.275956 0.312873 0.140142 0.576802
C87   C     C_R   0.238352 0.864648 0.852298 0.537542
C88   C     C_R   0.775956 0.812873 0.140142 0.576802
C89   C     C_R   0.727141 0.956710 0.646723 0.544189
C90   C     C_R   0.272746 0.955917 0.352945 0.550419
C91   C     C_R   0.227141 0.456710 0.646723 0.544189
C92   C     C_R   0.772746 0.455917 0.352945 0.550418
C93   C     C_R   0.534223 0.176586 0.641998 0.547603
C94   C     C_R   0.472562 0.176929 0.353494 0.552621
C95   C     C_R   0.034223 0.676586 0.641998 0.547603
C96   C     C_R   0.972562 0.676929 0.353494 0.552621
C97   C     C_R   0.739380 0.362155 0.646277 0.552127
C98   C     C_R   0.260116 0.362648 0.353435 0.558316
C99   C     C_R   0.239380 0.862155 0.646277 0.552127
C100  C     C_R   0.760116 0.862648 0.353435 0.558316
C101  C     C_2   0.498065 0.166030 0.921052 -0.123850
C102  C     C_2   0.501415 0.171898 0.078684 -0.116470
C103  C     C_2   0.998065 0.666030 0.921052 -0.123850
C104  C     C_2   0.001415 0.671898 0.078684 -0.116470
C105  C     C_2   0.499924 0.069861 0.040052 -0.163384
C106  C     C_2   0.514394 0.070894 0.963241 -0.169967
C107  C     C_2   0.999924 0.569860 0.040052 -0.163384
C108  C     C_2   0.014394 0.570894 0.963241 -0.169967
C109  C     C_R   0.765376 0.443635 0.068131 -0.002723
C110  C     C_R   0.253471 0.396150 0.918537 0.008672
C111  C     C_R   0.265376 0.943635 0.068131 -0.002724
C112  C     C_R   0.753471 0.896150 0.918537 0.008672
Cr1   Cr    Cr6+3 0.769260 0.163750 0.750730 1.005944
Cr2   Cr    Cr6+3 0.230740 0.163750 0.249270 1.004751
Cr3   Cr    Cr6+3 0.269260 0.663750 0.750730 1.005944
Cr4   Cr    Cr6+3 0.730740 0.663750 0.249270 1.004751
Cr5   Cr    Cr6+3 0.612640 0.009910 0.748780 1.010006
Cr6   Cr    Cr6+3 0.387360 0.009910 0.251220 1.007274
Cr7   Cr    Cr6+3 0.112640 0.509910 0.748780 1.010006
Cr8   Cr    Cr6+3 0.887360 0.509910 0.251220 1.007275
Cr9   Cr    Cr6+3 0.614190 0.322400 0.747710 0.999068
Cr10  Cr    Cr6+3 0.385810 0.322400 0.252290 1.018667
Cr11  Cr    Cr6+3 0.114190 0.822400 0.747710 0.999068
Cr12  Cr    Cr6+3 0.885810 0.822400 0.252290 1.018667
H1    H     H_    0.488595 0.983275 0.065068 0.145673
H2    H     H_    0.541102 0.992104 0.941789 0.160759
H3    H     H_    0.988595 0.483275 0.065068 0.145673
H4    H     H_    0.041102 0.492104 0.941789 0.160759
H5    H     H_    0.933018 0.890391 0.438634 0.173636
H6    H     H_    0.024260 0.967407 0.561360 0.127495
H7    H     H_    0.433019 0.390392 0.438634 0.173636
H8    H     H_    0.524260 0.467407 0.561360 0.127495
H9    H     H_    0.518399 0.474919 0.434316 0.120535
H10   H     H_    0.439831 0.380271 0.563483 0.137870
H11   H     H_    0.018399 0.974919 0.434316 0.120535
H12   H     H_    0.939831 0.880271 0.563483 0.137870
H13   H     H_    0.642209 0.465008 0.559026 0.139853
H14   H     H_    0.344174 0.509949 0.434003 0.114767
H15   H     H_    0.142209 0.965009 0.559026 0.139853
H16   H     H_    0.844174 0.009949 0.434003 0.114767
H17   H     H_    0.650691 0.477985 0.429219 0.124666
H18   H     H_    0.341250 0.515590 0.564899 0.116390
H19   H     H_    0.150691 0.977985 0.429219 0.124666
H20   H     H_    0.841250 0.015591 0.564899 0.116391
H21   H     H_    0.841398 0.210271 0.568755 0.145366
H22   H     H_    0.186123 0.182619 0.439846 0.150990
H23   H     H_    0.341398 0.710271 0.568755 0.145366
H24   H     H_    0.686123 0.682619 0.439846 0.150990
H25   H     H_    0.916445 0.319171 0.571874 0.160454
H26   H     H_    0.097986 0.257125 0.433433 0.146291
H27   H     H_    0.416445 0.819169 0.571874 0.160454
H28   H     H_    0.597986 0.757125 0.433433 0.146291
H29   H     H_    0.516623 0.257065 0.054153 0.103335
H30   H     H_    0.470055 0.243780 0.942068 0.104369
H31   H     H_    0.016623 0.757065 0.054153 0.103335
H32   H     H_    0.970055 0.743780 0.942068 0.104369
H33   H     H_    0.863247 0.391084 0.920618 0.143023
H34   H     H_    0.186533 0.210456 0.045859 0.152622
H35   H     H_    0.363247 0.891084 0.920618 0.143023
H36   H     H_    0.686532 0.710456 0.045859 0.152622
H37   H     H_    0.876108 0.409129 0.048373 0.140196
H38   H     H_    0.170492 0.260019 0.920966 0.155746
H39   H     H_    0.376109 0.909129 0.048373 0.140196
H40   H     H_    0.670492 0.760019 0.920966 0.155746
H41   H     H_    0.096584 0.997507 0.074941 0.161061
H42   H     H_    0.793594 0.137856 0.958373 0.158478
H43   H     H_    0.596584 0.497507 0.074941 0.161061
H44   H     H_    0.293593 0.637856 0.958373 0.158478
H45   H     H_    0.631546 0.338519 0.078120 0.107302
H46   H     H_    0.385813 0.588056 0.940068 0.124507
H47   H     H_    0.131546 0.838519 0.078120 0.107302
H48   H     H_    0.885814 0.088055 0.940067 0.124507
H49   H     H_    0.614015 0.321219 0.950677 0.149445
H50   H     H_    0.402673 0.537765 0.064245 0.151389
H51   H     H_    0.114016 0.821219 0.950677 0.149445
H52   H     H_    0.902674 0.037764 0.064245 0.151389
H53   H     H_    0.527691 0.974910 0.556636 0.188093
H54   H     H_    0.521745 0.977293 0.425287 0.172185
H55   H     H_    0.027692 0.474910 0.556636 0.188092
H56   H     H_    0.021745 0.477293 0.425286 0.172185
O1    O     O_R   0.784290 0.290360 0.830540 -0.526845
O2    O     O_R   0.215710 0.290360 0.169460 -0.517636
O3    O     O_R   0.284290 0.790360 0.830540 -0.526845
O4    O     O_R   0.715710 0.790360 0.169460 -0.517636
O5    O     O_R   0.554690 0.080440 0.673480 -0.505332
O6    O     O_R   0.445310 0.080440 0.326520 -0.495355
O7    O     O_R   0.054690 0.580440 0.673480 -0.505332
O8    O     O_R   0.945310 0.580440 0.326520 -0.495354
O9    O     O_R   0.543980 0.282110 0.666770 -0.518465
O10   O     O_R   0.456020 0.282110 0.333230 -0.528173
O11   O     O_R   0.043980 0.782110 0.666770 -0.518465
O12   O     O_R   0.956020 0.782110 0.333230 -0.528173
O13   O     O_R   0.679070 0.374030 0.674430 -0.506983
O14   O     O_R   0.320930 0.374030 0.325570 -0.501698
O15   O     O_R   0.179070 0.874030 0.674430 -0.506983
O16   O     O_R   0.820930 0.874030 0.325570 -0.501698
O17   O     O_3   0.665360 0.165350 0.749070 -0.245825
O18   O     O_3   0.334640 0.165350 0.250930 -0.273268
O19   O     O_3   0.165360 0.665350 0.749070 -0.245825
O20   O     O_3   0.834640 0.665350 0.250930 -0.273268
O21   O     O_R   0.762610 0.041070 0.825230 -0.498926
O22   O     O_R   0.237390 0.041070 0.174770 -0.515835
O23   O     O_R   0.262610 0.541070 0.825230 -0.498926
O24   O     O_R   0.737390 0.541070 0.174770 -0.515835
O25   O     O_R   0.667390 0.924160 0.829970 -0.528274
O26   O     O_R   0.332610 0.924160 0.170030 -0.527186
O27   O     O_R   0.167390 0.424160 0.829970 -0.528274
O28   O     O_R   0.832610 0.424160 0.170030 -0.527186
O29   O     O_R   0.553980 0.081420 0.821780 -0.494596
O30   O     O_R   0.446020 0.081420 0.178220 -0.501432
O31   O     O_R   0.053980 0.581420 0.821780 -0.494596
O32   O     O_R   0.946020 0.581420 0.178220 -0.501432
O33   O     O_R   0.543210 0.283170 0.826740 -0.529146
O34   O     O_R   0.456790 0.283170 0.173260 -0.528396
O35   O     O_R   0.043210 0.783170 0.826740 -0.529146
O36   O     O_R   0.956790 0.783170 0.173260 -0.528396
O37   O     O_R   0.678350 0.375000 0.822720 -0.506879
O38   O     O_R   0.321650 0.375000 0.177280 -0.463064
O39   O     O_R   0.178350 0.875000 0.822720 -0.506879
O40   O     O_R   0.821650 0.875000 0.177280 -0.463064
O41   O     O_R   0.785060 0.289300 0.670580 -0.525665
O42   O     O_R   0.214940 0.289300 0.329420 -0.522974
O43   O     O_R   0.285060 0.789300 0.670580 -0.525665
O44   O     O_R   0.714940 0.789300 0.329420 -0.522974
O45   O     O_R   0.763330 0.040090 0.676940 -0.507279
O46   O     O_R   0.236670 0.040090 0.323060 -0.509094
O47   O     O_R   0.263330 0.540090 0.676940 -0.507279
O48   O     O_R   0.736670 0.540090 0.323060 -0.509094
O49   O     O_R   0.668160 0.923110 0.670000 -0.517960
O50   O     O_R   0.331840 0.923110 0.330000 -0.511414
O51   O     O_R   0.168160 0.423110 0.670000 -0.517960
O52   O     O_R   0.831840 0.423110 0.330000 -0.511412
N1    N     N_3   0.935343 0.315363 0.437920 -0.632598
H57   H     H_    0.932154 0.310139 0.382477 0.254038
H58   H     H_    0.967645 0.243189 0.453442 0.216967
N2    N     N_3   0.078099 0.265137 0.567475 -0.649149
H59   H     H_    0.053263 0.183138 0.554932 0.209045
H60   H     H_    0.081268 0.267626 0.623005 0.253005
N3    N     N_3   0.435344 0.815362 0.437920 -0.632599
H61   H     H_    0.432154 0.810142 0.382477 0.254039
H62   H     H_    0.467644 0.743187 0.453441 0.216966
N4    N     N_3   0.578099 0.765137 0.567475 -0.649148
H63   H     H_    0.553263 0.683138 0.554932 0.209046
H64   H     H_    0.581268 0.767625 0.623005 0.253004
H65   H     H_    0.838817 0.213205 0.441594 0.126998
H66   H     H_    0.183547 0.192042 0.567386 0.131259
H67   H     H_    0.338817 0.713205 0.441593 0.126998
H68   H     H_    0.683548 0.692042 0.567386 0.131258
N5    N     N_3   0.568821 0.501210 0.941955 -0.638552
H69   H     H_    0.519013 0.466616 0.953999 0.221235
H70   H     H_    0.572550 0.502061 0.886461 0.263897
N6    N     N_3   0.299617 0.600868 0.094737 -0.593185
H71   H     H_    0.316906 0.690732 0.097818 0.240275
H72   H     H_    0.248329 0.602242 0.073974 0.237299
N7    N     N_3   0.068821 0.001209 0.941955 -0.638552
H73   H     H_    0.019013 0.966616 0.953999 0.221235
H74   H     H_    0.072550 0.002061 0.886461 0.263897
N8    N     N_3   0.799617 0.100868 0.094737 -0.593184
H75   H     H_    0.816907 0.190732 0.097818 0.240275
H76   H     H_    0.748329 0.102242 0.073974 0.237299

loop_
_geom_bond_atom_site_label_1
_geom_bond_atom_site_label_2
_ccdc_geom_bond_type
Cr8   O32   S    
C39   C51   S    
C4    C109  S    
C48   O36   A    
C67   C83   A    
C55   C59   A    
C16   H36   S    
C3    O23   A    
C41   C42   A    
C96   O8    A    
C75   N3    S    
N3    H61   S    
C2    O22   A    
C34   C93   S    
C26   N6    S    
C53   C69   A    
C33   C94   S    
Cr8   O52   S    
Cr12  O40   S    
C51   H5    S    
C9    C25   S    
C73   N1    S    
C63   C79   S    
C35   C96   S    
C65   C69   A    
C15   C19   A    
C49   H7    S    
C43   H55   S    
N5    H69   S    
C5    C109  A    
Cr4   O48   S    
Cr7   O19   S    
C33   C42   A    
C18   H38   S    
C13   C29   A    
Cr6   O26   S    
C14   C30   A    
C55   C90   S    
Cr5   O25   S    
C8    C112  A    
C1    C112  S    
C87   O3    A    
C35   C39   A    
C74   H66   S    
C7    C23   S    
C4    O24   A    
Cr2   O46   S    
C100  O44   A    
C3    C110  S    
C69   H17   S    
Cr1   O21   S    
C20   H40   S    
C99   O15   A    
Cr10  O34   S    
N2    H59   S    
C98   O14   A    
C102  C105  D    
C72   H20   S    
C47   O31   A    
C86   O38   A    
N6    H71   S    
C57   C73   S    
C85   O37   A    
C64   C84   A    
C49   H9    S    
C8    C24   S    
C20   C112  A    
C51   H11   S    
C61   C81   A    
Cr1   O1    S    
C48   O32   A    
C97   O41   A    
Cr7   O51   S    
C56   C72   A    
C47   O35   A    
C45   O33   A    
C107  C108  S    
Cr2   O22   S    
Cr10  O10   S    
C103  C108  D    
C2    O26   A    
C87   O39   A    
C8    C12   A    
C30   C86   S    
C67   H15   S    
N1    H57   S    
C98   O42   A    
C29   C85   S    
C95   O11   A    
C17   H37   S    
C65   H13   S    
N7    H74   S    
C10   C26   S    
C6    C22   S    
C62   C82   A    
C1    O21   A    
C83   C99   S    
C12   C32   A    
Cr3   O23   S    
C6    C110  A    
C44   H56   S    
C76   H68   S    
C34   C41   A    
C25   N5    S    
Cr10  O14   S    
C64   C80   S    
C91   O51   A    
Cr8   O8    S    
Cr9   O13   S    
Cr4   O24   S    
C62   C78   S    
C60   C64   A    
C4    O28   A    
Cr7   O7    S    
C23   C27   S    
C100  O16   A    
Cr6   O6    S    
C99   O43   A    
C2    C111  S    
N5    H70   S    
C31   C87   S    
C82   C98   S    
C95   O7    A    
C51   C52   S    
C68   C84   A    
C76   C80   S    
Cr11  O35   S    
C36   C40   A    
C47   C103  S    
C50   H10   S    
C77   H25   S    
C39   C40   A    
C53   C57   A    
C45   C101  S    
C79   H23   S    
C7    C111  A    
C52   H12   S    
C46   O34   A    
C40   C52   S    
Cr3   O19   S    
Cr11  O39   S    
C60   C76   S    
C33   C37   A    
C56   C60   A    
C63   C83   A    
C68   C72   A    
Cr8   O28   S    
Cr4   O44   S    
C7    C11   A    
C43   C44   A    
C94   O10   A    
Cr3   O47   S    
C37   C38   A    
C66   C82   A    
C37   C49   S    
C10   C30   A    
N6    H72   S    
Cr1   O45   S    
C54   C70   A    
C11   C27   S    
C16   C20   A    
C75   H67   S    
Cr1   O41   S    
Cr12  O16   S    
C53   C92   S    
C54   C58   A    
N4    H63   S    
C27   N7    S    
C23   H47   S    
N3    H62   S    
C78   H26   S    
C19   H39   S    
Cr10  O18   S    
Cr11  O11   S    
C57   C61   A    
C35   C44   A    
N1    H58   S    
C102  H29   S    
Cr9   O17   S    
C106  H2    S    
C22   H46   S    
C50   H8    S    
C58   C62   A    
C74   N2    S    
Cr2   O42   S    
C56   C89   S    
C84   C100  S    
C12   C28   S    
C28   N8    S    
C88   O40   A    
C22   C26   S    
C46   O30   A    
C66   H14   S    
C73   H65   S    
C59   C63   A    
C68   H16   S    
C32   C88   S    
Cr7   O27   S    
C78   H22   S    
C27   H51   S    
N7    H73   S    
Cr6   O18   S    
C59   C75   S    
N8    H76   S    
Cr12  O12   S    
Cr5   O17   S    
C58   C74   S    
C24   C28   S    
C71   H19   S    
Cr12  O36   S    
C79   H27   S    
Cr11  O19   S    
C101  C106  D    
C80   H28   S    
C61   C77   S    
C21   C25   S    
C85   O1    A    
C93   O9    A    
Cr10  O38   S    
C91   O47   A    
C34   C38   A    
Cr9   O37   S    
C14   C18   A    
C90   O46   A    
C26   H50   S    
C28   H52   S    
C94   O6    A    
C89   O45   A    
C19   C111  A    
C14   H34   S    
C17   C109  A    
C15   H35   S    
C6    C10   A    
C70   H18   S    
Cr3   O3    S    
N4    H64   S    
Cr4   O20   S    
C15   C31   A    
C38   C50   S    
C76   N4    S    
C9    C29   A    
C16   C32   A    
C105  C106  S    
Cr12  O20   S    
Cr7   O31   S    
C21   H43   S    
C13   C17   A    
C107  H3    S    
Cr6   O30   S    
C3    O27   A    
C105  H1    S    
Cr5   O29   S    
N8    H75   S    
C22   H44   S    
C54   C91   S    
Cr2   O2    S    
Cr9   O9    S    
C52   H6    S    
Cr11  O15   S    
C36   C95   S    
C96   O12   A    
C66   C70   A    
C77   H21   S    
C81   C97   S    
C101  H30   S    
C42   H54   S    
C41   H53   S    
C21   H45   S    
Cr4   O4    S    
Cr5   O49   S    
C1    O25   A    
Cr8   O20   S    
N2    H60   S    
Cr1   O17   S    
C67   C71   A    
C93   O5    A    
C104  H31   S    
C24   H42   S    
C24   H48   S    
C45   O29   A    
C88   O4    A    
Cr3   O43   S    
C11   C31   A    
C25   H49   S    
C103  H32   S    
C80   H24   S    
C5    C21   S    
C92   O48   A    
C73   C77   S    
C18   C110  A    
C49   C50   S    
Cr2   O18   S    
C97   O13   A    
C86   O2    A    
C23   H41   S    
C92   O52   A    
C65   C81   A    
C90   O50   A    
C36   C43   A    
Cr5   O5    S    
C5    C9    A    
C108  H4    S    
C89   O49   A    
C13   H33   S    
C75   C79   S    
C104  C107  D    
C55   C71   A    
Cr6   O50   S    
Cr9   O33   S    
C74   C78   S    
C46   C102  S    
C48   C104  S    
