data_mof_unit_36753.cif
_audit_creation_date              2012-12-11T15:54:48-0500
_audit_creation_method            fapswitch 2.2
_symmetry_space_group_name_H-M    P1
_symmetry_Int_Tables_number       1
_space_group_crystal_system       triclinic
_cell_length_a                    6.931852
_cell_length_b                    14.895094
_cell_length_c                    15.818714
_cell_angle_alpha                 90.146092
_cell_angle_beta                  90.276422
_cell_angle_gamma                 89.737365
_cell_volume                      1633.25012376

loop_
_atom_site_label
_atom_site_type_symbol
_atom_type_description
_atom_site_fract_x
_atom_site_fract_y
_atom_site_fract_z
_atom_type_partial_charge
O1    O     O_R   0.638180 0.333920 0.163320 -0.544447
O2    O     O_R   0.361820 0.666080 0.836680 -0.544446
O3    O     O_R   0.308470 0.344960 0.336080 -0.532475
O4    O     O_R   0.691530 0.655040 0.663920 -0.532475
O5    O     O_R   0.138140 0.166110 0.336680 -0.530487
O6    O     O_R   0.861860 0.833890 0.663320 -0.530487
C1    C     C_R   0.477771 0.368977 0.363499 0.729538
C2    C     C_R   0.522229 0.631023 0.636501 0.729539
O7    O     O_R   0.308460 0.344950 0.163930 -0.546896
O8    O     O_R   0.691540 0.655050 0.836070 -0.546896
O9    O     O_R   0.138140 0.166100 0.163310 -0.547735
O10   O     O_R   0.861860 0.833900 0.836690 -0.547736
C3    C     C_R   0.477288 0.367222 0.134919 0.669503
C4    C     C_R   0.522712 0.632778 0.865081 0.669502
O11   O     O_R   0.638180 0.333930 0.336700 -0.529825
O12   O     O_R   0.361820 0.666070 0.663300 -0.529825
O13   O     O_3   0.471670 0.191340 0.250000 -0.371458
O14   O     O_3   0.528330 0.808660 0.750000 -0.371458
V1    V     V_3+5 0.196830 0.260900 0.250000 1.440064
V2    V     V_3+5 0.803170 0.739100 0.750000 1.440064
O15   O     O_R   0.808420 0.155070 0.163920 -0.546574
O16   O     O_R   0.191580 0.844930 0.836080 -0.546574
C5    C     C_R   0.977592 0.132748 0.135036 0.663690
C6    C     C_R   0.022408 0.867252 0.864964 0.663691
O17   O     O_R   0.808420 0.155080 0.336070 -0.529379
O18   O     O_R   0.191580 0.844920 0.663930 -0.529380
C7    C     C_R   0.978781 0.134143 0.365744 0.755777
C8    C     C_R   0.021219 0.865857 0.634256 0.755778
V3    V     V_3+5 0.696830 0.239130 0.250000 1.445725
V4    V     V_3+5 0.303170 0.760870 0.750000 1.445725
O19   O     O_3   0.971850 0.308690 0.250010 -0.364836
O20   O     O_3   0.028150 0.691310 0.749990 -0.364836
H1    H     H_    0.342375 0.873788 0.266452 0.125553
H2    H     H_    0.657625 0.126212 0.733548 0.125553
C9    C     C_R   0.856435 0.172937 0.543453 0.121395
C10   C     C_R   0.143565 0.827063 0.456547 0.121395
C11   C     C_R   0.754195 0.185477 0.618316 -0.103119
C12   C     C_R   0.245805 0.814523 0.381684 -0.103119
C13   C     C_R   0.731130 0.115183 0.674149 -0.154476
C14   C     C_R   0.268870 0.884817 0.325851 -0.154477
C15   C     C_R   0.816695 0.032785 0.657229 -0.146399
C16   C     C_R   0.183305 0.967215 0.342771 -0.146400
C17   C     C_R   0.911717 0.015945 0.579418 0.045957
C18   C     C_R   0.088283 0.984055 0.420582 0.045957
C19   C     C_R   0.918725 0.085838 0.517956 0.045780
C20   C     C_R   0.081276 0.914162 0.482044 0.045780
C21   C     C_R   0.003200 0.932092 0.563709 -0.167746
C22   C     C_R   0.996800 0.067908 0.436291 -0.167746
H3    H     H_    0.704787 0.251798 0.636583 0.143237
H4    H     H_    0.295213 0.748202 0.363418 0.143237
H5    H     H_    0.806615 0.983379 0.706677 0.125936
H6    H     H_    0.193385 0.016621 0.293322 0.125936
C23   C     C_R   0.179565 0.973194 0.968657 -0.154105
C24   C     C_R   0.820435 0.026806 0.031343 -0.154105
H7    H     H_    0.320453 0.953502 0.945675 0.115067
H8    H     H_    0.679547 0.046498 0.054325 0.115067
C25   C     C_R   0.168546 0.036633 0.033998 -0.156595
C26   C     C_R   0.831454 0.963367 0.966002 -0.156595
H9    H     H_    0.301449 0.063996 0.059155 0.117174
H10   H     H_    0.698551 0.936003 0.940845 0.117174
C27   C     C_R   0.988821 0.064364 0.066268 -0.040166
C28   C     C_R   0.011179 0.935636 0.933732 -0.040166
C29   C     C_R   0.321161 0.469726 0.471773 -0.113868
C30   C     C_R   0.678839 0.530274 0.528226 -0.113868
H11   H     H_    0.180487 0.449686 0.449695 0.152555
H12   H     H_    0.819513 0.550314 0.550305 0.152555
C31   C     C_R   0.332966 0.527769 0.541255 -0.117058
C32   C     C_R   0.667033 0.472231 0.458745 -0.117058
H13   H     H_    0.201542 0.546232 0.573493 0.149565
H14   H     H_    0.798458 0.453768 0.426507 0.149565
C33   C     C_R   0.511527 0.561469 0.568686 -0.061620
C34   C     C_R   0.488473 0.438531 0.431314 -0.061620
C35   C     C_R   0.320468 0.474910 0.032065 -0.155187
C36   C     C_R   0.679532 0.525090 0.967935 -0.155187
H15   H     H_    0.179629 0.456666 0.055622 0.116376
H16   H     H_    0.820371 0.543334 0.944378 0.116376
C37   C     C_R   0.331872 0.538384 0.966954 -0.148637
C38   C     C_R   0.668128 0.461616 0.033046 -0.148638
H17   H     H_    0.199123 0.567147 0.942621 0.118573
H18   H     H_    0.800876 0.432853 0.057379 0.118573
C39   C     C_R   0.511577 0.564434 0.933872 -0.043129
C40   C     C_R   0.488422 0.435566 0.066128 -0.043129
I1    I     I_    0.973113 0.292910 0.497224 -0.475249
I2    I     I_    0.026886 0.707090 0.502776 -0.475249

loop_
_geom_bond_atom_site_label_1
_geom_bond_atom_site_label_2
_ccdc_geom_bond_type
C7    C22   S    
C26   C28   A    
C12   C14   A    
C29   H11   S    
C8    C21   S    
O13   V3    S    
O4    C2    A    
V1    O19   S    
C13   C15   A    
O9    V1    S    
C36   H16   S    
C30   C32   A    
C9    C11   A    
O3    C1    A    
C24   C26   A    
C38   H18   S    
C25   H9    S    
C26   H10   S    
C30   C33   A    
O7    C3    A    
O5    C7    A    
O7    V1    S    
O6    C8    A    
O8    V2    S    
O3    V1    S    
O14   V4    S    
C31   C33   A    
C14   C16   A    
C2    O12   A    
V3    O19   S    
C15   C17   A    
C16   C18   A    
C18   C20   A    
O11   V3    S    
C24   H8    S    
C23   H7    S    
O17   V3    S    
C29   C31   A    
H1    C14   S    
H2    C13   S    
O8    C4    A    
C1    C34   S    
C9    I1    S    
C1    O11   A    
O15   V3    S    
C3    C40   S    
C31   H13   S    
C30   H12   S    
C11   H3    S    
C23   C28   A    
C38   C40   A    
C37   C39   A    
C32   C34   A    
O10   V2    S    
O1    V3    S    
C37   H17   S    
C10   C20   A    
C17   C19   A    
O5    V1    S    
O18   V4    S    
O15   C5    A    
O16   C6    A    
O1    C3    A    
C35   H15   S    
C36   C39   A    
C9    C19   A    
C35   C40   A    
V2    O20   S    
C19   C22   A    
C20   C21   A    
C2    C33   S    
C6    C28   S    
O16   V4    S    
C23   C25   A    
C25   C27   A    
C12   H4    S    
C24   C27   A    
O17   C7    A    
O6    V2    S    
O10   C6    A    
O18   C8    A    
O2    V4    S    
C10   C12   A    
C11   C13   A    
V4    O20   S    
C17   C21   A    
C10   I2    S    
O9    C5    A    
O13   V1    S    
O14   V2    S    
O2    C4    A    
O4    V2    S    
C5    C27   S    
C29   C34   A    
C32   H14   S    
C36   C38   A    
C35   C37   A    
C4    C39   S    
O12   V4    S    
C15   H5    S    
C18   C22   A    
C16   H6    S    
