data_mof_unit_30883.cif
_audit_creation_date              2012-12-10T17:21:17-0500
_audit_creation_method            fapswitch 2.2
_symmetry_space_group_name_H-M    P1
_symmetry_Int_Tables_number       1
_space_group_crystal_system       triclinic
_cell_length_a                    9.620277
_cell_length_b                    10.856678
_cell_length_c                    13.86548
_cell_angle_alpha                 93.043959
_cell_angle_beta                  84.207825
_cell_angle_gamma                 90.538913
_cell_volume                      1438.7312822

loop_
_atom_site_label
_atom_site_type_symbol
_atom_type_description
_atom_site_fract_x
_atom_site_fract_y
_atom_site_fract_z
_atom_type_partial_charge
C1    C     C_R   0.501486 0.736748 0.493450 0.813772
C2    C     C_1   0.462043 0.500873 0.786404 -0.198119
C3    C     C_R   0.283888 0.880538 0.403064 0.196520
C4    C     C_R   0.151503 0.934487 0.409601 -0.156049
C5    C     C_R   0.124866 0.043391 0.465056 -0.198925
C6    C     C_R   0.233790 0.106604 0.504928 -0.160508
C7    C     C_R   0.371190 0.058607 0.493049 0.018749
C8    C     C_R   0.388027 0.934716 0.458599 0.080954
C9    C     C_R   0.504102 0.870377 0.485692 -0.162732
C10   C     C_R   0.613972 0.935084 0.524203 -0.213627
C11   C     C_R   0.611784 0.062825 0.537004 0.162501
C12   C     C_R   0.476716 0.500557 0.682930 0.813129
C13   C     C_R   0.491727 0.127344 0.516325 -0.130081
C14   C     C_R   0.873769 0.338954 0.368100 -0.143832
C15   C     C_R   0.954365 0.260719 0.303059 -0.224453
C16   C     C_R   0.097633 0.260642 0.302976 -0.195425
C17   C     C_R   0.161218 0.338533 0.368133 -0.124754
C18   C     C_R   0.083532 0.421394 0.434692 0.153300
C19   C     C_R   0.934078 0.421148 0.435000 0.191544
C20   C     C_R   0.915720 0.574854 0.561390 -0.067968
C21   C     C_R   0.062296 0.572516 0.565187 0.212481
C22   C     C_R   0.497542 0.262586 0.507586 0.794080
C23   C     C_R   0.523301 0.499163 0.317054 0.794656
C24   C     C_1   0.537950 0.499381 0.213595 -0.175710
C25   C     C_2   0.557957 0.500189 0.022612 -0.161491
C26   C     C_2   0.441958 0.501295 0.977419 -0.161809
C27   C     C_1   0.451578 0.501134 0.873500 -0.002525
C28   C     C_1   0.548338 0.499746 0.126519 0.003796
Cu1   Cu    Cu3+1 0.359340 0.500010 0.500010 0.903705
Cu2   Cu    Cu3+1 0.640660 0.499990 0.499990 0.920933
H1    H     H_    0.339332 0.502054 0.018163 0.155530
H2    H     H_    0.764716 0.330110 0.363281 0.201617
H3    H     H_    0.904884 0.198725 0.252982 0.152170
H4    H     H_    0.160131 0.198092 0.253211 0.153839
H5    H     H_    0.271141 0.327491 0.364494 0.202571
H6    H     H_    0.660585 0.499413 0.981846 0.155878
H7    H     H_    0.701732 0.885368 0.546244 0.163676
H8    H     H_    0.069204 0.892563 0.370956 0.144105
H9    H     H_    0.021121 0.082264 0.473036 0.158417
H10   H     H_    0.206516 0.189668 0.548655 0.174819
H11   H     H_    0.851090 0.636476 0.610474 0.150653
N1    N     N_R   0.852210 0.498790 0.499090 -0.215285
N2    N     N_R   0.148080 0.498710 0.499060 -0.224119
O1    O     O_R   0.381190 0.680360 0.500010 -0.587669
O2    O     O_R   0.618760 0.680340 0.500000 -0.583037
O3    O     O_R   0.364420 0.499990 0.637850 -0.592316
O4    O     O_R   0.601990 0.499960 0.637840 -0.571152
O5    O     O_R   0.381240 0.319660 0.500000 -0.611118
O6    O     O_R   0.618810 0.319640 0.499990 -0.589315
O7    O     O_R   0.398010 0.500040 0.362160 -0.594221
O8    O     O_R   0.635580 0.500010 0.362150 -0.584665
C29   C     C_3   0.114987 0.651579 0.647409 -0.361426
C30   C     C_3   0.094872 0.589006 0.745250 -0.339481
C31   C     C_3   0.945321 0.596407 0.794356 -0.854065
H12   H     H_    0.905526 0.692338 0.796861 0.249626
H13   H     H_    0.875274 0.533549 0.755822 0.260528
H14   H     H_    0.943500 0.566902 0.869945 0.238816
H15   H     H_    0.126344 0.490555 0.735572 0.239249
H16   H     H_    0.164507 0.635754 0.795226 0.208521
H17   H     H_    0.225167 0.676157 0.633059 0.227492
H18   H     H_    0.060928 0.742239 0.654168 0.155862
C32   C     C_3   0.313844 0.777825 0.326615 -0.813664
H19   H     H_    0.286556 0.808194 0.255661 0.209932
H20   H     H_    0.426043 0.753067 0.316354 0.214618
H21   H     H_    0.248845 0.695941 0.345549 0.260418
C33   C     C_3   0.733589 0.125344 0.580743 -0.828690
H22   H     H_    0.695036 0.191407 0.641230 0.237987
H23   H     H_    0.801547 0.058127 0.611112 0.206804
H24   H     H_    0.799691 0.173946 0.524567 0.244981

loop_
_geom_bond_atom_site_label_1
_geom_bond_atom_site_label_2
_ccdc_geom_bond_type
C22   O5    A    
C23   C24   S    
C19   N1    A    
Cu1   Cu2   S    
C29   H17   S    
C9    C10   A    
Cu2   O2    S    
C23   O8    A    
C14   C15   A    
C11   C33   S    
C7    C13   A    
Cu1   O3    S    
C30   H15   S    
C1    O1    A    
C2    C12   S    
C32   H19   S    
C5    H9    S    
C17   C18   A    
C30   H16   S    
C26   H1    S    
C30   C31   S    
Cu1   N2    S    
C25   C28   S    
C18   N2    A    
C20   N1    A    
C11   C13   A    
C1    O2    A    
C26   C27   S    
C2    C27   T    
Cu1   O7    S    
C10   H7    S    
C4    C5    A    
C25   C26   D    
Cu2   O8    S    
C4    H8    S    
C13   C22   S    
C20   H11   S    
C6    C7    A    
C6    H10   S    
C29   H18   S    
C12   O4    A    
Cu1   O1    S    
C5    C6    A    
C31   H13   S    
C3    C8    A    
C33   H24   S    
C33   H23   S    
Cu1   O5    S    
C15   C16   A    
C24   C28   T    
Cu2   O4    S    
C7    C8    A    
C1    C9    S    
C20   C21   A    
C12   O3    A    
C18   C19   A    
C10   C11   A    
C3    C32   S    
C22   O6    A    
C33   H22   S    
C31   H12   S    
C16   C17   A    
C23   O7    A    
C32   H20   S    
C17   H5    S    
C32   H21   S    
C16   H4    S    
C25   H6    S    
C21   N2    A    
C14   H2    S    
C14   C19   A    
Cu2   O6    S    
C21   C29   S    
Cu2   N1    S    
C3    C4    A    
C29   C30   S    
C8    C9    A    
C15   H3    S    
C31   H14   S    
