data_mof_unit_21380.cif
_audit_creation_date              2012-12-10T19:01:53-0500
_audit_creation_method            fapswitch 2.2
_symmetry_space_group_name_H-M    P1
_symmetry_Int_Tables_number       1
_space_group_crystal_system       triclinic
_cell_length_a                    11.707197
_cell_length_b                    10.818118
_cell_length_c                    9.552651
_cell_angle_alpha                 89.769069
_cell_angle_beta                  90.056905
_cell_angle_gamma                 90.277161
_cell_volume                      1209.81715177

loop_
_atom_site_label
_atom_site_type_symbol
_atom_type_description
_atom_site_fract_x
_atom_site_fract_y
_atom_site_fract_z
_atom_type_partial_charge
C1    C     C_R   0.501897 0.262418 0.500323 0.793523
C2    C     C_R   0.512309 0.129441 0.501848 -0.092646
C3    C     C_R   0.546808 0.065452 0.381541 -0.215644
C4    C     C_R   0.546698 0.936541 0.381564 -0.216651
C5    C     C_R   0.511156 0.871072 0.501255 -0.096871
C6    C     C_R   0.491818 0.936059 0.624853 0.097055
C7    C     C_3   0.392698 0.929582 0.723149 -0.461774
C8    C     C_3   0.394148 0.069867 0.723897 -0.471900
C9    C     C_R   0.587652 0.553243 0.073484 0.243441
C10   C     C_R   0.419368 0.436781 0.074568 -0.075480
C11   C     C_R   0.419178 0.437016 0.925733 -0.079543
C12   C     C_R   0.283989 0.499925 0.499951 0.823331
C13   C     C_R   0.589206 0.551678 0.926217 0.222709
C14   C     C_3   0.630500 0.683223 0.919258 -0.157078
C15   C     C_3   0.623683 0.684994 0.078875 -0.542837
C16   C     C_R   0.501260 0.737736 0.499920 0.782330
C17   C     C_R   0.715994 0.499888 0.500045 0.816089
C18   C     C_1   0.162301 0.499764 0.499876 -0.191809
C19   C     C_1   0.059840 0.499583 0.499893 -0.009586
C20   C     C_1   0.940079 0.499431 0.499942 -0.016458
C21   C     C_1   0.837634 0.499594 0.500068 -0.187360
C22   C     C_R   0.492748 0.063316 0.625210 0.135546
Cu1   Cu    Cu3+1 0.499990 0.499980 0.640670 0.936870
Cu2   Cu    Cu3+1 0.500010 0.500020 0.359330 0.941762
H1    H     H_    0.569591 0.114427 0.286383 0.164354
H2    H     H_    0.567045 0.745772 0.869902 0.184374
H3    H     H_    0.705947 0.696439 0.135590 0.191306
H4    H     H_    0.553707 0.745026 0.116618 0.195987
H5    H     H_    0.570451 0.889000 0.286993 0.155281
H6    H     H_    0.314827 0.889628 0.673798 0.199689
H7    H     H_    0.415925 0.888708 0.826082 0.189995
H8    H     H_    0.316977 0.111681 0.675367 0.192404
H9    H     H_    0.419207 0.109445 0.826737 0.196807
H10   H     H_    0.352961 0.387308 0.130371 0.142182
H11   H     H_    0.352587 0.387813 0.870225 0.141252
N1    N     N_R   0.500710 0.500930 0.147930 -0.182201
N2    N     N_R   0.500710 0.500890 0.852020 -0.192957
O1    O     O_R   0.500000 0.319640 0.618810 -0.577630
O2    O     O_R   0.500010 0.319680 0.381230 -0.585420
O3    O     O_R   0.337190 0.499990 0.618790 -0.577377
O4    O     O_R   0.337200 0.500030 0.381210 -0.574476
O5    O     O_R   0.499990 0.680320 0.618770 -0.588190
O6    O     O_R   0.500000 0.680360 0.381190 -0.577789
O7    O     O_R   0.662800 0.499970 0.618790 -0.579404
O8    O     O_R   0.662810 0.500010 0.381210 -0.572259
C23   C     C_3   0.754013 0.696934 0.862398 -0.342235
C24   C     C_3   0.759733 0.787402 0.738537 -0.335917
C25   C     C_3   0.882883 0.812284 0.693974 -0.861244
H12   H     H_    0.930938 0.857671 0.780075 0.253160
H13   H     H_    0.925898 0.724602 0.666045 0.262279
H14   H     H_    0.883707 0.874453 0.601199 0.245560
H15   H     H_    0.712635 0.748374 0.648190 0.229447
H16   H     H_    0.719758 0.876647 0.767856 0.217480
H17   H     H_    0.812012 0.732299 0.945453 0.200031
H18   H     H_    0.788058 0.605852 0.829081 0.208492

loop_
_geom_bond_atom_site_label_1
_geom_bond_atom_site_label_2
_ccdc_geom_bond_type
C23   H18   S    
C2    C22   A    
C9    N1    A    
C8    C22   S    
Cu1   Cu2   S    
C12   O3    A    
C12   O4    A    
Cu1   O1    S    
C15   H3    S    
C24   C25   S    
C24   H16   S    
C23   H17   S    
C19   C20   S    
C25   H13   S    
C2    C3    A    
C9    C15   S    
C17   O7    A    
C7    C8    S    
C14   C23   S    
C7    H6    S    
Cu1   N2    S    
C13   C14   S    
C14   H2    S    
Cu2   O4    S    
C16   O6    A    
C15   H4    S    
Cu2   N1    S    
Cu1   O5    S    
C1    O1    A    
Cu2   O8    S    
C11   H11   S    
C25   H12   S    
C17   O8    A    
C18   C19   T    
C6    C7    S    
C8    H9    S    
C5    C6    A    
C7    H7    S    
C10   C11   A    
C1    O2    A    
C3    C4    A    
C6    C22   A    
C16   O5    A    
C3    H1    S    
Cu2   O2    S    
C20   C21   T    
C10   H10   S    
C1    C2    S    
C12   C18   S    
C11   N2    A    
Cu2   O6    S    
C9    C13   A    
C23   C24   S    
C4    C5    A    
C5    C16   S    
C10   N1    A    
C24   H15   S    
C14   C15   S    
C13   N2    A    
C25   H14   S    
C17   C21   S    
Cu1   O7    S    
Cu1   O3    S    
C4    H5    S    
C8    H8    S    
