data_mof_unit_27717.cif
_audit_creation_date              2012-12-11T18:06:53-0500
_audit_creation_method            fapswitch 2.2
_symmetry_space_group_name_H-M    P1
_symmetry_Int_Tables_number       1
_space_group_crystal_system       triclinic
_cell_length_a                    8.203156
_cell_length_b                    12.693306
_cell_length_c                    27.021795
_cell_angle_alpha                 96.614912
_cell_angle_beta                  92.619923
_cell_angle_gamma                 81.400712
_cell_volume                      2762.33567846

loop_
_atom_site_label
_atom_site_type_symbol
_atom_type_description
_atom_site_fract_x
_atom_site_fract_y
_atom_site_fract_z
_atom_type_partial_charge
Ba1   Ba    Ba6+2 0.859560 0.448380 0.523550 1.656227
Ba2   Ba    Ba6+2 0.330270 0.551530 0.476440 1.659416
C1    C     C_3   0.629246 0.082102 0.662520 -0.374662
C2    C     C_3   0.650050 0.183470 0.639946 0.329780
C3    C     C_3   0.482557 0.721491 0.628198 0.299883
C4    C     C_3   0.451436 0.764919 0.682341 -0.341541
C5    C     C_3   0.944331 0.862401 0.344050 0.293204
C6    C     C_3   0.974933 0.898111 0.293960 -0.294844
C7    C     C_3   0.473094 0.830649 0.344266 0.393357
C8    C     C_3   0.466548 0.905242 0.303820 -0.388360
C9    C     C_R   0.004434 0.425112 0.177418 0.592333
C10   C     C_R   0.967940 0.617067 0.185998 0.592380
C11   C     C_2   0.771545 0.585388 0.273836 -0.090598
C12   C     C_3   0.157326 0.213716 0.660292 0.285328
C13   C     C_3   0.741686 0.612506 0.328980 -0.067095
C14   C     C_1   0.985824 0.481557 0.343639 0.039801
C15   C     C_2   0.027096 0.471518 0.295982 -0.080765
C16   C     C_2   0.914551 0.525676 0.258063 0.223295
C17   C     C_R   0.049478 0.518455 0.105748 -0.079692
C18   C     C_R   0.048490 0.422115 0.126966 -0.034083
C19   C     C_R   0.089830 0.324769 0.097132 -0.060057
C20   C     C_R   0.009122 0.616411 0.135711 -0.029719
C21   C     C_2   0.851131 0.541573 0.361340 -0.263575
C22   C     C_2   0.344268 0.476543 0.644039 -0.286424
C23   C     C_3   0.116629 0.188718 0.711586 -0.319890
C24   C     C_R   0.179956 0.416364 0.974280 0.019394
C25   C     C_R   0.121944 0.613834 0.982085 0.020117
C26   C     C_R   0.170062 0.514482 0.952802 0.049746
C27   C     C_R   0.235268 0.320166 0.943936 -0.098715
C28   C     C_R   0.275052 0.320125 0.894305 -0.060463
C29   C     C_R   0.261202 0.415808 0.872266 -0.031797
C30   C     C_R   0.208752 0.513288 0.901452 -0.078257
C31   C     C_R   0.196025 0.609664 0.879357 -0.033495
C32   C     C_R   0.232766 0.607242 0.828477 0.577812
C33   C     C_R   0.298750 0.415886 0.821586 0.581125
C34   C     C_3   0.214434 0.222824 0.417722 0.290030
C35   C     C_2   0.464941 0.481693 0.730035 -0.041564
C36   C     C_3   0.498606 0.486947 0.675794 -0.044919
C37   C     C_1   0.203590 0.530394 0.660562 0.037917
C38   C     C_2   0.171567 0.540664 0.709668 -0.131184
C39   C     C_2   0.309677 0.508996 0.746768 0.162493
C40   C     C_R   0.135271 0.417512 0.025044 0.020252
C41   C     C_R   0.090823 0.517003 0.054599 0.050023
C42   C     C_R   0.087135 0.615189 0.033599 0.020049
C43   C     C_R   0.132198 0.322310 0.047526 -0.098909
C44   C     C_R   0.011230 0.712283 0.114961 -0.062364
C45   C     C_3   0.229418 0.102034 0.405505 -0.357648
C46   C     C_R   0.109255 0.708860 0.958436 -0.100438
C47   C     C_R   0.145630 0.706617 0.908447 -0.057493
C48   C     C_R   0.049155 0.711902 0.065267 -0.099956
C49   C     C_R   0.754731 0.819739 0.477417 -0.271909
C50   C     C_R   0.433173 0.189012 0.520368 -0.291933
C51   C     C_R   0.409726 0.009662 0.536611 -0.098954
C52   C     C_R   0.347209 0.117773 0.539937 -0.004166
C53   C     C_R   0.575641 0.152196 0.493595 0.063144
C54   C     C_R   0.638159 0.040961 0.487670 -0.055153
C55   C     C_R   0.554408 0.969382 0.510296 -0.062326
C56   C     C_3   0.981486 0.775580 0.578955 0.285301
C57   C     C_R   0.615843 0.858988 0.505166 0.055192
C58   C     C_R   0.843163 0.889133 0.457668 -0.036313
C59   C     C_R   0.782898 0.998802 0.461072 -0.092886
C60   C     C_3   0.973039 0.896281 0.589962 -0.336864
C61   C     C_3   0.695468 0.314089 0.376181 0.295705
C62   C     C_3   0.710894 0.286092 0.320170 -0.361778
H1    H     H_    0.756860 0.165147 0.614871 0.081545
H2    H     H_    0.309787 0.076109 0.373179 0.109438
H3    H     H_    0.283907 0.061171 0.437679 0.083073
H4    H     H_    0.105628 0.078579 0.396230 0.134281
H5    H     H_    0.858119 0.755421 0.568160 -0.001844
H6    H     H_    0.066435 0.747899 0.547869 0.072672
H7    H     H_    0.892873 0.925817 0.622000 0.125552
H8    H     H_    0.922190 0.936522 0.557281 0.084554
H9    H     H_    0.098560 0.916744 0.599288 0.136277
H10   H     H_    0.811482 0.339927 0.391953 0.007249
H11   H     H_    0.592452 0.380688 0.383129 0.086903
H12   H     H_    0.604899 0.018536 0.632486 0.087933
H13   H     H_    0.819055 0.223419 0.312133 0.128219
H14   H     H_    0.727034 0.358206 0.302396 0.076426
H15   H     H_    0.597522 0.255896 0.303991 0.132185
H16   H     H_    0.535732 0.208624 0.618219 -0.042263
H17   H     H_    0.524116 0.098118 0.688083 0.137819
H18   H     H_    0.365897 0.698095 0.611094 0.014505
H19   H     H_    0.579968 0.650406 0.626732 0.047471
H20   H     H_    0.359118 0.838734 0.684170 0.132561
H21   H     H_    0.568057 0.784209 0.701280 0.156178
H22   H     H_    0.742972 0.053707 0.683916 0.132234
H23   H     H_    0.130591 0.258142 0.739467 0.126990
H24   H     H_    0.909582 0.780677 0.337895 0.027805
H25   H     H_    0.841388 0.920133 0.361048 -0.032635
H26   H     H_    0.077630 0.842878 0.275445 0.173672
H27   H     H_    0.007718 0.980562 0.299305 0.094478
H28   H     H_    0.603996 0.814448 0.357435 -0.129799
H29   H     H_    0.401626 0.872453 0.376483 0.082755
H30   H     H_    0.534163 0.862956 0.270886 0.123671
H31   H     H_    0.525509 0.976567 0.317937 0.074907
H32   H     H_    0.086628 0.292531 0.653968 0.093113
H33   H     H_    0.336627 0.932006 0.292473 0.127738
H34   H     H_    0.144813 0.426438 0.284416 0.111862
H35   H     H_    0.089299 0.249196 0.112083 0.119717
H36   H     H_    0.567181 0.462902 0.756060 0.094155
H37   H     H_    0.316335 0.243858 0.873017 0.122565
H38   H     H_    0.251527 0.242713 0.957502 0.069512
H39   H     H_    0.159568 0.243628 0.027593 0.067650
H40   H     H_    0.687626 0.626176 0.247575 0.094766
H41   H     H_    0.982756 0.789010 0.137215 0.118255
H42   H     H_    0.068759 0.787199 0.977234 0.068274
H43   H     H_    0.290848 0.218752 0.659523 -0.016507
H44   H     H_    0.133207 0.782050 0.892515 0.124071
H45   H     H_    0.049488 0.789680 0.053141 0.068364
H46   H     H_    0.829940 0.554766 0.401070 0.075285
H47   H     H_    0.344701 0.414869 0.612597 0.054650
H48   H     H_    0.340251 0.958217 0.553451 0.106622
H49   H     H_    0.852730 0.049326 0.443790 0.102622
H50   H     H_    0.801987 0.735029 0.474671 0.056331
H51   H     H_    0.383357 0.273315 0.523495 0.069842
H52   H     H_    0.987090 0.173014 0.711649 0.145973
H53   H     H_    0.200392 0.117058 0.722018 0.121457
H54   H     H_    0.338085 0.245175 0.426717 0.002804
H55   H     H_    0.134055 0.246817 0.450262 0.072027
N1    N     N_R   0.963262 0.522130 0.206364 -0.422706
N2    N     N_R   0.279340 0.510715 0.799770 -0.434068
O1    O     O_2   0.907040 0.557650 0.617910 -0.434120
O2    O     O_3   0.665195 0.223341 0.397172 -0.643199
O3    O     O_3   0.114128 0.132500 0.624582 -0.611709
O4    O     O_2   0.282660 0.442310 0.382060 -0.454263
O5    O     O_3   0.050670 0.442340 0.442260 -0.501959
O6    O     O_3   0.504750 0.639360 0.411530 -0.466091
O7    O     O_3   0.148330 0.270648 0.375792 -0.630946
O8    O     O_3   0.618400 0.630290 0.524520 -0.479486
O9    O     O_3   0.090070 0.694820 0.435810 -0.465238
O10   O     O_2   0.181248 0.883645 0.466787 -0.482780
O11   O     O_3   0.089175 0.861701 0.373741 -0.582634
O12   O     O_3   0.139040 0.557570 0.557730 -0.504595
O13   O     O_3   0.571310 0.369620 0.475470 -0.491890
O14   O     O_2   0.348200 0.764910 0.523260 -0.470871
O15   O     O_3   0.535061 0.801841 0.604139 -0.647360
O16   O     O_2   0.439087 0.529006 0.323949 -0.485327
O17   O     O_3   0.403043 0.738492 0.325224 -0.559696
O18   O     O_2   0.000772 0.341350 0.195272 -0.598260
O19   O     O_2   0.348640 0.331389 0.796878 -0.603568
O20   O     O_2   0.937061 0.702679 0.211831 -0.625333
O21   O     O_2   0.223962 0.691201 0.809770 -0.587226
O22   O     O_3   0.684960 0.360550 0.588460 -0.485146
O23   O     O_2   0.839860 0.420344 0.672539 -0.505445
O24   O     O_3   0.035340 0.729610 0.622396 -0.593795
O25   O     O_3   0.677864 0.263525 0.678402 -0.591894
O26   O     O_2   0.841490 0.235060 0.476710 -0.467751
O27   O     O_3   0.099640 0.305100 0.564190 -0.496548
O28   O     O_2   0.011225 0.115954 0.532025 -0.481936
P1    P     P_3+3 0.072810 0.589830 0.610360 1.039244
P2    P     P_3+3 0.661990 0.251250 0.462170 0.968726
P3    P     P_3+3 0.143474 0.166829 0.565105 0.934233
P4    P     P_3+3 0.116900 0.410080 0.389630 0.988717
P5    P     P_3+3 0.048431 0.833835 0.433462 0.961741
P6    P     P_3+3 0.674158 0.385158 0.653261 0.969780
P7    P     P_3+3 0.533397 0.764535 0.539804 0.937952
P8    P     P_3+3 0.521998 0.625900 0.346729 0.983459
H56   H     H_    0.402981 0.705032 0.702172 0.083044
H57   H     H_    0.861705 0.898008 0.269824 0.106653
C63   C     C_2   0.006179 0.583464 0.729720 0.635148
H58   H     H_    0.966848 0.553232 0.762490 -0.046250
O29   O     O_2   0.916040 0.655859 0.711934 -0.565087

loop_
_geom_bond_atom_site_label_1
_geom_bond_atom_site_label_2
_ccdc_geom_bond_type
C25   C46   A    
C56   C60   S    
C3    O15   S    
C53   C54   A    
C7    H29   S    
C27   H38   S    
C62   H13   S    
C39   N2    S    
C17   C18   A    
Ba2   O8    S    
C56   O24   S    
C5    C6    S    
C51   C52   A    
C54   C55   A    
C37   P1    S    
Ba2   O13   S    
C4    H21   S    
C11   C16   D    
C13   P8    S    
O1    P1    D    
Ba2   P4    S    
C35   C36   S    
C2    H16   S    
Ba1   O8    S    
C28   C29   A    
O15   P7    S    
C55   C57   A    
C8    H30   S    
C31   C47   A    
C5    H25   S    
C44   H41   S    
C10   C20   A    
C23   H23   S    
C22   C37   D    
C10   O20   D    
C28   H37   S    
C34   C45   S    
Ba1   Ba2   S    
C12   H32   S    
C34   H55   S    
C9    O18   D    
Ba1   O1    S    
C43   H39   S    
C10   N1    Am   
O22   P6    S    
C25   C42   A    
C46   H42   S    
O25   P6    S    
C5    H24   S    
C17   C41   A    
C14   C15   D    
C1    H17   S    
C22   C36   S    
C60   H9    S    
C34   H54   S    
C7    C8    S    
O6    P8    S    
C45   H2    S    
O24   P1    S    
C50   C53   A    
Ba2   O6    S    
C50   C52   A    
C13   C21   S    
O3    P3    S    
C1    H22   S    
C34   O7    S    
C22   H47   S    
C36   P6    S    
Ba1   O12   S    
C9    N1    Am   
C7    H28   S    
C45   H3    S    
C4    H56   S    
O4    P4    D    
C31   C32   A    
C47   H44   S    
C19   C43   A    
O2    P2    S    
C9    C18   A    
C49   H50   S    
C4    H20   S    
Ba2   O12   S    
C33   N2    Am   
C17   C20   A    
C12   O3    S    
Ba1   O5    S    
O28   P3    D    
C37   C38   D    
C19   H35   S    
C51   C55   A    
C56   H6    S    
C52   P3    S    
C48   H45   S    
O14   P7    D    
C58   C59   A    
C40   C43   A    
C63   O29   D    
C8    H33   S    
O26   P2    D    
C41   C42   A    
Ba2   O4    S    
C27   C28   A    
Ba1   O22   S    
C33   O19   D    
C32   O21   D    
C7    O17   S    
O11   P5    S    
C29   C30   A    
C26   C30   A    
C2    O25   S    
C15   C16   S    
C60   H8    S    
Ba1   P1    S    
O9    P5    S    
C6    H27   S    
C11   H40   S    
C1    H12   S    
C5    O11   S    
O7    P4    S    
Ba2   O5    S    
C51   H48   S    
C38   C39   S    
C12   H43   S    
C32   N2    Am   
C11   C13   S    
C59   H49   S    
C62   H15   S    
C29   C33   A    
C23   H52   S    
C49   C57   A    
C40   C41   A    
Ba1   O13   S    
C16   N1    S    
C45   H4    S    
C14   P4    S    
C24   C40   A    
C15   H34   S    
C50   H51   S    
C42   C48   A    
C21   H46   S    
C46   C47   A    
C20   C44   A    
C62   H14   S    
C38   C63   S    
O10   P5    D    
O12   P1    S    
O27   P3    S    
C23   H53   S    
O8    P7    S    
C61   O2    S    
C57   P7    S    
C56   H5    S    
C53   P2    S    
C61   H10   S    
C14   C21   D    
C44   C48   A    
C24   C26   A    
Ba2   O14   S    
O16   P8    D    
C63   H58   S    
O23   P6    D    
C30   C31   A    
C3    H18   S    
O17   P8    S    
C3    C4    S    
C61   H11   S    
C8    H31   S    
C3    H19   S    
O13   P2    S    
C2    H1    S    
Ba2   O9    S    
C60   H7    S    
Ba1   P2    S    
C12   C23   S    
C35   C39   D    
C58   P5    S    
Ba1   O26   S    
C61   C62   S    
O5    P4    S    
C6    H26   S    
C18   C19   A    
C24   C27   A    
C25   C26   A    
C54   C59   A    
Ba1   O27   S    
C49   C58   A    
C6    H57   S    
C35   H36   S    
C1    C2    S    
