data_mof_unit_58778.cif
_audit_creation_date              2012-12-11T14:56:25-0500
_audit_creation_method            fapswitch 2.2
_symmetry_space_group_name_H-M    P1
_symmetry_Int_Tables_number       1
_space_group_crystal_system       triclinic
_cell_length_a                    10.582529
_cell_length_b                    10.692294
_cell_length_c                    17.155403
_cell_angle_alpha                 80.654771
_cell_angle_beta                  89.570046
_cell_angle_gamma                 119.406543
_cell_volume                      1659.99777939

loop_
_atom_site_label
_atom_site_type_symbol
_atom_type_description
_atom_site_fract_x
_atom_site_fract_y
_atom_site_fract_z
_atom_type_partial_charge
C1    C     C_R   0.222765 0.854498 0.128696 0.548737
C2    C     C_R   0.795849 0.408422 0.265557 -0.147947
C3    C     C_R   0.786403 0.397740 0.187069 -0.184412
C4    C     C_R   0.650892 0.342285 0.157142 0.062872
C5    C     C_1   0.668876 0.848917 0.205459 -0.025455
C6    C     C_1   0.680525 0.839071 0.274784 -0.028552
C7    C     C_1   0.180251 0.825838 0.211117 -0.030811
C8    C     C_1   0.150809 0.819479 0.279682 -0.035172
C9    C     C_1   0.644464 0.323812 0.778181 -0.040361
C10   C     C_1   0.651576 0.346119 0.707683 -0.043030
C11   C     C_R   0.625170 0.713193 0.804470 -0.138222
C12   C     C_R   0.635916 0.279779 0.086530 0.562883
C13   C     C_R   0.613583 0.697513 0.726425 -0.130904
C14   C     C_R   0.670986 0.821577 0.665701 0.032744
C15   C     C_R   0.747688 0.961756 0.683270 -0.149367
C16   C     C_R   0.756681 0.977703 0.761936 -0.142793
C17   C     C_R   0.689461 0.853020 0.822604 0.022107
C18   C     C_R   0.086226 0.884288 0.789845 -0.134725
C19   C     C_R   0.068987 0.880816 0.710723 -0.123661
C20   C     C_R   0.117153 0.804199 0.671229 0.033160
C21   C     C_R   0.171870 0.721039 0.713079 -0.136115
C22   C     C_R   0.191183 0.726098 0.792631 -0.124564
C23   C     C_R   0.640262 0.858660 0.125471 0.552086
C24   C     C_R   0.154624 0.813696 0.829968 0.027131
C25   C     C_R   0.686851 0.809591 0.357099 0.552562
C26   C     C_R   0.689777 0.396677 0.394551 0.552478
C27   C     C_R   0.103477 0.810112 0.359105 0.551158
C28   C     C_R   0.678102 0.799705 0.585778 0.541571
C29   C     C_R   0.679001 0.383207 0.624602 0.550005
C30   C     C_R   0.089878 0.798961 0.589283 0.547882
C31   C     C_R   0.217984 0.858772 0.901804 0.542795
C32   C     C_R   0.637446 0.284279 0.860914 0.542799
C33   C     C_R   0.647133 0.866932 0.899342 0.544260
C34   C     C_R   0.526395 0.316265 0.204000 0.237474
C35   C     C_R   0.538081 0.329755 0.283640 -0.127561
C36   C     C_R   0.670826 0.368981 0.314921 -0.000788
Cr1   Cr    Cr6+3 0.402240 0.783890 0.019450 1.037931
Cr2   Cr    Cr6+3 0.382360 0.097900 0.991800 1.066085
Cr3   Cr    Cr6+3 0.715380 0.118170 0.988700 1.028765
Cr4   Cr    Cr6+3 0.936650 0.882420 0.465510 1.026409
Cr5   Cr    Cr6+3 0.605770 0.565620 0.493360 1.027566
Cr6   Cr    Cr6+3 0.921340 0.550490 0.496380 1.024841
H1    H     H_    0.018537 0.939261 0.680326 0.148496
H2    H     H_    0.203806 0.656898 0.683797 0.128260
H3    H     H_    0.243880 0.670010 0.823012 0.143959
H4    H     H_    0.444047 0.307982 0.321249 0.118950
H5    H     H_    0.902240 0.448715 0.287302 0.155271
H6    H     H_    0.883857 0.423121 0.151313 0.146686
H7    H     H_    0.574319 0.616047 0.850730 0.133758
H8    H     H_    0.561645 0.588026 0.713605 0.139500
H9    H     H_    0.798425 0.057834 0.636383 0.130387
H10   H     H_    0.806490 0.086890 0.775012 0.145770
H11   H     H_    0.054858 0.949958 0.818088 0.135213
O1    O     O_R   0.521780 0.757110 0.108900 -0.499515
O2    O     O_R   0.513330 0.228330 0.898660 -0.503373
O3    O     O_R   0.739230 0.266130 0.888050 -0.514061
O4    O     O_R   0.712580 0.991850 0.918770 -0.507828
O5    O     O_3   0.499990 0.999980 0.999980 -0.264334
O6    O     O_R   0.083770 0.911170 0.376030 -0.506034
O7    O     O_R   0.808770 0.880340 0.383890 -0.495621
O8    O     O_R   0.584340 0.689460 0.394160 -0.508611
O9    O     O_R   0.614320 0.443940 0.423590 -0.501596
O10   O     O_R   0.805020 0.410040 0.421340 -0.522425
O11   O     O_R   0.049240 0.685450 0.403290 -0.502956
O12   O     O_R   0.275160 0.783810 0.101120 -0.503589
O13   O     O_R   0.077520 0.903010 0.551800 -0.524060
O14   O     O_R   0.802980 0.872780 0.546830 -0.507825
O15   O     O_R   0.578090 0.681300 0.569920 -0.521284
O16   O     O_R   0.608530 0.436370 0.586530 -0.502087
O17   O     O_R   0.798770 0.401880 0.597100 -0.513038
O18   O     O_R   0.043450 0.677890 0.566230 -0.501116
O19   O     O_3   0.821250 0.666180 0.485090 -0.261019
O20   O     O_R   0.237900 0.972600 0.090980 -0.480475
O21   O     O_R   0.511190 0.220540 0.061620 -0.437171
O22   O     O_R   0.736920 0.257720 0.063840 -0.534498
O23   O     O_R   0.710450 0.984050 0.081720 -0.496465
O24   O     O_R   0.524090 0.765520 0.933110 -0.516802
O25   O     O_R   0.277300 0.791600 0.938160 -0.507976
O26   O     O_R   0.240210 0.981010 0.915190 -0.519969
O27   O     O_3   0.394612 0.272532 0.172359 -0.666332
H12   H     H_    0.319981 0.257493 0.213759 0.321948

loop_
_geom_bond_atom_site_label_1
_geom_bond_atom_site_label_2
_ccdc_geom_bond_type
Cr4   O7    S    
C12   O21   A    
C19   C20   A    
Cr5   O8    S    
C23   O23   A    
C30   O18   A    
C7    C8    T    
C20   C30   S    
C23   O1    A    
C18   C24   A    
C28   O15   A    
C34   C35   A    
C5    C6    T    
C6    C25   S    
Cr2   O26   S    
C15   C16   A    
Cr3   O4    S    
C3    H6    S    
Cr6   O17   S    
C18   C19   A    
C9    C32   S    
C34   O27   S    
Cr2   O5    S    
Cr2   O2    S    
C35   C36   A    
C16   C17   A    
Cr4   O14   S    
Cr1   O12   S    
C1    O12   A    
C25   O7    A    
C15   H9    S    
C4    C12   S    
C9    C10   T    
C32   O2    A    
Cr1   O5    S    
C18   H11   S    
Cr4   O6    S    
Cr4   O13   S    
C21   C22   A    
C17   C33   S    
Cr5   O9    S    
C19   H1    S    
Cr5   O15   S    
C29   O16   A    
C4    C34   A    
C28   O14   A    
Cr3   O5    S    
Cr1   O24   S    
C26   O10   A    
C11   H7    S    
C21   H2    S    
Cr3   O3    S    
C5    C23   S    
Cr6   O19   S    
C25   O8    A    
Cr3   O23   S    
C30   O13   A    
Cr5   O19   S    
Cr1   O1    S    
C26   C36   S    
Cr3   O22   S    
C22   C24   A    
C3    C4    A    
Cr6   O11   S    
C31   O25   A    
Cr5   O16   S    
C29   O17   A    
Cr2   O21   S    
C2    C36   A    
C11   C17   A    
C33   O4    A    
Cr4   O19   S    
C1    C7    S    
C16   H10   S    
O27   H12   S    
C31   O26   A    
C2    H5    S    
Cr1   O25   S    
C1    O20   A    
C2    C3    A    
C26   O9    A    
C24   C31   S    
C27   O6    A    
C11   C13   A    
C10   C29   S    
C33   O24   A    
Cr6   O18   S    
C27   O11   A    
C13   H8    S    
C22   H3    S    
C20   C21   A    
C12   O22   A    
C8    C27   S    
C14   C15   A    
C14   C28   S    
C13   C14   A    
C35   H4    S    
Cr6   O10   S    
C32   O3    A    
Cr2   O20   S    
