data_mof_unit_15895.cif
_audit_creation_date              2012-12-11T15:39:09-0500
_audit_creation_method            fapswitch 2.2
_symmetry_space_group_name_H-M    P1
_symmetry_Int_Tables_number       1
_space_group_crystal_system       triclinic
_cell_length_a                    14.329945
_cell_length_b                    14.771967
_cell_length_c                    33.23199
_cell_angle_alpha                 97.497629
_cell_angle_beta                  90.506412
_cell_angle_gamma                 118.93935
_cell_volume                      6082.53112011

loop_
_atom_site_label
_atom_site_type_symbol
_atom_type_description
_atom_site_fract_x
_atom_site_fract_y
_atom_site_fract_z
_atom_type_partial_charge
C1    C     C_R   0.616739 0.910374 0.436934 0.542186
C2    C     C_R   0.749527 0.403192 0.184108 0.020031
C3    C     C_R   0.740797 0.891683 0.649891 -0.124748
C4    C     C_R   0.669094 0.791063 0.657622 0.013751
C5    C     C_R   0.635899 0.859842 0.586044 0.009852
C6    C     C_R   0.052740 0.781698 0.063711 0.577015
C7    C     C_R   0.743886 0.485871 0.066063 0.564254
C8    C     C_R   0.742913 0.789229 0.066422 0.553708
C9    C     C_R   0.022648 0.732962 0.947715 0.541090
C10   C     C_R   0.711589 0.436748 0.949388 0.524410
C11   C     C_R   0.743397 0.716593 0.945898 0.563319
C12   C     C_R   0.841992 0.444599 0.163468 -0.088380
C13   C     C_R   0.837267 0.465636 0.124231 -0.144396
C14   C     C_R   0.696874 0.288546 0.236769 -0.144293
C15   C     C_R   0.690606 0.274130 0.277318 -0.116674
C16   C     C_R   0.742707 0.360425 0.308135 -0.002243
C17   C     C_R   0.805517 0.460817 0.298378 -0.079427
C18   C     C_R   0.812016 0.476069 0.257701 0.180136
C19   C     C_R   0.755473 0.389379 0.226693 0.034594
C20   C     C_R   0.623449 0.345384 0.363743 -0.009310
C21   C     C_R   0.594083 0.205430 0.456197 0.544118
C22   C     C_R   0.584354 0.307360 0.400505 -0.031976
C23   C     C_R   0.737148 0.279644 0.409782 -0.141923
C24   C     C_R   0.774731 0.317066 0.373825 -0.141549
C25   C     C_R   0.716329 0.345839 0.350028 0.004439
C26   C     C_R   0.638884 0.268193 0.422700 -0.001617
C27   C     C_R   0.243494 0.874821 0.393405 0.019967
C28   C     C_R   0.207550 0.942153 0.382535 -0.140617
C29   C     C_R   0.182967 0.941131 0.341537 -0.122329
C30   C     C_R   0.192394 0.871260 0.311269 0.050920
C31   C     C_R   0.220126 0.798619 0.322167 -0.092103
C32   C     C_R   0.295047 0.892216 0.434485 0.538165
C33   C     C_R   0.245278 0.800088 0.362929 -0.127174
C34   C     C_R   0.210120 0.825874 0.163509 0.206156
C35   C     C_R   0.183607 0.804723 0.121060 0.185726
C36   C     C_R   0.069122 0.883625 0.131008 -0.159720
C37   C     C_R   0.095097 0.903960 0.172842 -0.145970
C38   C     C_R   0.161937 0.871739 0.189338 0.025800
C39   C     C_1   0.172585 0.877296 0.232805 0.051335
C40   C     C_1   0.180337 0.876692 0.268859 0.028141
C41   C     C_R   0.108313 0.829209 0.104892 0.002113
C42   C     C_R   0.636476 0.879182 0.395247 0.019105
C43   C     C_R   0.613821 0.904321 0.551714 0.538673
C44   C     C_R   0.551004 0.800916 0.368250 -0.134118
C45   C     C_R   0.562371 0.789226 0.326509 -0.122682
C46   C     C_R   0.659441 0.854575 0.311462 0.038647
C47   C     C_R   0.747062 0.927419 0.338327 -0.111060
C48   C     C_R   0.735800 0.939681 0.380031 -0.126570
C49   C     C_R   0.776647 0.920751 0.174495 -0.110165
C50   C     C_R   0.792391 0.907611 0.133179 -0.127296
C51   C     C_R   0.617765 0.751858 0.121284 -0.089113
C52   C     C_R   0.602043 0.765457 0.162494 -0.068357
C53   C     C_R   0.683016 0.847629 0.189336 0.044082
C54   C     C_R   0.590365 0.200145 0.570747 0.570894
C55   C     C_1   0.673981 0.850969 0.232348 -0.002784
C56   C     C_1   0.667235 0.852016 0.268413 -0.009742
C57   C     C_R   0.714983 0.820299 0.106541 0.018161
C58   C     C_R   0.624403 0.248249 0.613893 -0.002220
C59   C     C_R   0.590266 0.315777 0.634538 0.181214
C60   C     C_R   0.606976 0.340601 0.677430 0.205721
C61   C     C_R   0.657873 0.298445 0.699072 0.017334
C62   C     C_R   0.697914 0.238263 0.678267 -0.159935
C63   C     C_R   0.681871 0.213782 0.636166 -0.168310
C64   C     C_R   0.747175 0.321838 0.845705 -0.114359
C65   C     C_R   0.289262 0.886942 0.548539 0.539593
C66   C     C_R   0.756629 0.345001 0.888514 -0.014795
C67   C     C_R   0.599281 0.367485 0.884100 -0.136502
C68   C     C_R   0.591118 0.344168 0.841925 -0.110435
C69   C     C_R   0.667541 0.325893 0.822660 0.025791
C70   C     C_1   0.666326 0.316387 0.779181 0.002686
C71   C     C_1   0.663690 0.309685 0.742712 0.030350
C72   C     C_R   0.685633 0.375240 0.907847 0.010528
C73   C     C_R   0.074720 0.758950 0.909965 0.027817
C74   C     C_R   0.100511 0.854891 0.897439 -0.134081
C75   C     C_R   0.126655 0.870498 0.857836 -0.119735
C76   C     C_R   0.739779 0.445621 0.104789 0.025068
C77   C     C_R   0.127543 0.790457 0.830340 0.033702
C78   C     C_R   0.111215 0.698260 0.843941 -0.118238
C79   C     C_R   0.085575 0.682901 0.883651 -0.117948
C80   C     C_R   0.198323 0.765554 0.764114 -0.077579
C81   C     C_R   0.203703 0.771092 0.722619 0.177756
C82   C     C_R   0.144480 0.809302 0.703471 0.039777
C83   C     C_R   0.082278 0.842897 0.726257 -0.149588
C84   C     C_R   0.078086 0.837987 0.767684 -0.128093
C85   C     C_R   0.135938 0.799189 0.786879 0.001949
C86   C     C_R   0.205270 0.927876 0.652168 -0.109746
C87   C     C_R   0.644953 0.397207 0.124865 0.161750
C88   C     C_R   0.240096 0.947205 0.613761 -0.118952
C89   C     C_R   0.167249 0.760775 0.591646 -0.121424
C90   C     C_R   0.131818 0.741421 0.630065 -0.076291
C91   C     C_R   0.156524 0.825522 0.661002 0.050118
C92   C     C_R   0.226892 0.864141 0.584068 0.019138
C93   C     C_R   0.726728 0.702129 0.901201 0.016869
C94   C     C_R   0.630403 0.626440 0.879066 -0.130366
C95   C     C_R   0.618627 0.621206 0.836733 -0.110296
C96   C     C_R   0.703420 0.690810 0.816197 0.035656
C97   C     C_R   0.801070 0.761962 0.838364 -0.116518
C98   C     C_R   0.650876 0.376628 0.164378 -0.073167
C99   C     C_R   0.812501 0.767268 0.880181 -0.117224
C100  C     C_R   0.595165 0.698179 0.758769 -0.072844
C101  C     C_R   0.588819 0.726198 0.720812 -0.077903
C102  C     C_R   0.675992 0.757479 0.696746 0.032088
C103  C     C_R   0.767462 0.754816 0.709978 -0.091989
C104  C     C_R   0.773073 0.724759 0.747659 -0.088927
C105  C     C_R   0.688463 0.699724 0.773051 0.051436
C106  C     C_R   0.584741 0.723299 0.628917 -0.085029
C107  C     C_R   0.567463 0.755282 0.593138 -0.020849
C108  C     C_R   0.724092 0.925880 0.614555 -0.136735
Cr1   Cr    Cr6+3 0.424820 0.846020 0.489780 1.012124
Cr2   Cr    Cr6+3 0.657880 0.078580 0.505700 1.011958
Cr3   Cr    Cr6+3 0.417280 0.075360 0.504550 1.048319
Cr4   Cr    Cr6+3 0.903360 0.812540 0.006510 1.018074
Cr5   Cr    Cr6+3 0.914630 0.587050 0.006280 1.053646
Cr6   Cr    Cr6+3 0.673560 0.582680 0.008540 1.061798
H1    H     H_    0.918326 0.463471 0.178212 0.159716
H2    H     H_    0.783116 0.253687 0.426235 0.138438
H3    H     H_    0.226919 0.743752 0.298977 0.143754
H4    H     H_    0.272534 0.746904 0.370202 0.125787
H5    H     H_    0.203182 0.998369 0.405635 0.112655
H6    H     H_    0.058231 0.939838 0.192540 0.127538
H7    H     H_    0.011205 0.903147 0.119516 0.143010
H8    H     H_    0.911584 0.502000 0.109856 0.160158
H9    H     H_    0.160450 0.997041 0.333413 0.103903
H10   H     H_    0.868081 0.961444 0.122761 0.127192
H11   H     H_    0.839656 0.984800 0.195143 0.111065
H12   H     H_    0.822683 0.977935 0.326889 0.109888
H13   H     H_    0.803077 0.000512 0.400028 0.125207
H14   H     H_    0.473400 0.753372 0.378959 0.125153
H15   H     H_    0.529089 0.708812 0.173735 0.152512
H16   H     H_    0.556502 0.684107 0.101473 0.158882
H17   H     H_    0.494260 0.732230 0.305862 0.117721
H18   H     H_    0.846444 0.317777 0.363336 0.118719
H19   H     H_    0.802951 0.302488 0.830224 0.107339
H20   H     H_    0.737808 0.206254 0.694783 0.127386
H21   H     H_    0.709047 0.162008 0.621288 0.147619
H22   H     H_    0.528080 0.345654 0.824238 0.133204
H23   H     H_    0.542364 0.388036 0.897715 0.135270
H24   H     H_    0.094750 0.915633 0.917511 0.124558
H25   H     H_    0.067477 0.608943 0.892858 0.129602
H26   H     H_    0.091905 0.661765 0.636487 0.142492
H27   H     H_    0.640721 0.196426 0.284817 0.128743
H28   H     H_    0.244835 0.737259 0.778778 0.137439
H29   H     H_    0.141792 0.943350 0.848193 0.111640
H30   H     H_    0.038045 0.874108 0.711985 0.105407
H31   H     H_    0.028825 0.863696 0.784656 0.100057
H32   H     H_    0.223730 0.993348 0.675837 0.126376
H33   H     H_    0.285153 0.027693 0.608534 0.151403
H34   H     H_    0.111615 0.635448 0.823236 0.108783
H35   H     H_    0.153556 0.695703 0.568688 0.112283
H36   H     H_    0.563742 0.573850 0.894458 0.124232
H37   H     H_    0.652989 0.221531 0.213228 0.131400
H38   H     H_    0.888284 0.825182 0.896364 0.133171
H39   H     H_    0.806852 0.945208 0.672011 0.112065
H40   H     H_    0.517232 0.727162 0.710784 0.165187
H41   H     H_    0.529264 0.680613 0.777734 0.117267
H42   H     H_    0.542771 0.564597 0.820205 0.125506
H43   H     H_    0.834266 0.776262 0.691244 0.109149
H44   H     H_    0.844701 0.723826 0.757507 0.112894
H45   H     H_    0.530692 0.644624 0.634783 0.169168
H46   H     H_    0.867358 0.817822 0.823798 0.097399
H47   H     H_    0.578739 0.342358 0.180217 0.147553
H48   H     H_    0.778416 0.005705 0.610341 0.131035
H49   H     H_    0.844181 0.527582 0.322374 0.135804
O1    O     O_R   0.318160 0.824460 0.443680 -0.521458
O2    O     O_R   0.645130 0.163230 0.552140 -0.509910
O3    O     O_R   0.498360 0.178430 0.555780 -0.463695
O4    O     O_R   0.328690 0.978040 0.538950 -0.499297
O5    O     O_3   0.499990 0.999990 0.500010 -0.241901
O6    O     O_R   0.828710 0.851830 0.052170 -0.514310
O7    O     O_R   0.005980 0.823990 0.047210 -0.504928
O8    O     O_R   0.031900 0.688850 0.050170 -0.464419
O9    O     O_R   0.830940 0.518420 0.048680 -0.513650
O10   O     O_R   0.668160 0.499860 0.053480 -0.450539
O11   O     O_R   0.689170 0.693840 0.050110 -0.487427
O12   O     O_R   0.525040 0.857250 0.449830 -0.502875
O13   O     O_R   0.803860 0.812940 0.962540 -0.508733
O14   O     O_R   0.982950 0.787950 0.964120 -0.529689
O15   O     O_R   0.007050 0.649970 0.960540 -0.499404
O16   O     O_R   0.807910 0.482370 0.965590 -0.490786
O17   O     O_R   0.643310 0.460980 0.963840 -0.521221
O18   O     O_R   0.666140 0.657800 0.967020 -0.494062
O19   O     O_3   0.830520 0.660760 0.007110 -0.280923
O20   O     O_R   0.684760 0.998800 0.456360 -0.518399
O21   O     O_R   0.647540 0.166310 0.470260 -0.505360
O22   O     O_R   0.500960 0.181750 0.467450 -0.500097
O23   O     O_R   0.331100 0.981120 0.457080 -0.501893
O24   O     O_R   0.315560 0.821140 0.532010 -0.528262
O25   O     O_R   0.522630 0.854180 0.531710 -0.493659
O26   O     O_R   0.682160 0.995480 0.544690 -0.520560
Br1   Br    Br    0.505260 0.356615 0.100797 -0.482990
C109  C     C_R   0.487673 0.310726 0.413947 0.058870
C110  C     C_R   0.494699 0.408393 0.426943 -0.086499
C111  C     C_R   0.401947 0.416668 0.430320 -0.122316
C112  C     C_R   0.301543 0.327204 0.422304 -0.107730
C113  C     C_R   0.293793 0.229621 0.409824 -0.113474
C114  C     C_R   0.386520 0.221426 0.405115 -0.062151
H50   H     H_    0.572009 0.478782 0.432264 0.104818
H51   H     H_    0.407959 0.492643 0.438957 0.113805
H52   H     H_    0.229774 0.333727 0.425185 0.104157
H53   H     H_    0.215759 0.161154 0.402593 0.092647
H54   H     H_    0.380105 0.146785 0.393107 0.115237
Br2   Br    Br    0.249732 0.742159 0.085654 -0.417777
Br3   Br    Br    0.307585 0.787457 0.186572 -0.481396
C115  C     C_R   0.841023 0.337870 0.911964 0.049219
C116  C     C_R   0.816296 0.285394 0.946049 -0.066874
C117  C     C_R   0.895843 0.279464 0.968345 -0.103431
C118  C     C_R   0.000427 0.324985 0.956673 -0.094869
C119  C     C_R   0.025541 0.376084 0.922564 -0.104753
C120  C     C_R   0.946251 0.382161 0.900162 -0.089508
H55   H     H_    0.735501 0.249263 0.955383 0.108377
H56   H     H_    0.876356 0.239485 0.994668 0.118604
H57   H     H_    0.061928 0.320389 0.973985 0.124989
H58   H     H_    0.106518 0.411062 0.913471 0.113257
H59   H     H_    0.967191 0.422157 0.873853 0.090184
Br4   Br    Br    0.523232 0.375771 0.604774 -0.470405
Br5   Br    Br    0.557775 0.428939 0.706699 -0.484704
Br6   Br    Br    0.299593 0.733448 0.694512 -0.588721
C121  C     C_R   0.477270 0.673879 0.564939 0.030291
C122  C     C_R   0.486055 0.588970 0.544802 -0.090513
C123  C     C_R   0.395470 0.499632 0.525399 -0.099972
C124  C     C_R   0.296156 0.495731 0.524531 -0.112830
C125  C     C_R   0.286657 0.579794 0.544501 -0.095844
C126  C     C_R   0.376396 0.667614 0.565541 -0.027153
H60   H     H_    0.562079 0.589858 0.545996 0.135921
H61   H     H_    0.402033 0.432553 0.511830 0.150445
H62   H     H_    0.226186 0.426630 0.509205 0.109485
H63   H     H_    0.209026 0.575043 0.544735 0.104563
H64   H     H_    0.367035 0.729143 0.583309 0.157125
Br7   Br    Br    0.889429 0.617278 0.246519 -0.550534
C127  C     C_R   0.564153 0.379192 0.338088 0.041812
C128  C     C_R   0.469104 0.304643 0.314897 -0.081502
C129  C     C_R   0.414739 0.336727 0.290165 -0.103781
C130  C     C_R   0.455197 0.443157 0.288323 -0.095957
C131  C     C_R   0.549993 0.517661 0.311267 -0.096669
C132  C     C_R   0.604318 0.485926 0.336160 -0.084681
H65   H     H_    0.437678 0.221971 0.315843 0.103616
H66   H     H_    0.341482 0.279073 0.272310 0.112890
H67   H     H_    0.413236 0.467888 0.269066 0.120532
H68   H     H_    0.581562 0.599948 0.309683 0.126909
H69   H     H_    0.677697 0.544242 0.353824 0.107375

loop_
_geom_bond_atom_site_label_1
_geom_bond_atom_site_label_2
_ccdc_geom_bond_type
C65   C92   S    
C79   H25   S    
C21   C26   S    
C65   O24   A    
C119  H58   S    
C16   C25   S    
C21   O21   A    
C44   H14   S    
C73   C74   A    
C95   C96   A    
C11   O18   A    
C100  C105  A    
C55   C56   T    
C2    C12   A    
C81   C82   A    
C1    O20   A    
C121  C126  A    
Cr5   O8    S    
C130  H67   S    
C77   C78   A    
Cr1   O24   S    
C101  H40   S    
C12   C13   A    
C74   H24   S    
C11   O13   A    
C80   C85   A    
C42   C44   A    
C47   H12   S    
C83   C84   A    
C106  C107  A    
C10   O16   A    
C125  H63   S    
C28   C29   A    
C37   C38   A    
C67   C72   A    
C6    O7    A    
C86   C91   A    
C54   C58   S    
C83   H30   S    
Cr2   O2    S    
C59   Br4   S    
C20   C25   A    
C15   C16   A    
C7    O10   A    
C3    H39   S    
C18   C19   A    
C34   C35   A    
C132  H69   S    
C23   C26   A    
C49   C50   A    
C109  C114  A    
C123  C124  A    
C17   H49   S    
C93   C94   A    
C23   H2    S    
C15   H27   S    
Cr2   O5    S    
C117  H56   S    
Cr6   O10   S    
C66   C72   A    
C95   H42   S    
C88   C92   A    
C119  C120  A    
C6    C41   S    
C4    C102  S    
C115  C120  A    
C47   C48   A    
C23   C24   A    
C31   C33   A    
C128  H65   S    
C51   C57   A    
C29   C30   A    
C130  C131  A    
C93   C99   A    
C78   H34   S    
C12   H1    S    
C66   C115  S    
C11   C93   S    
C89   H35   S    
Cr5   O15   S    
C5    C43   S    
Cr2   O21   S    
C59   C60   A    
C7    O9    A    
C36   C41   A    
C61   C62   A    
C9    C73   S    
C54   O3    A    
C35   C41   A    
C86   H32   S    
C104  C105  A    
C97   C99   A    
C51   H16   S    
C111  H51   S    
Cr5   O9    S    
C6    O8    A    
C53   C55   S    
Cr1   O25   S    
C38   C39   S    
Cr4   O7    S    
Cr3   O22   S    
C20   C127  S    
C74   C75   A    
C86   C88   A    
C51   C52   A    
C101  C102  A    
C68   H22   S    
C50   H10   S    
C24   C25   A    
C122  C123  A    
C117  C118  A    
C16   C17   A    
Cr4   O19   S    
C58   C59   A    
C84   H31   S    
C4    C106  A    
C124  H62   S    
C28   H5    S    
C27   C33   A    
C82   C91   S    
C118  C119  A    
C60   C61   A    
C29   H9    S    
C63   H21   S    
C14   H37   S    
C67   C68   A    
C97   H46   S    
C31   H3    S    
C124  C125  A    
Cr1   O5    S    
C8    C57   S    
C107  C121  S    
C24   H18   S    
Cr4   O6    S    
C128  C129  A    
C13   C76   A    
Cr6   O11   S    
C34   Br3   S    
C81   Br6   S    
C96   C97   A    
C62   C63   A    
C17   C18   A    
C73   C79   A    
C64   C69   A    
C30   C40   S    
C127  C132  A    
Cr3   O3    S    
C42   C48   A    
C110  H50   S    
C84   C85   A    
C89   C92   A    
C75   C77   A    
C76   C87   A    
C43   O26   A    
C70   C71   T    
C75   H29   S    
C87   Br1   S    
C122  H60   S    
C100  H41   S    
C116  H55   S    
Cr5   O16   S    
C20   C22   A    
Cr2   O20   S    
C45   H17   S    
C94   C95   A    
Cr6   O17   S    
C118  H57   S    
Cr3   O4    S    
C131  C132  A    
C52   H15   S    
C54   O2    A    
C90   C91   A    
C3    C4    A    
Cr5   O19   S    
C39   C40   T    
C98   H47   S    
C9    O14   A    
C8    O6    A    
C96   C105  S    
C64   H19   S    
C113  H53   S    
C5    C107  A    
C109  C110  A    
C116  C117  A    
C46   C47   A    
C1    O12   A    
Cr3   O23   S    
Cr4   O13   S    
C2    C19   S    
C34   C38   A    
C50   C57   A    
C14   C19   A    
C68   C69   A    
C103  H43   S    
C44   C45   A    
C58   C63   A    
C104  H44   S    
C80   C81   A    
Cr1   O1    S    
C90   H26   S    
Cr1   O12   S    
C35   Br2   S    
C21   O22   A    
C7    C76   S    
C3    C108  A    
C94   H36   S    
Cr6   O18   S    
C49   H11   S    
C99   H38   S    
C65   O4    A    
Cr2   O26   S    
C80   H28   S    
C120  H59   S    
C78   C79   A    
C32   O23   A    
C10   O17   A    
C110  C111  A    
C87   C98   A    
C52   C53   A    
C36   H7    S    
C89   C90   A    
C127  C128  A    
Cr6   O19   S    
C48   H13   S    
C13   H8    S    
C126  H64   S    
C30   C31   A    
C62   H20   S    
C121  C122  A    
C129  H66   S    
C37   H6    S    
C108  H48   S    
C43   O25   A    
C77   C85   S    
C49   C53   A    
C32   O1    A    
C129  C130  A    
C88   H33   S    
C123  H61   S    
C112  C113  A    
C8    O11   A    
C131  H68   S    
C114  H54   S    
C60   Br5   S    
C102  C103  A    
C67   H23   S    
C69   C70   S    
C27   C32   S    
C61   C71   S    
C113  C114  A    
C18   Br7   S    
C112  H52   S    
C45   C46   A    
C1    C42   S    
C33   H4    S    
C115  C116  A    
C2    C98   A    
C36   C37   A    
C111  C112  A    
C22   C26   A    
C46   C56   S    
C103  C104  A    
C14   C15   A    
C100  C101  A    
Cr3   O5    S    
C82   C83   A    
C22   C109  S    
C125  C126  A    
C9    O15   A    
C106  H45   S    
C64   C66   A    
Cr4   O14   S    
C27   C28   A    
C5    C108  A    
C10   C72   S    
