data_mof_unit_54474.cif
_audit_creation_date              2012-12-10T18:09:32-0500
_audit_creation_method            fapswitch 2.2
_symmetry_space_group_name_H-M    P1
_symmetry_Int_Tables_number       1
_space_group_crystal_system       triclinic
_cell_length_a                    15.815893
_cell_length_b                    15.340462
_cell_length_c                    10.087375
_cell_angle_alpha                 90.115636
_cell_angle_beta                  90.113131
_cell_angle_gamma                 89.987698
_cell_volume                      2447.42043977

loop_
_atom_site_label
_atom_site_type_symbol
_atom_type_description
_atom_site_fract_x
_atom_site_fract_y
_atom_site_fract_z
_atom_type_partial_charge
C1    C     C_R   0.122639 0.383572 0.500696 0.751927
C2    C     C_R   0.120611 0.618679 0.499351 0.738503
C3    C     C_R   0.622105 0.882870 0.499626 0.746711
C4    C     C_R   0.622184 0.116622 0.500537 0.752574
C5    C     C_3   0.085473 0.518312 0.079988 -0.312336
C6    C     C_3   0.086993 0.499553 0.922542 -0.343218
C7    C     C_3   0.586089 0.989359 0.078389 -0.325811
C8    C     C_3   0.586187 0.009094 0.922387 -0.331633
C9    C     C_R   0.888123 0.374414 0.500763 0.806980
C10   C     C_R   0.887564 0.624747 0.499306 0.800271
C11   C     C_R   0.389887 0.873110 0.498459 0.789000
C12   C     C_R   0.388285 0.125409 0.500729 0.805596
C13   C     C_3   0.810954 0.257254 0.642085 -0.377588
C14   C     C_3   0.845818 0.219935 0.415304 -0.332140
C15   C     C_3   0.842077 0.773112 0.595894 -0.349545
C16   C     C_3   0.816061 0.745373 0.360954 -0.383874
C17   C     C_3   0.344027 0.721233 0.585342 -0.332233
C18   C     C_3   0.319216 0.749782 0.357073 -0.410228
C19   C     C_3   0.314907 0.244228 0.640756 -0.381006
C20   C     C_3   0.345724 0.277650 0.411401 -0.338696
C21   C     C_3   0.272222 0.652301 0.582651 -0.033376
C22   C     C_3   0.237251 0.692866 0.350915 -0.049484
C23   C     C_3   0.258701 0.326696 0.630775 -0.050518
C24   C     C_3   0.265088 0.335251 0.388671 -0.060850
C25   C     C_3   0.756475 0.173699 0.631059 -0.061834
C26   C     C_3   0.764530 0.163998 0.388736 -0.064490
C27   C     C_3   0.761713 0.830698 0.617264 -0.059375
C28   C     C_3   0.758806 0.827273 0.373256 -0.041623
C29   C     C_3   0.738319 0.342050 0.464710 -0.344969
C30   C     C_3   0.736519 0.654787 0.523764 -0.337628
C31   C     C_3   0.239373 0.844644 0.517196 -0.318783
C32   C     C_3   0.238371 0.157595 0.467775 -0.339878
C33   C     C_3   0.823437 0.300132 0.504100 0.009814
C34   C     C_3   0.822666 0.697939 0.496230 0.020798
C35   C     C_3   0.324973 0.798994 0.491867 0.023772
C36   C     C_3   0.324056 0.199505 0.503694 0.012617
C37   C     C_3   0.194587 0.685269 0.495664 0.045935
C38   C     C_3   0.197342 0.317661 0.503636 0.052885
C39   C     C_3   0.696445 0.182334 0.502714 0.054911
C40   C     C_3   0.696183 0.816108 0.497766 0.051782
C41   C     C_3   0.166079 0.780552 0.539123 0.283217
C42   C     C_3   0.163712 0.219377 0.495076 0.257209
C43   C     C_3   0.663002 0.280639 0.491423 0.256100
C44   C     C_3   0.662120 0.718025 0.501010 0.262854
C45   C     C_3   0.946226 0.571995 0.085085 0.390975
C46   C     C_3   0.956611 0.580577 0.921516 0.356363
C47   C     C_3   0.972200 0.412884 0.075237 0.361204
C48   C     C_3   0.957357 0.420952 0.913930 0.371763
C49   C     C_3   0.464443 0.084510 0.076735 0.357875
C50   C     C_3   0.452285 0.076244 0.914066 0.379382
C51   C     C_3   0.450958 0.924573 0.085795 0.374258
C52   C     C_3   0.462786 0.916106 0.922820 0.360216
Cu1   Cu    Cu3+1 0.000100 0.500000 0.642410 0.956664
Cu2   Cu    Cu3+1 0.000100 0.500000 0.357590 0.957471
Cu3   Cu    Cu3+1 0.500100 0.000000 0.642410 0.956512
Cu4   Cu    Cu3+1 0.500100 0.000000 0.357590 0.954907
H1    H     H_    0.773829 0.300434 0.703712 0.266842
H2    H     H_    0.884025 0.232071 0.328803 0.231780
H3    H     H_    0.873807 0.753391 0.687023 0.220553
H4    H     H_    0.788575 0.702096 0.285691 0.255819
H5    H     H_    0.362947 0.737629 0.684161 0.235995
H6    H     H_    0.322219 0.793448 0.274308 0.239774
H7    H     H_    0.283114 0.200625 0.708948 0.263611
H8    H     H_    0.380773 0.262021 0.322168 0.227953
H9    H     H_    0.872393 0.241602 0.689342 0.187739
H10   H     H_    0.892130 0.178334 0.469281 0.176098
H11   H     H_    0.891631 0.815795 0.553922 0.181841
H12   H     H_    0.879690 0.766284 0.327958 0.185022
H13   H     H_    0.402131 0.688296 0.550256 0.181075
H14   H     H_    0.375518 0.707626 0.339894 0.176300
H15   H     H_    0.377782 0.262777 0.680511 0.183573
H16   H     H_    0.394178 0.319007 0.461230 0.179340
H17   H     H_    0.298471 0.594438 0.529420 0.144247
H18   H     H_    0.256032 0.625838 0.319832 0.159540
H19   H     H_    0.302594 0.382443 0.612752 0.169240
H20   H     H_    0.285508 0.404680 0.397160 0.141568
H21   H     H_    0.801408 0.118685 0.613927 0.168914
H22   H     H_    0.783171 0.093986 0.395027 0.142801
H23   H     H_    0.782177 0.900273 0.614359 0.143600
H24   H     H_    0.802335 0.882633 0.396103 0.166551
H25   H     H_    0.729006 0.404339 0.519616 0.197134
H26   H     H_    0.741351 0.360849 0.358915 0.232621
H27   H     H_    0.736221 0.629896 0.626299 0.229981
H28   H     H_    0.728917 0.595748 0.460582 0.198313
H29   H     H_    0.245161 0.891756 0.600507 0.222846
H30   H     H_    0.225300 0.886495 0.430038 0.195837
H31   H     H_    0.229726 0.095655 0.523449 0.197536
H32   H     H_    0.239477 0.138217 0.362271 0.233170
H33   H     H_    0.106635 0.585732 0.098151 0.171934
H34   H     H_    0.130655 0.544488 0.873055 0.186124
H35   H     H_    0.136026 0.482573 0.129593 0.172624
H36   H     H_    0.117100 0.436398 0.909925 0.174235
H37   H     H_    0.634146 0.028003 0.128451 0.169707
H38   H     H_    0.611009 0.074807 0.910976 0.175762
H39   H     H_    0.610607 0.923544 0.091000 0.174826
H40   H     H_    0.633930 0.970264 0.872407 0.170299
N1    N     N_3   0.001260 0.500000 0.143650 -0.188936
N2    N     N_3   0.001260 0.500000 0.856350 -0.188518
N3    N     N_3   0.501260 0.000000 0.143650 -0.186373
N4    N     N_3   0.501260 0.000000 0.856350 -0.190089
O1    O     O_R   0.091250 0.408820 0.620260 -0.582983
O2    O     O_R   0.091250 0.408820 0.379740 -0.592842
O3    O     O_R   0.091250 0.591180 0.620260 -0.580319
O4    O     O_R   0.091250 0.591180 0.379740 -0.604028
O5    O     O_R   0.591250 0.908820 0.620260 -0.597507
O6    O     O_R   0.591250 0.908820 0.379740 -0.582412
O7    O     O_R   0.591250 0.091180 0.620260 -0.584355
O8    O     O_R   0.591250 0.091180 0.379740 -0.598464
O9    O     O_R   0.908940 0.408800 0.620260 -0.565807
O10   O     O_R   0.908940 0.408800 0.379740 -0.527444
O11   O     O_R   0.908940 0.591200 0.620260 -0.548089
O12   O     O_R   0.908940 0.591200 0.379740 -0.565718
O13   O     O_R   0.408940 0.908800 0.620260 -0.535913
O14   O     O_R   0.408940 0.908800 0.379740 -0.569418
O15   O     O_R   0.408940 0.091200 0.620260 -0.567455
O16   O     O_R   0.408940 0.091200 0.379740 -0.535303
C53   C     C_3   0.257321 0.615686 0.721805 -0.818346
H41   H     H_    0.223095 0.660407 0.787921 0.280768
H42   H     H_    0.224123 0.553184 0.712848 0.224854
H43   H     H_    0.318803 0.600240 0.769902 0.244871
C54   C     C_3   0.183514 0.727977 0.235646 -0.785259
H44   H     H_    0.181087 0.800167 0.234087 0.287259
H45   H     H_    0.210598 0.706312 0.139463 0.233471
H46   H     H_    0.119271 0.705001 0.241912 0.256713
C55   C     C_3   0.227219 0.350392 0.768373 -0.835785
H47   H     H_    0.279643 0.345736 0.841692 0.240582
H48   H     H_    0.208917 0.419072 0.767414 0.231451
H49   H     H_    0.177006 0.307351 0.802850 0.278486
C56   C     C_3   0.236257 0.326863 0.245292 -0.782423
H50   H     H_    0.206032 0.263876 0.223169 0.293421
H51   H     H_    0.194017 0.380196 0.223345 0.234993
H52   H     H_    0.290427 0.336456 0.176994 0.245738
C57   C     C_3   0.723065 0.148873 0.767304 -0.822549
H53   H     H_    0.771645 0.161086 0.845006 0.244692
H54   H     H_    0.666587 0.186218 0.794154 0.277615
H55   H     H_    0.711909 0.077671 0.767963 0.231045
C58   C     C_3   0.736830 0.176380 0.245281 -0.777003
H56   H     H_    0.715793 0.243128 0.223260 0.292694
H57   H     H_    0.789107 0.158405 0.177124 0.244790
H58   H     H_    0.686240 0.132249 0.222814 0.239229
C59   C     C_3   0.731022 0.817822 0.758744 -0.789074
H59   H     H_    0.706556 0.752120 0.777173 0.297328
H60   H     H_    0.782877 0.831515 0.830324 0.237845
H61   H     H_    0.682636 0.864450 0.780166 0.242165
C60   C     C_3   0.727217 0.854268 0.236415 -0.825065
H62   H     H_    0.777755 0.845334 0.161115 0.236742
H63   H     H_    0.672388 0.815995 0.203863 0.276841
H64   H     H_    0.713690 0.925041 0.238067 0.231879
I1    I     I_    0.125179 0.804783 0.737682 -0.350395
I2    I     I_    0.055464 0.828893 0.437047 -0.447944
I3    I     I_    0.097642 0.173107 0.668465 -0.377881
I4    I     I_    0.068940 0.184547 0.352955 -0.415968
I5    I     I_    0.594118 0.327113 0.662681 -0.383285
I6    I     I_    0.570611 0.315031 0.345711 -0.416315
I7    I     I_    0.568948 0.683254 0.645539 -0.418673
I8    I     I_    0.595134 0.675947 0.325606 -0.386108
C61   C     C_3   0.966095 0.663962 0.145588 -0.786840
H65   H     H_    0.985947 0.665428 0.248199 0.277442
H66   H     H_    0.911828 0.708356 0.129416 0.229266
H67   H     H_    0.020238 0.697873 0.102802 0.194851
C62   C     C_3   0.005244 0.662701 0.873707 -0.744694
H68   H     H_    0.004497 0.665422 0.765203 0.293831
H69   H     H_    0.976768 0.725848 0.904778 0.232850
H70   H     H_    0.071371 0.665380 0.908318 0.216947
C63   C     C_3   0.035559 0.339492 0.112932 -0.793869
H71   H     H_    0.017730 0.273129 0.078441 0.250974
H72   H     H_    0.100168 0.348811 0.076186 0.205356
H73   H     H_    0.035010 0.333594 0.219166 0.306138
C64   C     C_3   0.987160 0.333912 0.848025 -0.725385
H74   H     H_    0.945595 0.279546 0.879463 0.222692
H75   H     H_    0.990406 0.330906 0.741430 0.281622
H76   H     H_    0.051615 0.315377 0.874333 0.205793
C65   C     C_3   0.520837 0.162158 0.120247 -0.778268
H77   H     H_    0.518537 0.164765 0.227633 0.303310
H78   H     H_    0.498208 0.227323 0.087562 0.247455
H79   H     H_    0.586517 0.158854 0.085627 0.207616
C66   C     C_3   0.478797 0.165671 0.851169 -0.748221
H80   H     H_    0.490200 0.166891 0.745758 0.283672
H81   H     H_    0.431011 0.216072 0.875513 0.225321
H82   H     H_    0.539642 0.191674 0.885226 0.201940
C67   C     C_3   0.476970 0.834630 0.148346 -0.753095
H83   H     H_    0.429261 0.784232 0.123531 0.223239
H84   H     H_    0.537981 0.808667 0.114882 0.205712
H85   H     H_    0.488410 0.832723 0.253770 0.285965
C68   C     C_3   0.517757 0.837216 0.879005 -0.774568
H86   H     H_    0.493761 0.772556 0.911344 0.245679
H87   H     H_    0.516452 0.834235 0.771278 0.300705
H88   H     H_    0.583160 0.839384 0.915342 0.206105
I9    I     I_    0.812419 0.549753 0.155328 -0.218064
I10   I     I_    0.832514 0.635392 0.862263 -0.365758
I11   I     I_    0.861933 0.338378 0.138120 -0.383686
I12   I     I_    0.820151 0.424410 0.857358 -0.236622
I13   I     I_    0.346826 0.151380 0.136958 -0.380428
I14   I     I_    0.316194 0.063553 0.850592 -0.217184
I15   I     I_    0.314580 0.940394 0.149849 -0.253051
I16   I     I_    0.343168 0.851774 0.862688 -0.328831

loop_
_geom_bond_atom_site_label_1
_geom_bond_atom_site_label_2
_ccdc_geom_bond_type
C16   C28   S    
Cu3   Cu4   S    
C17   H13   S    
C61   H65   S    
C31   H29   S    
C29   C33   S    
C64   H74   S    
C19   H15   S    
C52   I16   S    
C26   C58   S    
C13   C25   S    
C60   H64   S    
C14   C33   S    
C49   C65   S    
C62   H68   S    
C11   O13   A    
C7    C8    S    
C13   H9    S    
C65   H77   S    
C3    O5    A    
C60   H63   S    
C58   H57   S    
C28   C60   S    
C63   H71   S    
Cu3   O15   S    
C7    N3    S    
Cu3   O5    S    
C37   C41   S    
C25   H21   S    
C6    N2    S    
Cu2   O4    S    
C21   C37   S    
C38   C42   S    
C27   H23   S    
C19   C36   S    
C53   H42   S    
C5    C6    S    
C47   C63   S    
C26   C39   S    
C68   H87   S    
C41   I1    S    
C28   C40   S    
C32   H32   S    
C21   H17   S    
Cu2   O10   S    
C27   C59   S    
C16   H4    S    
C30   H27   S    
C11   O14   A    
Cu4   O8    S    
C54   H46   S    
C21   C53   S    
C16   C34   S    
C67   H83   S    
C24   C56   S    
C20   C24   S    
C19   H7    S    
C66   H81   S    
C46   C62   S    
C8    H40   S    
Cu3   N4    S    
C57   H55   S    
C24   C38   S    
Cu2   N1    S    
C10   O12   A    
C16   H12   S    
C12   C36   S    
C43   I6    S    
C25   C57   S    
C18   C35   S    
C15   C34   S    
C23   C55   S    
C12   O15   A    
C17   H5    S    
Cu1   O11   S    
C65   H78   S    
C46   N2    S    
C63   H72   S    
C31   H30   S    
C29   C43   S    
C9    C33   S    
C64   H75   S    
C30   C44   S    
C46   I10   S    
C14   H2    S    
C62   H69   S    
C60   H62   S    
C40   C44   S    
C67   H84   S    
C3    O6    A    
C51   N3    S    
C7    H37   S    
C4    O7    A    
C54   H45   S    
C30   C34   S    
C51   C52   S    
C44   I8    S    
C50   C66   S    
C45   C61   S    
C59   H61   S    
Cu1   O1    S    
C24   H20   S    
C68   H88   S    
C39   C43   S    
C41   I2    S    
Cu3   O13   S    
C6    H34   S    
C22   C37   S    
C52   N4    S    
C17   C21   S    
Cu3   O7    S    
C9    O9    A    
C20   H8    S    
C19   C23   S    
C13   C33   S    
C49   N3    S    
C4    O8    A    
C15   C27   S    
C47   C48   S    
C4    C39   S    
C2    O4    A    
C27   C40   S    
C66   H82   S    
C15   H11   S    
C14   H10   S    
Cu2   O12   S    
C10   O11   A    
C10   C34   S    
C26   H22   S    
C14   C26   S    
C42   I3    S    
Cu4   O6    S    
C54   H44   S    
C5    H35   S    
C1    C38   S    
C45   I9    S    
C5    N1    S    
C29   H25   S    
C49   C50   S    
C61   H67   S    
C57   H53   S    
C64   H76   S    
C31   C35   S    
C53   H43   S    
C52   C68   S    
C22   H18   S    
C8    H38   S    
C1    O1    A    
C62   H70   S    
C42   I4    S    
C22   C54   S    
C57   H54   S    
C56   H50   S    
C67   H85   S    
Cu1   O9    S    
C9    O10   A    
C32   C42   S    
C31   C41   S    
C18   C22   S    
C44   I7    S    
C15   H3    S    
Cu2   O2    S    
C18   H6    S    
C23   H19   S    
C51   C67   S    
C3    C40   S    
C32   C36   S    
C47   I11   S    
Cu1   Cu2   S    
Cu1   N2    S    
C63   H73   S    
C23   C38   S    
C7    H39   S    
C58   H56   S    
C50   N4    S    
C18   H14   S    
C47   N1    S    
C56   H52   S    
C59   H60   S    
C8    N4    S    
C29   H26   S    
C45   N1    S    
C53   H41   S    
C25   C39   S    
C50   I14   S    
C2    C37   S    
C68   H86   S    
C55   H47   S    
C49   I13   S    
C2    O3    A    
Cu1   O3    S    
C55   H49   S    
C6    H36   S    
C58   H58   S    
C11   C35   S    
C65   H79   S    
C48   N2    S    
C30   H28   S    
C28   H24   S    
C48   I12   S    
C48   C64   S    
C20   C36   S    
C45   C46   S    
C32   H31   S    
C13   H1    S    
C61   H66   S    
C66   H80   S    
C55   H48   S    
Cu4   O14   S    
C20   H16   S    
C51   I15   S    
C17   C35   S    
Cu4   N3    S    
C12   O16   A    
C59   H59   S    
C43   I5    S    
C1    O2    A    
C5    H33   S    
Cu4   O16   S    
C56   H51   S    
