data_mof_unit_66622.cif
_audit_creation_date              2012-12-11T16:58:32-0500
_audit_creation_method            fapswitch 2.2
_symmetry_space_group_name_H-M    P1
_symmetry_Int_Tables_number       1
_space_group_crystal_system       triclinic
_cell_length_a                    8.511503
_cell_length_b                    14.954461
_cell_length_c                    16.445396
_cell_angle_alpha                 95.323239
_cell_angle_beta                  91.823468
_cell_angle_gamma                 93.056915
_cell_volume                      2079.83409456

loop_
_atom_site_label
_atom_site_type_symbol
_atom_type_description
_atom_site_fract_x
_atom_site_fract_y
_atom_site_fract_z
_atom_type_partial_charge
Ba1   Ba    Ba6+2 0.152520 0.545410 0.458840 1.788212
Ba2   Ba    Ba6+2 0.657660 0.454590 0.541090 1.853113
C1    C     C_3   0.389256 0.740507 0.153442 -0.260713
C2    C     C_R   0.817943 0.803113 0.509798 0.048183
C3    C     C_R   0.669830 0.771488 0.476283 -0.296915
C4    C     C_3   0.878261 0.743354 0.145203 0.632447
C5    C     C_R   0.566847 0.829670 0.444839 0.078038
C6    C     C_R   0.617584 0.917591 0.436372 0.104474
C7    C     C_R   0.770207 0.951956 0.461861 -0.054470
C8    C     C_R   0.863461 0.899023 0.508495 -0.106119
C9    C     C_R   0.952010 0.089816 0.488793 -0.116797
C10   C     C_R   0.045614 0.035598 0.537787 -0.071886
C11   C     C_R   0.991677 0.188948 0.491422 0.052768
C12   C     C_3   0.310080 0.763455 0.233585 0.362056
C13   C     C_R   0.131403 0.220243 0.537070 0.175731
C14   C     C_R   0.241258 0.162020 0.566838 0.058091
C15   C     C_R   0.199189 0.069115 0.566605 0.368916
C16   C     C_3   0.939902 0.752539 0.059373 0.189749
C17   C     C_R   0.825529 0.039261 0.442923 0.362061
C18   C     C_R   0.599407 0.544490 0.264381 -0.198101
C19   C     C_R   0.461119 0.492394 0.241796 -0.013948
C20   C     C_R   0.409352 0.481501 0.159103 -0.067621
C21   C     C_R   0.507343 0.512832 0.098530 0.307289
C22   C     C_R   0.661348 0.545949 0.122058 -0.126332
C23   C     C_3   0.532540 0.731634 0.659390 0.298615
C24   C     C_R   0.706271 0.565718 0.205206 0.000675
C25   C     C_R   0.375218 0.525465 0.854077 -0.145375
C26   C     C_R   0.327471 0.517443 0.771314 -0.022424
C27   C     C_R   0.269985 0.499109 0.913635 0.303978
C28   C     C_3   0.928774 0.323234 0.298890 0.548048
C29   C     C_R   0.179827 0.477846 0.746781 -0.246030
C30   C     C_R   0.074166 0.449397 0.803515 0.021715
C31   C     C_R   0.115226 0.466833 0.887802 0.341715
C32   C     C_3   0.922463 0.293702 0.207246 -0.169665
C33   C     C_3   0.047197 0.670873 0.693535 0.364958
C34   C     C_3   0.573586 0.829322 0.689993 0.302650
C35   C     C_3   0.070949 0.697790 0.785227 0.261086
C36   C     C_3   0.392386 0.248464 0.298346 0.827923
C37   C     C_3   0.540674 0.259641 0.248106 0.189186
C38   C     C_3   0.911122 0.235977 0.827188 0.573986
C39   C     C_3   0.871090 0.187846 0.903630 0.256174
C40   C     C_3   0.440195 0.249448 0.770209 0.543131
C41   C     C_3   0.463952 0.225304 0.859866 0.647040
C42   C     C_R   0.987258 0.946888 0.555164 0.466772
Cl1   Cl    Cl    0.902218 0.664482 0.838861 -0.602836
Cl2   Cl    Cl    0.972566 0.456339 0.961528 -0.571296
Cl3   Cl    Cl    0.099165 0.834567 0.056154 -0.558795
Cl4   Cl    Cl    0.854152 0.429608 0.314053 -0.703655
Cl5   Cl    Cl    0.407267 0.254950 0.406913 -0.666586
Cl6   Cl    Cl    0.492398 0.268694 0.142587 -0.547488
Cl7   Cl    Cl    0.703838 0.838524 0.777591 -0.474070
Cl8   Cl    Cl    0.836749 0.262060 0.991282 -0.512924
Cl9   Cl    Cl    0.246115 0.279258 0.752338 -0.733937
Cl10  Cl    Cl    0.368017 0.297768 0.932312 -0.548615
Cl11  Cl    Cl    0.165106 0.336320 0.563384 -0.626885
Cl12  Cl    Cl    0.005630 0.919139 0.656818 -0.450499
H1    H     H_    0.213627 0.808136 0.223016 0.169688
H2    H     H_    0.616443 0.202337 0.247531 0.190516
H3    H     H_    0.607444 0.321678 0.271681 -0.002095
H4    H     H_    0.262329 0.699123 0.253999 0.049381
H5    H     H_    0.495345 0.703256 0.164865 0.069679
H6    H     H_    0.643110 0.699074 0.643904 0.036274
H7    H     H_    0.454121 0.729301 0.603749 -0.045358
H8    H     H_    0.629970 0.864409 0.641218 0.021708
H9    H     H_    0.464501 0.861804 0.707614 0.142686
H10   H     H_    0.424202 0.802878 0.125365 0.228011
H11   H     H_    0.842701 0.771204 0.018679 0.105170
H12   H     H_    0.821429 0.321330 0.175674 0.161801
H13   H     H_    0.026297 0.270027 0.843786 0.074663
H14   H     H_    0.767420 0.140050 0.892513 0.127904
H15   H     H_    0.971214 0.147429 0.919757 0.131641
H16   H     H_    0.515800 0.311193 0.764327 0.013167
H17   H     H_    0.587869 0.238868 0.876952 0.036660
H18   H     H_    0.633170 0.700952 0.475504 0.031920
H19   H     H_    0.534612 0.958664 0.408650 0.112638
H20   H     H_    0.490677 0.556186 0.872049 0.154475
H21   H     H_    0.743394 0.560720 0.075478 0.124264
H22   H     H_    0.298039 0.445176 0.141901 0.166478
H23   H     H_    0.031449 0.318754 0.179350 0.159484
H24   H     H_    0.765279 0.704923 0.135566 -0.012110
H25   H     H_    0.633496 0.558429 0.328460 0.094965
H26   H     H_    0.144169 0.472356 0.682931 0.120701
H27   H     H_    0.979153 0.686418 0.033736 0.087988
H28   H     H_    0.048905 0.322002 0.323431 0.095191
H29   H     H_    0.223698 0.132952 0.135537 0.412598
H30   H     H_    0.776170 0.218535 0.659674 0.354566
H31   H     H_    0.765620 0.924641 0.097157 0.378408
H32   H     H_    0.496995 0.980247 0.844885 0.394423
H33   H     H_    0.584834 0.017727 0.634804 0.398198
H34   H     H_    0.909811 0.219583 0.195601 0.206927
H35   H     H_    0.548916 0.103075 0.399015 0.355862
H36   H     H_    0.163729 0.674626 0.665586 -0.033156
H37   H     H_    0.993418 0.601324 0.682880 -0.012692
H38   H     H_    0.093941 0.771785 0.796807 0.171984
H39   H     H_    0.173674 0.665696 0.810132 -0.049429
H40   H     H_    0.307512 0.697478 0.110513 0.105114
N1    N     N_2   0.460460 0.508218 0.013801 -0.168604
N2    N     N_2   0.314905 0.504311 0.999004 -0.162191
O1    O     O_2   0.106830 0.727750 0.529310 -0.445974
O2    O     O_2   0.763023 0.462044 0.785747 -0.400361
O3    O     O_3   0.800727 0.299446 0.809144 -0.639260
O4    O     O_3   0.863420 0.611560 0.536200 -0.492061
O5    O     O_3   0.443250 0.452450 0.405760 -0.439802
O6    O     O_2   0.617170 0.545280 0.694550 -0.419514
O7    O     O_3   0.453732 0.690444 0.720653 -0.628780
O8    O     O_2   0.571444 0.175489 0.559228 -0.431706
O9    O     O_3   0.481698 0.180787 0.710940 -0.550508
O10   O     O_3   0.352370 0.670610 0.385960 -0.521991
O11   O     O_2   0.233358 0.832920 0.412976 -0.432534
O12   O     O_3   0.295870 0.316117 0.282730 -0.646350
O13   O     O_3   0.948014 0.731116 0.660981 -0.558730
O14   O     O_3   0.419298 0.811070 0.288946 -0.552158
O15   O     O_2   0.193140 0.454660 0.305430 -0.419629
O16   O     O_3   0.941260 0.623660 0.347470 -0.423504
O17   O     O_2   0.023986 0.538941 0.208172 -0.427072
O18   O     O_2   0.409191 0.073140 0.236816 -0.198492
O19   O     O_2   0.203831 0.105171 0.332767 -0.257059
O20   O     O_3   0.166950 0.151580 0.185413 -0.452584
O21   O     O_2   0.068543 0.108482 0.739963 -0.163289
O22   O     O_2   0.787236 0.077932 0.748520 -0.239753
O23   O     O_3   0.989072 0.705104 0.195088 -0.651115
O24   O     O_3   0.882571 0.196192 0.654968 -0.534818
O25   O     O_2   0.752891 0.823419 0.273453 -0.300146
O26   O     O_2   0.972078 0.908014 0.217994 -0.168317
O27   O     O_3   0.700642 0.896687 0.137916 -0.444317
O28   O     O_2   0.461397 0.103947 0.969323 -0.187204
O29   O     O_2   0.244379 0.088103 0.867896 -0.184277
O30   O     O_3   0.519935 0.039103 0.823454 -0.442655
O31   O     O_2   0.323612 0.001374 0.695939 -0.181685
O32   O     O_2   0.296269 0.898392 0.571931 -0.335053
O33   O     O_3   0.523519 0.016312 0.582579 -0.565397
O34   O     O_2   0.703470 0.272190 0.470670 -0.358389
O35   O     O_2   0.897687 0.108397 0.303227 -0.204923
O36   O     O_2   0.689278 0.991181 0.292021 -0.142401
O37   O     O_3   0.624633 0.137086 0.367515 -0.517860
O38   O     O_3   0.946880 0.388430 0.463740 -0.404126
O39   O     O_3   0.457930 0.329380 0.613970 -0.397507
O40   O     O_3   0.834677 0.266511 0.340666 -0.582824
O41   O     O_3   0.367050 0.547540 0.594170 -0.469306
O42   O     O_3   0.869040 0.376330 0.652460 -0.445307
P1    P     P_3+3 0.934880 0.713230 0.554140 1.063602
P2    P     P_3+3 0.367500 0.426600 0.319160 1.056112
P3    P     P_3+3 0.909716 0.610769 0.238897 1.053419
P4    P     P_3+3 0.875420 0.286760 0.445790 1.204671
P5    P     P_3+3 0.884201 0.392415 0.761982 1.110836
P6    P     P_3+3 0.385823 0.786102 0.389143 1.059462
P7    P     P_3+3 0.440888 0.574190 0.695932 1.005906
P8    P     P_3+3 0.437429 0.211477 0.611353 1.206540
S1    S     S_3+6 0.292949 0.140952 0.264222 0.042931
S2    S     S_3+6 0.913285 0.150714 0.742372 -0.024399
S3    S     S_3+6 0.828657 0.846313 0.196239 0.029437
S4    S     S_3+6 0.417125 0.111735 0.881120 0.076733
S5    S     S_3+6 0.335891 0.994147 0.604882 -0.063651
S6    S     S_3+6 0.764051 0.067839 0.346883 0.002836

loop_
_geom_bond_atom_site_label_1
_geom_bond_atom_site_label_2
_ccdc_geom_bond_type
O34   P4    D    
C41   H17   S    
C28   O40   S    
C25   C27   A    
Ba2   P4    S    
O23   P3    S    
O39   P8    S    
O11   P6    D    
C15   S5    S    
C16   Cl3   S    
Ba1   O1    S    
N1    N2    D    
C23   O7    S    
C5    C6    A    
C36   Cl5   S    
C12   O14   S    
O3    P5    S    
O37   S6    S    
C27   N2    S    
Ba2   O41   S    
O24   S2    S    
C28   Cl4   S    
C33   C35   S    
C22   C24   A    
C19   P2    S    
C40   Cl9   S    
C36   C37   S    
C32   H23   S    
Ba2   O4    S    
C13   C14   A    
O7    P7    S    
C27   C31   A    
O8    P8    D    
O15   P2    D    
C35   H39   S    
Ba1   Ba2   S    
C23   H7    S    
C11   P4    S    
C3    H18   S    
O12   P2    S    
Ba1   P2    S    
O27   S3    S    
C38   O3    S    
O28   S4    D    
O30   S4    S    
C6    C7    A    
C10   C15   A    
H30   O24   S    
Ba2   O34   S    
C21   C22   A    
C1    H40   S    
O4    P1    S    
C36   O12   S    
Ba1   O38   S    
C7    C8    A    
Ba1   O5    S    
C36   S1    S    
Ba1   O41   S    
C39   H15   S    
C5    P6    S    
C33   H36   S    
O21   S2    D    
C1    H5    S    
C37   H3    S    
C18   H25   S    
C31   Cl2   S    
O6    P7    D    
Ba1   O15   S    
O18   S1    D    
C7    C17   A    
O10   P6    S    
C33   H37   S    
C4    C16   S    
O17   P3    D    
C38   H13   S    
C28   C32   S    
C8    C42   A    
O35   S6    D    
O33   S5    S    
C20   H22   S    
C32   H12   S    
C2    P1    S    
C3    C5    A    
C34   H9    S    
C14   C15   A    
C30   P5    S    
Ba1   O10   S    
C16   H11   S    
C37   H2    S    
C6    H19   S    
Ba2   O38   S    
C13   Cl11  S    
O20   S1    S    
C32   H34   S    
O29   S4    D    
C42   Cl12  S    
C41   Cl10  S    
C4    H24   S    
C29   C30   A    
Ba2   O6    S    
O2    P5    D    
C9    C17   A    
C40   H16   S    
C16   H27   S    
C38   S2    S    
C29   H26   S    
C34   Cl7   S    
C4    S3    S    
O41   P7    S    
C38   C39   S    
C21   N1    S    
O26   S3    D    
C11   C13   A    
C1    H10   S    
C40   C41   S    
C35   Cl1   S    
C25   H20   S    
O5    P2    S    
H31   O27   S    
C33   O13   S    
C40   O9    S    
O25   S3    D    
C12   H1    S    
C26   P7    S    
C39   Cl8   S    
Ba2   O39   S    
O1    P1    D    
C26   C29   A    
C2    C3    A    
O42   P5    S    
C9    C10   A    
C1    C12   S    
C12   H4    S    
O22   S2    D    
C19   C20   A    
H33   O33   S    
C14   P8    S    
Ba2   O42   S    
O16   P3    S    
H32   O30   S    
O40   P4    S    
C30   C31   A    
O31   S5    D    
O9    P8    S    
C9    C11   A    
O36   S6    D    
C18   C24   A    
Ba2   O5    S    
O14   P6    S    
C35   H38   S    
O32   S5    D    
C23   H6    S    
C28   H28   S    
H29   O20   S    
Ba1   P1    S    
O13   P1    S    
C23   C34   S    
C22   H21   S    
C37   Cl6   S    
H35   O37   S    
C18   C19   A    
O38   P4    S    
Ba1   O16   S    
C25   C26   A    
C17   S6    S    
C20   C21   A    
C10   C42   A    
O19   S1    D    
C4    O23   S    
C34   H8    S    
C2    C8    A    
Ba1   O4    S    
C41   S4    S    
C24   P3    S    
C39   H14   S    
