data_mof_unit_15775.cif
_audit_creation_date              2012-12-11T14:46:14-0500
_audit_creation_method            fapswitch 2.2
_symmetry_space_group_name_H-M    P1
_symmetry_Int_Tables_number       1
_space_group_crystal_system       triclinic
_cell_length_a                    10.887352
_cell_length_b                    10.913559
_cell_length_c                    18.797626
_cell_angle_alpha                 90.040109
_cell_angle_beta                  89.300934
_cell_angle_gamma                 120.16171
_cell_volume                      1930.95173245

loop_
_atom_site_label
_atom_site_type_symbol
_atom_type_description
_atom_site_fract_x
_atom_site_fract_y
_atom_site_fract_z
_atom_type_partial_charge
C1    C     C_R   0.863839 0.637972 0.603200 0.538970
C2    C     C_R   0.934713 0.139916 0.709168 -0.002490
C3    C     C_R   0.955260 0.151372 0.783791 0.002024
C4    C     C_R   0.265654 0.629286 0.605297 0.543076
C5    C     C_R   0.750135 0.204670 0.724178 0.019396
C6    C     C_R   0.787175 0.235901 0.795835 0.010675
C7    C     C_R   0.626886 0.206350 0.701472 -0.078586
C8    C     C_R   0.563565 0.265087 0.743706 -0.132153
C9    C     C_R   0.618538 0.319457 0.810091 -0.107818
C10   C     C_R   0.728909 0.304028 0.836519 -0.073094
C11   C     C_R   0.837196 0.173814 0.678503 -0.034759
C12   C     C_R   0.268818 0.548064 0.796638 -0.148119
C13   C     C_R   0.702719 0.639988 0.697130 -0.139383
C14   C     C_R   0.682375 0.661080 0.768401 -0.143917
C15   C     C_R   0.789782 0.690448 0.817434 0.033046
C16   C     C_R   0.859500 0.226308 0.603863 0.532119
C17   C     C_R   0.914226 0.692325 0.796156 -0.117976
C18   C     C_R   0.934555 0.672398 0.725789 -0.113646
C19   C     C_R   0.830983 0.650138 0.676070 0.047969
C20   C     C_R   0.401464 0.600881 0.297596 -0.131324
C21   C     C_R   0.436511 0.617696 0.226316 -0.131389
C22   C     C_R   0.432906 0.723941 0.186826 0.030922
C23   C     C_R   0.252971 0.533267 0.724039 -0.137310
C24   C     C_R   0.402056 0.820291 0.220881 -0.132527
C25   C     C_R   0.360984 0.800025 0.292494 -0.140961
C26   C     C_R   0.354521 0.685903 0.330178 0.030120
C27   C     C_R   0.760521 0.215687 0.279030 -0.138015
C28   C     C_R   0.871259 0.635695 0.394677 0.547664
C29   C     C_R   0.758815 0.206933 0.206577 -0.138183
C30   C     C_R   0.849302 0.170617 0.171520 0.017209
C31   C     C_R   0.954348 0.160763 0.208767 -0.105719
C32   C     C_R   0.964169 0.177295 0.282884 -0.013237
C33   C     C_R   0.859994 0.199262 0.318561 0.031531
C34   C     C_R   0.298307 0.652946 0.680257 0.022279
C35   C     C_R   0.965927 0.734657 0.277114 -0.132651
C36   C     C_R   0.954395 0.735038 0.204419 -0.128863
C37   C     C_R   0.823226 0.647239 0.172410 0.032341
C38   C     C_R   0.710534 0.542670 0.212964 -0.148157
C39   C     C_R   0.722294 0.541468 0.286694 -0.140168
C40   C     C_R   0.276271 0.636719 0.397439 0.549395
C41   C     C_R   0.848397 0.642677 0.319223 0.038387
C42   C     C_R   0.813572 0.110056 0.896825 0.529049
C43   C     C_R   0.393744 0.700837 0.897059 0.545607
C44   C     C_R   0.776173 0.727751 0.889594 0.562489
C45   C     C_R   0.868540 0.184293 0.827565 -0.043559
C46   C     C_R   0.809380 0.109689 0.101396 0.540115
C47   C     C_R   0.460624 0.729112 0.110525 0.571393
C48   C     C_R   0.799248 0.690857 0.103197 0.548979
C49   C     C_R   0.865374 0.233880 0.393953 0.542445
C50   C     C_R   0.352517 0.787321 0.710369 -0.153632
C51   C     C_R   0.371667 0.802760 0.783556 -0.145602
C52   C     C_R   0.334436 0.683214 0.826531 0.014118
C53   C     C_3   0.082443 0.171300 0.323132 -0.239939
C54   C     C_3   0.183236 0.140440 0.278527 -0.327710
C55   C     C_3   0.295397 0.136434 0.324865 -0.462166
C56   C     C_R   0.063507 0.131252 0.812341 -0.088454
C57   C     C_R   0.139506 0.087502 0.769417 -0.128502
C58   C     C_R   0.110427 0.064282 0.697298 -0.117497
C59   C     C_R   0.009591 0.090706 0.667158 -0.086482
Cr1   Cr    Cr6+3 0.791660 0.390250 0.499930 1.008880
Cr2   Cr    Cr6+3 0.098520 0.708290 0.500540 0.998437
Cr3   Cr    Cr6+3 0.109770 0.401430 0.499480 0.995576
Cr4   Cr    Cr6+3 0.874790 0.925890 0.000070 0.997095
Cr5   Cr    Cr6+3 0.574120 0.948670 0.999300 1.005049
Cr6   Cr    Cr6+3 0.551420 0.625320 0.000920 0.996729
H1    H     H_    0.382594 0.879685 0.677329 0.113426
H2    H     H_    0.459012 0.542383 0.201053 0.124128
H3    H     H_    0.401988 0.905697 0.191618 0.126659
H4    H     H_    0.423059 0.908478 0.805705 0.145553
H5    H     H_    0.326718 0.867786 0.316999 0.115468
H6    H     H_    0.683975 0.238749 0.303693 0.138405
H7    H     H_    0.678335 0.218012 0.178676 0.133825
H8    H     H_    0.023797 0.134510 0.179421 0.129691
H9    H     H_    0.067997 0.806273 0.300158 0.131686
H10   H     H_    0.612238 0.466931 0.188157 0.107558
H11   H     H_    0.633423 0.462799 0.318074 0.111289
H12   H     H_    0.471922 0.268677 0.724740 0.109695
H13   H     H_    0.237817 0.454448 0.828870 0.133068
H14   H     H_    0.203955 0.427315 0.702279 0.153843
H15   H     H_    0.220896 0.070996 0.792285 0.108942
H16   H     H_    0.167275 0.027093 0.664434 0.118843
H17   H     H_    0.093981 0.153788 0.867405 0.132065
H18   H     H_    0.988424 0.069131 0.611084 0.125550
H19   H     H_    0.765076 0.339946 0.890024 0.126243
H20   H     H_    0.359857 0.239609 0.351994 0.145470
H21   H     H_    0.244056 0.050687 0.365413 0.160977
H22   H     H_    0.367419 0.115944 0.291022 0.132319
H23   H     H_    0.574166 0.157698 0.652466 0.133866
H24   H     H_    0.122021 0.036791 0.251615 0.162305
H25   H     H_    0.239030 0.225058 0.237684 0.157659
H26   H     H_    0.150859 0.276106 0.347694 0.194363
H27   H     H_    0.032902 0.089379 0.365714 0.155363
H28   H     H_    0.046032 0.812131 0.173950 0.130357
H29   H     H_    0.571257 0.367381 0.842461 0.131950
H30   H     H_    0.621729 0.620468 0.658627 0.114184
H31   H     H_    0.585746 0.658934 0.784907 0.127431
H32   H     H_    0.996945 0.711757 0.833581 0.138299
H33   H     H_    0.032407 0.676198 0.709784 0.134995
H34   H     H_    0.400136 0.513320 0.325442 0.123883
O1    O     O_R   0.766500 0.250040 0.579790 -0.524775
O2    O     O_R   0.413330 0.603360 0.920440 -0.529866
O3    O     O_R   0.676110 0.626250 0.926750 -0.508904
O4    O     O_R   0.798570 0.516780 0.574780 -0.494221
O5    O     O_R   0.895350 0.809870 0.080950 -0.520969
O6    O     O_R   0.872490 0.049760 0.073800 -0.509164
O7    O     O_R   0.691680 0.088070 0.079070 -0.533755
O8    O     O_R   0.451720 0.825250 0.074050 -0.502242
O9    O     O_R   0.413580 0.606370 0.080960 -0.517899
O10   O     O_R   0.676340 0.629040 0.075550 -0.519759
O11   O     O_3   0.666780 0.833290 0.000090 -0.274167
O12   O     O_R   0.218690 0.701900 0.425960 -0.505267
O13   O     O_R   0.984000 0.732950 0.581090 -0.527599
O14   O     O_R   0.218600 0.700890 0.574760 -0.506899
O15   O     O_R   0.249390 0.515350 0.579940 -0.523848
O16   O     O_R   0.982790 0.280900 0.573700 -0.502952
O17   O     O_R   0.766600 0.251130 0.419260 -0.526141
O18   O     O_R   0.798660 0.517790 0.425980 -0.507962
O19   O     O_R   0.984100 0.734040 0.420570 -0.532050
O20   O     O_R   0.249490 0.516440 0.419420 -0.536739
O21   O     O_R   0.982880 0.281910 0.424890 -0.518698
O22   O     O_3   0.999980 0.499990 0.499980 -0.236054
O23   O     O_R   0.895110 0.806860 0.920430 -0.519482
O24   O     O_R   0.872260 0.046970 0.925000 -0.517695
O25   O     O_R   0.691430 0.085060 0.918550 -0.513266
O26   O     O_R   0.451490 0.822460 0.925250 -0.498079

loop_
_geom_bond_atom_site_label_1
_geom_bond_atom_site_label_2
_ccdc_geom_bond_type
C35   H9    S    
C6    C45   A    
C27   C29   A    
C35   C36   A    
Cr6   O2    S    
C43   O26   A    
C42   O25   A    
C7    C8    A    
C39   C41   A    
C53   C54   S    
C27   C33   A    
C12   C23   A    
C29   C30   A    
C13   H30   S    
C4    O15   A    
C36   C37   A    
C59   H18   S    
C15   C44   S    
Cr3   O15   S    
C28   O18   A    
C1    O13   A    
C30   C31   A    
C43   C52   S    
C31   H8    S    
C49   O21   A    
C33   C49   S    
C48   O5    A    
C46   O6    A    
C28   C41   S    
C56   C57   A    
Cr2   O22   S    
C18   C19   A    
C3    C56   A    
C44   O23   A    
C36   H28   S    
C31   C32   A    
C8    C9    A    
C12   H13   S    
C53   H26   S    
Cr4   O6    S    
Cr1   O4    S    
C9    C10   A    
C1    O4    A    
Cr6   O9    S    
Cr3   O21   S    
C29   H7    S    
C22   C47   S    
C13   C14   A    
C21   H2    S    
C57   H15   S    
Cr6   O3    S    
C2    C11   A    
C14   H31   S    
C12   C52   A    
C42   O24   A    
C50   C51   A    
C40   O12   A    
C38   H10   S    
C38   C39   A    
C4    C34   S    
C34   C50   A    
C1    C19   S    
C13   C19   A    
C51   C52   A    
C4    O14   A    
C24   C25   A    
C54   H24   S    
C58   H16   S    
Cr5   O7    S    
C5    C7    A    
C44   O3    A    
C2    C59   A    
C16   O1    A    
C25   C26   A    
Cr5   O25   S    
C3    C45   A    
C42   C45   S    
C55   H20   S    
C43   O2    A    
C37   C38   A    
C11   C16   S    
Cr5   O11   S    
C7    H23   S    
C23   C34   A    
C49   O17   A    
C53   H27   S    
C17   C18   A    
Cr1   O18   S    
C39   H11   S    
C37   C48   S    
C56   H17   S    
C50   H1    S    
Cr6   O10   S    
Cr3   O20   S    
Cr5   O26   S    
C47   O8    A    
C5    C11   A    
Cr2   O14   S    
C8    H12   S    
C22   C24   A    
Cr1   O17   S    
Cr2   O12   S    
C16   O16   A    
C32   C53   S    
Cr4   O23   S    
C27   H6    S    
Cr5   O8    S    
C15   C17   A    
C54   C55   S    
Cr2   O19   S    
C30   C46   S    
Cr4   O5    S    
Cr1   O1    S    
C6    C10   A    
Cr4   O24   S    
C54   H25   S    
C51   H4    S    
C32   C33   A    
C55   H21   S    
C2    C3    A    
C58   C59   A    
Cr3   O16   S    
C28   O19   A    
C26   C40   S    
C57   C58   A    
C5    C6    A    
C20   H34   S    
C20   C26   A    
Cr4   O11   S    
C46   O7    A    
C10   H19   S    
C48   O10   A    
C55   H22   S    
Cr1   O22   S    
C35   C41   A    
Cr6   O11   S    
C24   H3    S    
C40   O20   A    
C20   C21   A    
C47   O9    A    
C14   C15   A    
C25   H5    S    
C18   H33   S    
C23   H14   S    
C21   C22   A    
Cr2   O13   S    
C17   H32   S    
C9    H29   S    
Cr3   O22   S    
