data_mof_unit_64968.cif
_audit_creation_date              2012-10-26T20:56:36-0400
_audit_creation_method            fapswitch 2.2
_symmetry_space_group_name_H-M    P1
_symmetry_Int_Tables_number       1
_space_group_crystal_system       triclinic
_cell_length_a                    16.054027
_cell_length_b                    17.367996
_cell_length_c                    19.385878
_cell_angle_alpha                 90.305435
_cell_angle_beta                  92.564336
_cell_angle_gamma                 95.861314
_cell_volume                      5371.38225699

loop_
_atom_site_label
_atom_site_type_symbol
_atom_type_description
_atom_site_fract_x
_atom_site_fract_y
_atom_site_fract_z
_atom_type_partial_charge
C1    C     C_R   0.489998 0.350117 0.501433 0.544661
C2    C     C_R   0.502506 0.892636 0.514993 0.010754
C3    C     C_R   0.435021 0.143546 0.449218 -0.110775
C4    C     C_R   0.564982 0.856454 0.550780 -0.110774
C5    C     C_R   0.430088 0.222273 0.457828 -0.132737
C6    C     C_R   0.569914 0.777727 0.542171 -0.132736
C7    C     C_2   0.499516 0.024343 0.473465 -0.114112
C8    C     C_2   0.500487 0.975658 0.526533 -0.114112
C9    C     C_R   0.746730 0.459248 0.468546 0.068628
C10   C     C_R   0.253270 0.540752 0.531454 0.068628
C11   C     C_R   0.832784 0.453792 0.473463 -0.028934
C12   C     C_R   0.510002 0.649883 0.498567 0.544661
C13   C     C_R   0.167216 0.546207 0.526537 -0.028934
C14   C     C_R   0.883763 0.503288 0.519861 0.002058
C15   C     C_R   0.116237 0.496712 0.480139 0.002058
C16   C     C_R   0.500335 0.500986 0.367611 0.544343
C17   C     C_R   0.499665 0.499014 0.632389 0.544344
C18   C     C_R   0.845110 0.555056 0.561629 -0.028120
C19   C     C_R   0.154890 0.444944 0.438371 -0.028120
C20   C     C_R   0.758292 0.557402 0.554865 0.054528
C21   C     C_R   0.241707 0.442599 0.445135 0.054529
C22   C     C_2   0.975712 0.499546 0.527374 -0.107570
C23   C     C_R   0.488208 0.265964 0.501924 -0.002727
C24   C     C_2   0.024288 0.500454 0.472626 -0.107570
C25   C     C_R   0.428598 0.469795 0.253659 -0.134729
C26   C     C_R   0.571402 0.530204 0.746341 -0.134729
C27   C     C_R   0.425939 0.467519 0.181569 -0.013728
C28   C     C_R   0.574061 0.532481 0.818431 -0.013728
C29   C     C_R   0.496597 0.497977 0.145862 0.009312
C30   C     C_R   0.503403 0.502023 0.854138 0.009312
C31   C     C_R   0.568593 0.529825 0.183664 -0.121852
C32   C     C_R   0.431407 0.470175 0.816336 -0.121852
C33   C     C_R   0.571310 0.532186 0.255674 -0.026931
C34   C     C_R   0.511792 0.734036 0.498076 -0.002727
C35   C     C_R   0.428690 0.467814 0.744326 -0.026931
C36   C     C_R   0.500737 0.501479 0.291489 -0.008086
C37   C     C_R   0.499263 0.498521 0.708511 -0.008085
C38   C     C_R   0.502188 0.502009 0.930203 0.340495
C39   C     C_R   0.497812 0.497991 0.069796 0.340495
C40   C     C_1   0.892476 0.605641 0.611786 0.194866
C41   C     C_1   0.107524 0.394359 0.388214 0.194866
C42   C     C_1   0.134893 0.606800 0.565461 0.186784
C43   C     C_1   0.865107 0.393200 0.434539 0.186784
C44   C     C_1   0.351080 0.430747 0.146222 0.237364
C45   C     C_R   0.550191 0.229705 0.540162 -0.031288
C46   C     C_1   0.648920 0.569253 0.853778 0.237364
C47   C     C_1   0.646544 0.568741 0.290739 0.233778
C48   C     C_1   0.353456 0.431259 0.709261 0.233778
C49   C     C_1   0.607310 0.273413 0.589695 0.233964
C50   C     C_1   0.392688 0.726587 0.410305 0.233963
C51   C     C_1   0.375245 0.885451 0.435926 0.207633
C52   C     C_1   0.624757 0.114550 0.564071 0.207634
C53   C     C_R   0.449809 0.770296 0.459837 -0.031288
C54   C     C_R   0.556065 0.150363 0.530469 -0.005360
C55   C     C_R   0.443937 0.849638 0.469529 -0.005361
C56   C     C_R   0.497497 0.107365 0.485005 0.010753
Cu1   Cu    Cu3+1 0.415410 0.495980 0.496480 0.985126
Cu2   Cu    Cu3+1 0.584590 0.504020 0.503520 0.985125
H1    H     H_    0.374328 0.445310 0.280462 0.135664
H2    H     H_    0.377175 0.445706 0.843190 0.153435
H3    H     H_    0.617180 0.750345 0.572032 0.133119
H4    H     H_    0.382822 0.249654 0.427968 0.133119
H5    H     H_    0.504154 0.997261 0.579411 0.145017
H6    H     H_    0.495849 0.002740 0.420587 0.145017
H7    H     H_    0.390155 0.110648 0.414176 0.145918
H8    H     H_    0.609848 0.889352 0.585823 0.145917
H9    H     H_    0.625672 0.554689 0.719538 0.135664
H10   H     H_    0.706642 0.420898 0.434107 0.139005
H11   H     H_    0.293358 0.579102 0.565893 0.139005
H12   H     H_    0.272570 0.404115 0.412914 0.122471
H13   H     H_    0.727430 0.595885 0.587086 0.122471
H14   H     H_    0.995908 0.501266 0.420753 0.155076
H15   H     H_    0.004092 0.498734 0.579247 0.155076
H16   H     H_    0.622825 0.554294 0.156810 0.153435
N1    N     N_R   0.570993 0.494161 0.038106 -0.210674
N2    N     N_1   0.890480 0.344327 0.403372 -0.234579
N3    N     N_1   0.291038 0.401208 0.118048 -0.232190
N4    N     N_1   0.708962 0.598792 0.881952 -0.232190
N5    N     N_1   0.706835 0.598025 0.318744 -0.259274
N6    N     N_1   0.293164 0.401975 0.681256 -0.259274
N7    N     N_1   0.652792 0.308271 0.629160 -0.252212
N8    N     N_1   0.347205 0.691729 0.370841 -0.252212
N9    N     N_1   0.320434 0.913956 0.409154 -0.263404
N10   N     N_1   0.679568 0.086046 0.590842 -0.263405
N11   N     N_R   0.429007 0.505839 0.961894 -0.210674
N12   N     N_R   0.573069 0.495795 0.969638 -0.190232
N13   N     N_R   0.426931 0.504205 0.030362 -0.190232
N14   N     N_R   0.711660 0.510070 0.508820 -0.240868
N15   N     N_R   0.288340 0.489930 0.491180 -0.240868
N16   N     N_1   0.930038 0.646216 0.652194 -0.228753
N17   N     N_1   0.069962 0.353784 0.347806 -0.228753
N18   N     N_1   0.109520 0.655672 0.596628 -0.234579
O1    O     O_R   0.420280 0.382610 0.496690 -0.501615
O2    O     O_R   0.579720 0.617390 0.503310 -0.501615
O3    O     O_R   0.563150 0.389410 0.502640 -0.504000
O4    O     O_R   0.436850 0.610590 0.497360 -0.504000
O5    O     O_R   0.428540 0.496590 0.397170 -0.502897
O6    O     O_R   0.571460 0.503410 0.602830 -0.502897
O7    O     O_R   0.571410 0.503390 0.403120 -0.496352
O8    O     O_R   0.428590 0.496610 0.596880 -0.496352

loop_
_geom_bond_atom_site_label_1
_geom_bond_atom_site_label_2
_ccdc_geom_bond_type
C4    H8    S    
C23   C45   A    
C27   C29   A    
C14   C18   A    
Cu2   O6    S    
C47   N5    T    
C7    C8    D    
C21   N15   A    
C15   C19   A    
C50   N8    T    
Cu1   N15   S    
C38   N12   A    
C26   H9    S    
C6    H3    S    
C44   N3    T    
C35   C37   A    
C2    C55   A    
C9    N14   A    
C11   C14   A    
C16   O5    A    
C33   C36   A    
C30   C38   S    
C18   C20   A    
C49   N7    T    
C52   N10   T    
C18   C40   S    
C27   C44   S    
C10   N15   A    
Cu1   O4    S    
C31   C33   A    
C20   H13   S    
C11   C43   S    
C39   N13   A    
C17   O6    A    
C42   N18   T    
C53   C55   A    
Cu1   O1    S    
C12   O2    A    
C3    H7    S    
C7    C56   S    
C35   C48   S    
C13   C42   S    
C52   C54   S    
N11   N13   A    
C54   C56   A    
C50   C53   S    
C38   N11   A    
C32   C35   A    
C4    C6    A    
C46   N4    T    
C31   H16   S    
C8    H5    S    
Cu1   O8    S    
C6    C34   A    
C2    C4    A    
Cu2   O3    S    
C3    C56   A    
N1    N12   A    
C5    C23   A    
C45   C49   S    
C1    O3    A    
Cu1   O5    S    
C29   C39   S    
C26   C37   A    
C17   C37   S    
C9    C11   A    
C15   C24   S    
C41   N17   T    
C45   C54   A    
C1    C23   S    
C39   N1    A    
C13   C15   A    
C33   C47   S    
C22   C24   D    
C32   H2    S    
C12   C34   S    
C51   N9    T    
C24   H14   S    
C43   N2    T    
C19   C21   A    
C2    C8    S    
Cu2   O7    S    
C3    C5    A    
C10   C13   A    
Cu2   N14   S    
C16   O7    A    
C25   C27   A    
C26   C28   A    
C21   H12   S    
C28   C46   S    
C48   N6    T    
C28   C30   A    
Cu2   O2    S    
C9    H10   S    
C29   C31   A    
C16   C36   S    
C30   C32   A    
C14   C22   S    
Cu1   Cu2   S    
C20   N14   A    
C5    H4    S    
C51   C55   S    
C17   O8    A    
C7    H6    S    
C25   C36   A    
C10   H11   S    
C34   C53   A    
C1    O1    A    
C12   O4    A    
C25   H1    S    
C22   H15   S    
C40   N16   T    
C19   C41   S    
