data_mof_unit_8291.cif
_audit_creation_date              2012-12-10T17:51:21-0500
_audit_creation_method            fapswitch 2.2
_symmetry_space_group_name_H-M    P1
_symmetry_Int_Tables_number       1
_space_group_crystal_system       triclinic
_cell_length_a                    14.690726
_cell_length_b                    14.644417
_cell_length_c                    17.268473
_cell_angle_alpha                 105.744056
_cell_angle_beta                  73.322482
_cell_angle_gamma                 114.938438
_cell_volume                      3178.29673939

loop_
_atom_site_label
_atom_site_type_symbol
_atom_type_description
_atom_site_fract_x
_atom_site_fract_y
_atom_site_fract_z
_atom_type_partial_charge
C1    C     C_R   0.118655 0.688462 0.515243 0.813853
C2    C     C_R   0.881189 0.311518 0.486421 0.810984
C3    C     C_R   0.184874 0.797174 0.530247 -0.091857
C4    C     C_R   0.813897 0.203004 0.483504 -0.092893
C5    C     C_R   0.207785 0.977115 0.578005 0.099894
C6    C     C_R   0.787499 0.024026 0.472151 0.098958
C7    C     C_R   0.143778 0.873287 0.562535 -0.201781
C8    C     C_R   0.853173 0.126932 0.470141 -0.200914
C9    C     C_R   0.290281 0.823494 0.515226 -0.259401
C10   C     C_R   0.708586 0.177094 0.498086 -0.252180
C11   C     C_R   0.356970 0.924700 0.533919 0.069959
C12   C     C_R   0.639585 0.077432 0.506262 0.070823
C13   C     C_R   0.315836 0.002862 0.561473 0.112904
C14   C     C_R   0.679514 0.999582 0.491491 0.111791
C15   C     C_R   0.464188 0.949767 0.523073 0.079704
C16   C     C_R   0.531679 0.053382 0.527179 0.078433
C17   C     C_R   0.489006 0.129708 0.554214 -0.214159
C18   C     C_R   0.505550 0.874506 0.511054 -0.213755
C19   C     C_R   0.383968 0.104961 0.571910 -0.236757
C20   C     C_R   0.610295 0.899018 0.496610 -0.239385
C21   C     C_R   0.291558 0.324090 0.366468 -0.318762
C22   C     C_R   0.709672 0.677493 0.632138 -0.323809
C23   C     C_R   0.988110 0.500431 0.652389 0.793012
C24   C     C_R   0.011573 0.499014 0.347529 0.794256
C25   C     C_R   0.209529 0.355841 0.386430 0.069507
C26   C     C_R   0.791172 0.645050 0.612762 0.069205
C27   C     C_R   0.287049 0.492211 0.486936 0.004455
C28   C     C_R   0.712903 0.507793 0.513138 0.004193
C29   C     C_R   0.373624 0.464414 0.469060 -0.023103
C30   C     C_R   0.626893 0.536339 0.530377 -0.021905
C31   C     C_R   0.373409 0.377517 0.407839 0.161861
C32   C     C_R   0.627618 0.623862 0.591006 0.163703
C33   C     C_R   0.458969 0.518288 0.509888 0.076422
C34   C     C_R   0.541666 0.482624 0.489418 0.072700
C35   C     C_R   0.536215 0.394482 0.428864 -0.233091
C36   C     C_R   0.464689 0.606755 0.570112 -0.237776
C37   C     C_R   0.454166 0.343733 0.388752 -0.190053
C38   C     C_R   0.547135 0.657994 0.609766 -0.200509
C39   C     C_R   0.977423 0.491169 0.736944 -0.030830
C40   C     C_R   0.020956 0.505900 0.262575 -0.031898
C41   C     C_R   0.032294 0.442568 0.753765 -0.186999
C42   C     C_R   0.963626 0.551110 0.244811 -0.189591
C43   C     C_R   0.022019 0.432354 0.833688 -0.139714
C44   C     C_R   0.972379 0.558596 0.164427 -0.139287
C45   C     C_R   0.957943 0.471823 0.897726 0.138497
C46   C     C_R   0.037380 0.519734 0.100858 0.138287
C47   C     C_R   0.900746 0.517731 0.881176 -0.150549
C48   C     C_R   0.096818 0.477032 0.118310 -0.151128
C49   C     C_R   0.910355 0.527359 0.800930 -0.189924
C50   C     C_R   0.088683 0.470092 0.198990 -0.190233
C51   C     C_2   0.955000 0.469916 0.982710 -0.120846
C52   C     C_2   0.040329 0.520488 0.015578 -0.120285
Cu1   Cu    Cu3+1 0.916740 0.524770 0.521640 0.934538
Cu2   Cu    Cu3+1 0.083260 0.475230 0.478360 0.934686
H1    H     H_    0.082974 0.412175 0.705244 0.154254
H2    H     H_    0.912214 0.580974 0.292942 0.154055
H3    H     H_    0.534578 0.210178 0.565853 0.146012
H4    H     H_    0.458341 0.795735 0.515842 0.141264
H5    H     H_    0.453703 0.276670 0.342425 0.147227
H6    H     H_    0.548021 0.725581 0.655574 0.149136
H7    H     H_    0.720457 0.444368 0.466371 0.124061
H8    H     H_    0.279050 0.555038 0.534252 0.125273
H9    H     H_    0.855235 0.687272 0.643619 0.120296
H10   H     H_    0.145680 0.313862 0.355316 0.122772
H11   H     H_    0.290571 0.257541 0.319451 0.139753
H12   H     H_    0.711211 0.744698 0.678531 0.139027
H13   H     H_    0.594411 0.362231 0.410799 0.135402
H14   H     H_    0.406559 0.639077 0.588028 0.133240
H15   H     H_    0.134201 0.435658 0.211426 0.151253
H16   H     H_    0.866631 0.564254 0.789158 0.150714
H17   H     H_    0.850875 0.548216 0.930545 0.133030
H18   H     H_    0.147546 0.447177 0.069358 0.132921
H19   H     H_    0.927365 0.593226 0.151458 0.132839
H20   H     H_    0.065444 0.395495 0.846002 0.131116
H21   H     H_    0.357518 0.167802 0.592674 0.145385
H22   H     H_    0.635716 0.837186 0.489026 0.150490
H23   H     H_    0.682007 0.236506 0.501627 0.152338
H24   H     H_    0.319447 0.763540 0.486330 0.158508
H25   H     H_    0.935273 0.149280 0.458384 0.148001
H26   H     H_    0.061581 0.850272 0.574920 0.144982
N1    N     N_R   0.208390 0.438070 0.445820 -0.176970
N2    N     N_R   0.791610 0.561930 0.554180 -0.175811
O1    O     O_R   0.020090 0.662480 0.528530 -0.592832
O2    O     O_R   0.979910 0.337520 0.471470 -0.592797
O3    O     O_R   0.160710 0.620650 0.491980 -0.586527
O4    O     O_R   0.839290 0.379350 0.508020 -0.586523
O5    O     O_R   0.921540 0.523360 0.633990 -0.584449
O6    O     O_R   0.078460 0.476640 0.366010 -0.584537
O7    O     O_R   0.062170 0.481520 0.597440 -0.588675
O8    O     O_R   0.937830 0.518480 0.402560 -0.587210
C53   C     C_1   0.137489 0.579229 0.969029 0.251415
N3    N     N_1   0.215016 0.626099 0.931926 -0.284614
C54   C     C_1   0.857865 0.410890 0.029062 0.250595
N4    N     N_1   0.780340 0.363775 0.066009 -0.285131
C55   C     C_3   0.163197 0.060787 0.611843 -0.414742
C56   C     C_3   0.045808 0.024679 0.636336 -0.370486
C57   C     C_3   0.011329 0.115346 0.668103 -0.836410
H27   H     H_    0.043105 0.163201 0.723285 0.253479
H28   H     H_    0.037112 0.162955 0.619867 0.250037
H29   H     H_    0.926433 0.086968 0.685002 0.246462
H30   H     H_    0.010773 0.978067 0.582567 0.225223
H31   H     H_    0.017481 0.977536 0.685265 0.220344
H32   H     H_    0.194032 0.107690 0.667710 0.200007
H33   H     H_    0.190023 0.110509 0.564921 0.200325
C58   C     C_3   0.830247 0.939992 0.454587 -0.415095
C59   C     C_3   0.947142 0.972516 0.427209 -0.370329
C60   C     C_3   0.979324 0.881136 0.409416 -0.831814
H34   H     H_    0.952269 0.843890 0.464268 0.248896
H35   H     H_    0.946974 0.824193 0.357340 0.253542
H36   H     H_    0.064139 0.907367 0.392954 0.246749
H37   H     H_    0.973313 0.006218 0.370513 0.221979
H38   H     H_    0.985436 0.030395 0.476183 0.222064
H39   H     H_    0.806075 0.905932 0.510931 0.198286
H40   H     H_    0.795602 0.879716 0.404840 0.202941

loop_
_geom_bond_atom_site_label_1
_geom_bond_atom_site_label_2
_ccdc_geom_bond_type
C15   C18   A    
C30   C32   A    
C54   N4    T    
C56   H31   S    
C27   C29   A    
C60   H35   S    
C2    O2    A    
C55   C56   S    
C4    C8    A    
Cu2   O2    S    
C57   H27   S    
C39   C41   A    
C59   H38   S    
Cu1   Cu2   S    
C21   C31   A    
C22   C32   A    
C58   H39   S    
C35   C37   A    
C50   H15   S    
C3    C7    A    
C23   C39   S    
C59   C60   S    
C45   C51   S    
C15   C16   A    
C46   C52   S    
C33   C36   A    
C20   H22   S    
C34   C35   A    
C22   H12   S    
C42   H2    S    
C11   C15   A    
C18   H4    S    
C41   H1    S    
C12   C16   A    
C29   C33   A    
C44   C46   A    
C16   C17   A    
C8    H25   S    
C60   H34   S    
C23   O7    A    
Cu1   O4    S    
C32   C38   A    
C5    C13   A    
C28   H7    S    
C43   H20   S    
C40   C42   A    
C26   N2    A    
C23   O5    A    
C56   H30   S    
C25   N1    A    
C41   C43   A    
C42   C44   A    
C48   H18   S    
C57   H28   S    
C10   H23   S    
C55   H32   S    
C59   H37   S    
C45   C47   A    
C1    O3    A    
C46   C48   A    
C30   C34   A    
C28   N2    A    
C51   C52   D    
C14   C20   A    
C58   H40   S    
C27   N1    A    
Cu2   O7    S    
C47   C49   A    
C53   N3    T    
C5    C7    A    
C13   C19   A    
C17   C19   A    
C6    C8    A    
C31   C37   A    
Cu1   N2    S    
C1    C3    S    
C25   H10   S    
C2    C4    S    
C26   H9    S    
C3    C9    A    
C27   H8    S    
C6    C14   A    
C43   C45   A    
C35   H13   S    
C56   C57   S    
C33   C34   A    
Cu1   O5    S    
C48   C50   A    
C9    C11   A    
C47   H17   S    
C37   H5    S    
C10   C12   A    
C51   C54   S    
C38   H6    S    
C39   C49   A    
C12   C14   A    
C49   H16   S    
C60   H36   S    
C4    C10   A    
C57   H29   S    
C55   H33   S    
C21   C25   A    
C21   H11   S    
C24   O6    A    
C24   O8    A    
Cu2   O3    S    
C36   H14   S    
C1    O1    A    
C58   C59   S    
Cu1   O1    S    
C36   C38   A    
C28   C30   A    
C29   C31   A    
Cu2   O6    S    
C11   C13   A    
C5    C55   S    
C40   C50   A    
C19   H21   S    
C24   C40   S    
C6    C58   S    
C2    O4    A    
C18   C20   A    
C9    H24   S    
C44   H19   S    
C22   C26   A    
Cu1   O8    S    
C52   C53   S    
Cu2   N1    S    
C17   H3    S    
C7    H26   S    
