data_mof_unit_44259.cif
_audit_creation_date              2012-12-10T18:35:04-0500
_audit_creation_method            fapswitch 2.2
_symmetry_space_group_name_H-M    P1
_symmetry_Int_Tables_number       1
_space_group_crystal_system       triclinic
_cell_length_a                    15.11597
_cell_length_b                    13.853355
_cell_length_c                    10.855572
_cell_angle_alpha                 89.613179
_cell_angle_beta                  90.074496
_cell_angle_gamma                 89.988354
_cell_volume                      2273.17788548

loop_
_atom_site_label
_atom_site_type_symbol
_atom_type_description
_atom_site_fract_x
_atom_site_fract_y
_atom_site_fract_z
_atom_type_partial_charge
C1    C     C_R   0.329792 0.499843 0.503660 0.826209
C2    C     C_R   0.670252 0.499819 0.496361 0.827932
C3    C     C_R   0.232871 0.500203 0.509080 -0.106256
C4    C     C_R   0.767256 0.500026 0.491118 -0.107403
C5    C     C_R   0.184170 0.426438 0.570325 0.053574
C6    C     C_R   0.816154 0.425258 0.433259 0.053125
C7    C     C_R   0.091107 0.432041 0.571482 0.521996
C8    C     C_R   0.909231 0.430873 0.432247 0.521532
C9    C     C_R   0.048214 0.507122 0.506864 -0.010703
C10   C     C_R   0.951963 0.506944 0.493785 -0.010095
C11   C     C_R   0.552323 0.106952 0.583255 0.338593
C12   C     C_R   0.447909 0.109412 0.412630 0.326180
C13   C     C_R   0.553673 0.209045 0.578387 -0.093322
C14   C     C_R   0.446374 0.211142 0.420482 -0.099562
C15   C     C_R   0.499916 0.055518 0.497342 -0.021327
C16   C     C_R   0.419734 0.893068 0.508686 0.335801
C17   C     C_R   0.578841 0.893312 0.485059 0.349193
C18   C     C_R   0.422110 0.791215 0.509024 -0.073764
C19   C     C_R   0.577389 0.791506 0.488157 -0.075823
C20   C     C_R   0.499346 0.946179 0.497145 -0.023657
C21   C     C_R   0.506126 0.500841 0.262063 0.794098
C22   C     C_R   0.493170 0.499947 0.737709 0.791966
C23   C     C_R   0.527773 0.683018 0.109715 -0.218473
C24   C     C_R   0.444134 0.673496 0.882942 -0.203928
C25   C     C_R   0.504910 0.768820 0.048552 0.239662
C26   C     C_R   0.457717 0.763672 0.936723 0.250381
C27   C     C_R   0.478219 0.588585 0.937096 0.046400
C28   C     C_R   0.506023 0.591815 0.060151 0.051433
C29   C     C_R   0.511071 0.503533 0.127341 -0.096405
C30   C     C_R   0.486513 0.500742 0.872216 -0.096603
C31   C     C_R   0.508984 0.415608 0.064160 -0.214551
C32   C     C_R   0.500982 0.414567 0.937225 -0.211455
C33   C     C_R   0.096867 0.580766 0.451001 -0.273822
C34   C     C_R   0.903184 0.581402 0.546346 -0.274048
C35   C     C_R   0.188396 0.577641 0.452740 -0.235093
C36   C     C_R   0.811665 0.578262 0.544402 -0.234738
Cu1   Cu    Cu3+1 0.500000 0.596430 0.500000 0.935248
Cu2   Cu    Cu3+1 0.500000 0.403570 0.500000 0.926656
H1    H     H_    0.514737 0.347262 0.112630 0.152603
H2    H     H_    0.505786 0.346039 0.890178 0.151594
H3    H     H_    0.360225 0.752876 0.516197 0.160826
H4    H     H_    0.639315 0.753458 0.479497 0.159577
H5    H     H_    0.566475 0.689265 0.193012 0.174799
H6    H     H_    0.405503 0.670085 0.799166 0.162730
H7    H     H_    0.063752 0.639219 0.402746 0.167389
H8    H     H_    0.936193 0.640597 0.592192 0.167414
H9    H     H_    0.224648 0.634739 0.406420 0.173525
H10   H     H_    0.775384 0.636089 0.588202 0.174071
H11   H     H_    0.597692 0.249285 0.637411 0.147913
H12   H     H_    0.402344 0.252796 0.362306 0.154037
N1    N     N_R   0.500000 0.258690 0.500000 -0.206495
N2    N     N_R   0.500000 0.741330 0.500000 -0.209019
O1    O     O_R   0.371460 0.581430 0.500010 -0.599396
O2    O     O_R   0.628540 0.581430 0.499990 -0.597437
O3    O     O_R   0.371470 0.418560 0.500010 -0.573231
O4    O     O_R   0.628530 0.418560 0.499990 -0.572427
O5    O     O_R   0.500000 0.581450 0.319650 -0.580357
O6    O     O_R   0.500000 0.581450 0.680350 -0.573117
O7    O     O_R   0.500010 0.418580 0.319650 -0.586640
O8    O     O_R   0.499990 0.418580 0.680350 -0.587208
O9    O     O_3   0.338463 0.939050 0.506542 -0.527845
C37   C     C_3   0.316874 0.972293 0.625420 0.052539
H13   H     H_    0.375468 0.997811 0.678675 0.125321
H14   H     H_    0.283267 0.913515 0.677331 0.144401
C38   C     C_3   0.252746 0.056498 0.613785 -0.726650
H15   H     H_    0.284215 0.116620 0.561922 0.248158
H16   H     H_    0.234207 0.082516 0.706789 0.185975
H17   H     H_    0.191993 0.033464 0.564422 0.257599
O10   O     O_3   0.658983 0.940516 0.474175 -0.526568
C39   C     C_3   0.676746 0.956220 0.348106 0.044691
H18   H     H_    0.619815 0.991136 0.299920 0.130744
H19   H     H_    0.692818 0.886594 0.302699 0.134950
C40   C     C_3   0.755943 0.023221 0.335697 -0.741025
H20   H     H_    0.741226 0.093592 0.379713 0.251369
H21   H     H_    0.770813 0.035841 0.236732 0.187567
H22   H     H_    0.814761 0.990376 0.380853 0.254223
C41   C     C_3   0.531684 0.862720 0.106620 -0.945658
H23   H     H_    0.502686 0.867705 0.200338 0.244760
H24   H     H_    0.604845 0.865471 0.113921 0.219903
H25   H     H_    0.510265 0.926543 0.052776 0.251201
C42   C     C_3   0.423998 0.851845 0.870597 -0.935627
H26   H     H_    0.390039 0.832018 0.784031 0.213494
H27   H     H_    0.375998 0.890594 0.929294 0.236814
H28   H     H_    0.479705 0.899791 0.845523 0.244462
C43   C     C_3   0.230123 0.343608 0.635888 -0.811510
H29   H     H_    0.279660 0.372040 0.702001 0.213976
H30   H     H_    0.184039 0.297034 0.688865 0.251741
H31   H     H_    0.263123 0.296595 0.567590 0.247789
C44   C     C_3   0.770529 0.341241 0.371103 -0.807065
H32   H     H_    0.720950 0.368466 0.303733 0.213976
H33   H     H_    0.816811 0.294162 0.319983 0.250230
H34   H     H_    0.737729 0.294910 0.441212 0.250782
O11   O     O_3   0.041608 0.360807 0.629023 -0.553261
C45   C     C_3   0.019164 0.392525 0.748387 0.026368
H35   H     H_    0.978830 0.459734 0.744533 0.148472
H36   H     H_    0.079654 0.405931 0.804507 0.135089
C46   C     C_3   0.964700 0.314868 0.812528 -0.761277
H37   H     H_    0.946205 0.339176 0.906315 0.189720
H38   H     H_    0.903415 0.300548 0.759095 0.258626
H39   H     H_    0.003752 0.247181 0.820414 0.246722
O12   O     O_3   0.958909 0.358722 0.378107 -0.553138
C47   C     C_3   0.981708 0.388456 0.257516 0.026026
H40   H     H_    0.021635 0.455975 0.258532 0.148247
H41   H     H_    0.921382 0.400455 0.200326 0.134946
C48   C     C_3   0.036911 0.310044 0.197473 -0.760039
H42   H     H_    0.098061 0.297136 0.252024 0.258315
H43   H     H_    0.055639 0.332752 0.102729 0.190174
H44   H     H_    0.998310 0.241968 0.192482 0.247380
O13   O     O_3   0.607104 0.056820 0.663941 -0.524345
C49   C     C_3   0.587031 0.080662 0.787176 0.053037
H45   H     H_    0.516115 0.066120 0.807917 0.117865
H46   H     H_    0.601971 0.157534 0.807021 0.127386
C50   C     C_3   0.644243 0.019769 0.873035 -0.769813
H47   H     H_    0.715235 0.035960 0.856667 0.254180
H48   H     H_    0.628181 0.036619 0.970335 0.184535
H49   H     H_    0.632673 0.941779 0.856613 0.258234
O14   O     O_3   0.393095 0.062274 0.330278 -0.522554
C51   C     C_3   0.416569 0.086674 0.208079 0.062333
H50   H     H_    0.485244 0.062555 0.188124 0.125981
H51   H     H_    0.411477 0.165506 0.189631 0.123254
C52   C     C_3   0.353179 0.036820 0.120360 -0.775275
H52   H     H_    0.284904 0.064087 0.134814 0.251497
H53   H     H_    0.373040 0.052032 0.023703 0.181937
H54   H     H_    0.353953 0.957686 0.137168 0.264562

loop_
_geom_bond_atom_site_label_1
_geom_bond_atom_site_label_2
_ccdc_geom_bond_type
C4    C36   A    
C17   O10   S    
O12   C47   S    
C11   O13   S    
C33   H7    S    
C40   H20   S    
C24   C27   A    
C35   H9    S    
C46   H39   S    
C46   H37   S    
C18   N2    A    
C41   H23   S    
C48   H43   S    
O11   C45   S    
C25   C41   S    
C28   C29   A    
Cu1   Cu2   S    
C24   C26   A    
C21   O7    A    
O10   C39   S    
C22   O8    A    
C43   H31   S    
C17   C20   A    
C23   H5    S    
C47   C48   S    
C1    O1    A    
C51   H50   S    
C52   H54   S    
C37   H14   S    
C42   H27   S    
C13   N1    A    
C11   C15   A    
C19   N2    A    
Cu2   O3    S    
C31   C32   A    
C38   H16   S    
C39   H18   S    
C34   H8    S    
C44   H33   S    
C8    O12   S    
Cu1   O6    S    
C19   H4    S    
C45   H36   S    
C50   H49   S    
Cu1   O1    S    
C41   H24   S    
C27   C30   A    
C9    C33   A    
C40   H21   S    
O9    C37   S    
C46   H38   S    
C42   H26   S    
C51   H51   S    
C43   H30   S    
C15   C20   S    
C7    O11   S    
C48   H44   S    
C47   H40   S    
C4    C6    A    
C2    O2    A    
C18   H3    S    
C5    C7    A    
Cu1   N2    S    
C17   C19   A    
C6    C8    A    
Cu2   N1    S    
C45   C46   S    
C25   C26   A    
C43   H29   S    
C21   C29   S    
C49   H45   S    
C1    C3    S    
C51   C52   S    
C2    C4    S    
C21   O5    A    
C37   H13   S    
C14   N1    A    
C12   C15   A    
C3    C35   A    
C16   C20   A    
C38   H17   S    
C39   C40   S    
C10   C34   A    
C23   C28   A    
C44   H34   S    
C47   H41   S    
C49   C50   S    
C52   H52   S    
Cu2   O8    S    
Cu1   O2    S    
C16   C18   A    
C12   C14   A    
C26   C42   S    
C32   H2    S    
C24   H6    S    
C40   H22   S    
C13   H11   S    
C16   O9    S    
C42   H28   S    
C50   H47   S    
C9    C10   S    
C41   H25   S    
C7    C9    A    
C22   C30   S    
C37   C38   S    
C3    C5    A    
C22   O6    A    
C6    C44   S    
C48   H42   S    
C1    O3    A    
C5    C43   S    
C29   C31   A    
C2    O4    A    
O13   C49   S    
C30   C32   A    
C11   C13   A    
C14   H12   S    
C33   C35   A    
C31   H1    S    
C36   H10   S    
C34   C36   A    
C23   C25   A    
C45   H35   S    
C49   H46   S    
C52   H53   S    
Cu2   O7    S    
Cu2   O4    S    
C8    C10   A    
C38   H15   S    
C27   C28   A    
C39   H19   S    
C12   O14   S    
C44   H32   S    
O14   C51   S    
Cu1   O5    S    
C50   H48   S    
