data_mof_unit_14547.cif
_audit_creation_date              2013-03-05T16:32:08-0500
_audit_creation_method            fapswitch 2.2
_symmetry_space_group_name_H-M    P1
_symmetry_Int_Tables_number       1
_space_group_crystal_system       triclinic
_cell_length_a                    10.757019
_cell_length_b                    10.897642
_cell_length_c                    9.593859
_cell_angle_alpha                 91.461306
_cell_angle_beta                  88.796685
_cell_angle_gamma                 91.761961
_cell_volume                      1123.5237191

loop_
_atom_site_label
_atom_site_type_symbol
_atom_site_description
_atom_site_fract_x
_atom_site_fract_y
_atom_site_fract_z
_atom_type_partial_charge
O1    O     O_R   0.500000 0.319640 0.618810 -0.535097
O2    O     O_R   0.500010 0.319680 0.381230 -0.598025
C1    C     C_R   0.495550 0.262684 0.498547 0.848014
O3    O     O_R   0.317690 0.499960 0.618790 -0.530424
O4    O     O_R   0.317700 0.500000 0.381210 -0.603155
C2    C     C_R   0.260109 0.500879 0.500913 0.794818
Cu1   Cu    Cu3+1 0.499990 0.499980 0.640670 1.051725
Cu2   Cu    Cu3+1 0.500010 0.500020 0.359330 0.981588
O5    O     O_R   0.499990 0.680320 0.618770 -0.564271
O6    O     O_R   0.500000 0.680360 0.381190 -0.583016
O7    O     O_R   0.682300 0.500000 0.618790 -0.557406
O8    O     O_R   0.682310 0.500040 0.381210 -0.577686
C3    C     C_R   0.499840 0.738050 0.501375 0.816481
C4    C     C_R   0.740122 0.499702 0.499287 0.794536
C5    C     C_3   0.068983 0.372797 0.543824 -0.374904
H1    H     H_    0.095283 0.354402 0.652446 0.269581
H2    H     H_    0.110244 0.299614 0.475986 0.140984
C6    C     C_3   0.925657 0.367791 0.529528 0.198507
H3    H     H_    0.903747 0.308201 0.436452 0.107617
H4    H     H_    0.107166 0.584099 0.712533 0.246059
H5    H     H_    0.896046 0.572666 0.716192 0.237313
C7    C     C_3   0.072974 0.599259 0.605965 -0.331696
C8    C     C_3   0.075063 0.528947 0.354019 -0.359341
C9    C     C_3   0.122319 0.500534 0.501563 0.022635
H6    H     H_    0.117059 0.617416 0.317431 0.212592
H7    H     H_    0.102995 0.455571 0.277756 0.205248
C10   C     C_3   0.878431 0.498897 0.500128 -0.027891
C11   C     C_3   0.929572 0.594804 0.609536 -0.353562
C12   C     C_3   0.933116 0.536550 0.356572 -0.369492
H8    H     H_    0.894595 0.476322 0.271489 0.224270
H9    H     H_    0.908716 0.632656 0.338213 0.262774
H10   H     H_    0.107712 0.692016 0.574646 0.175048
H11   H     H_    0.895066 0.687523 0.587681 0.164348
C13   C     C_R   0.456352 0.067530 0.618977 0.051700
C14   C     C_R   0.480982 0.129804 0.495848 -0.082087
C15   C     C_R   0.492226 0.061227 0.370744 -0.172080
H12   H     H_    0.504653 0.106037 0.271707 0.190694
C16   C     C_R   0.496583 0.933361 0.373693 -0.119862
H13   H     H_    0.509790 0.883666 0.275962 0.201600
C17   C     C_R   0.491276 0.871936 0.501575 -0.155587
C18   C     C_R   0.464268 0.941306 0.623162 0.057413
C19   C     C_3   0.523614 0.952641 0.764812 0.472437
C20   C     C_3   0.508547 0.090609 0.759773 -0.430857
H14   H     H_    0.438048 0.125924 0.835437 0.245092
H15   H     H_    0.596676 0.145880 0.756615 0.230799
C21   C     C_R   0.601827 0.543778 0.072152 0.193388
N1    N     N_R   0.500800 0.500930 0.147930 -0.240954
C22   C     C_R   0.404041 0.449262 0.076491 -0.110453
H16   H     H_    0.326072 0.408761 0.133685 0.176706
C23   C     C_R   0.402494 0.449530 0.928686 0.425018
N2    N     N_R   0.500800 0.500890 0.852020 -0.241420
C24   C     C_R   0.602363 0.540564 0.924047 0.173596
C25   C     C_3   0.654461 0.665978 0.912547 -0.482356
C26   C     C_3   0.648322 0.675154 0.069801 0.128368
H17   H     H_    0.748879 0.668251 0.863851 0.224750
H18   H     H_    0.587421 0.722905 0.862371 0.250218
H19   H     H_    0.578492 0.740458 0.110972 0.148475
N3    N     N_R   0.446879 0.895839 0.875745 0.122465
O9    O     O_R   0.364198 0.809911 0.845913 -0.355356
O10   O     O_R   0.452082 0.939105 0.003222 -0.411188
N4    N     N_2   0.653659 0.917273 0.762845 -0.489152
H20   H     H_    0.700169 0.929463 0.668757 0.264997
C27   C     C_3   0.728923 0.956547 0.880485 -0.553526
H21   H     H_    0.818804 0.909036 0.874113 0.245293
H22   H     H_    0.682468 0.932687 0.980711 0.266308
H23   H     H_    0.749097 0.056972 0.879075 0.253999
N5    N     N_R   0.293517 0.399332 0.863199 0.122619
O11   O     O_R   0.300441 0.300115 0.785944 -0.382695
O12   O     O_R   0.184691 0.432728 0.909140 -0.365973
N6    N     N_R   0.771000 0.695935 0.129517 0.123859
O13   O     O_R   0.788842 0.788684 0.215581 -0.394572
O14   O     O_R   0.866587 0.637593 0.079379 -0.365101
N7    N     N_R   0.864734 0.311255 0.651316 0.133430
O15   O     O_R   0.881376 0.356192 0.776740 -0.327311
O16   O     O_R   0.801419 0.208492 0.635133 -0.410865

loop_
_geom_bond_atom_site_label_1
_geom_bond_atom_site_label_2
_geom_bond_distance
_ccdc_geom_bond_type
C5    C6    1.549891 S    
C27   H22   1.107467 S    
C10   C12   1.546354 S    
N7    O15   1.301302 A    
C14   C15   1.402639 A    
C19   N3    1.470541 S    
Cu1   Cu2   2.699142 S    
C25   C26   1.509632 S    
Cu1   O7    1.967921 S    
C7    H10   1.113215 S    
C8    C12   1.531360 S    
C15   H12   1.083250 S    
C6    H3    1.115563 S    
O4    C2    1.293312 A    
O7    C4    1.292800 A    
N3    O10   1.301153 A    
C5    H1    1.110282 S    
C21   C24   1.420338 A    
C5    H2    1.113448 S    
C13   C14   1.393868 A    
C18   C19   1.514145 S    
C8    H7    1.113868 S    
N4    C27   1.450820 S    
O5    C3    1.304052 A    
C3    C17   1.464721 S    
C8    C9    1.555704 S    
N6    O13   1.300907 A    
C4    C10   1.488273 S    
C23   N5    1.429050 S    
C22   C23   1.418540 A    
C27   H23   1.109500 S    
C7    C11   1.541532 S    
N7    O16   1.300300 A    
C13   C18   1.382442 A    
O3    Cu1   1.976579 S    
C25   H17   1.108850 S    
C13   C20   1.486248 S    
N2    C24   1.358469 A    
O3    C2    1.301175 A    
N3    O9    1.302165 A    
N5    O11   1.298347 A    
O1    C1    1.297203 A    
C20   H14   1.109391 S    
C12   H8    1.113081 S    
N1    C22   1.358073 A    
C26   N6    1.458673 S    
C1    C14   1.451361 S    
Cu2   O8    1.976577 S    
C2    C9    1.481980 S    
C21   C26   1.502508 S    
C23   N2    1.387244 A    
C5    C9    1.549587 S    
C20   H15   1.107725 S    
C19   N4    1.462010 S    
C17   C18   1.403880 A    
H5    C11   1.107713 S    
O8    C4    1.303827 A    
C11   H11   1.113467 S    
C6    N7    1.467647 S    
C7    C9    1.549290 S    
C19   C20   1.519275 S    
C24   C25   1.467026 S    
C25   H18   1.092686 S    
Cu1   O5    1.981802 S    
C21   N1    1.371318 A    
C22   H16   1.081474 S    
O1    Cu1   1.971117 S    
O2    Cu2   1.981799 S    
C6    C10   1.565301 S    
H4    C7    1.111762 S    
O6    C3    1.299139 A    
O4    Cu2   1.967920 S    
C15   C16   1.396695 A    
O2    C1    1.298633 A    
Cu2   N1    2.028258 S    
Cu1   N2    2.027635 S    
C12   H9    1.106826 S    
C16   C17   1.411797 A    
C16   H13   1.079740 S    
C8    H6    1.113833 S    
N4    H20   1.032390 S    
C27   H21   1.110544 S    
Cu2   O6    1.971117 S    
C10   C11   1.558751 S    
N6    O14   1.302582 A    
N5    O12   1.301332 A    
C26   H19   1.110317 S    
