data_mof_unit_45925.cif
_audit_creation_date              2012-12-10T17:36:47-0500
_audit_creation_method            fapswitch 2.2
_symmetry_space_group_name_H-M    P1
_symmetry_Int_Tables_number       1
_space_group_crystal_system       triclinic
_cell_length_a                    10.620888
_cell_length_b                    12.333138
_cell_length_c                    13.192702
_cell_angle_alpha                 116.822346
_cell_angle_beta                  77.072607
_cell_angle_gamma                 101.619671
_cell_volume                      1493.02294198

loop_
_atom_site_label
_atom_site_type_symbol
_atom_type_description
_atom_site_fract_x
_atom_site_fract_y
_atom_site_fract_z
_atom_type_partial_charge
C1    C     C_R   0.511038 0.854857 0.286547 0.779255
C2    C     C_3   0.009608 0.910792 0.527968 0.121230
C3    C     C_3   0.952819 0.889477 0.421529 -0.192295
C4    C     C_3   0.876996 0.000008 0.498802 -0.029967
C5    C     C_R   0.321682 0.274475 0.021803 -0.199460
C6    C     C_R   0.451589 0.227948 0.835022 -0.049065
C7    C     C_R   0.594591 0.814841 0.084137 -0.187648
C8    C     C_R   0.617854 0.735742 0.968658 -0.151260
C9    C     C_R   0.570205 0.612647 0.931457 -0.167730
C10   C     C_R   0.493494 0.566515 0.009503 0.073996
C11   C     C_R   0.456341 0.650627 0.124140 0.024461
C12   C     C_R   0.740365 0.999672 0.499262 0.795431
C13   C     C_R   0.451651 0.439959 0.977170 0.043691
C14   C     C_R   0.362077 0.400409 0.055182 0.112251
C15   C     C_R   0.313119 0.487880 0.163701 0.110919
C16   C     C_R   0.358648 0.610837 0.195935 -0.169592
C17   C     C_R   0.498477 0.351187 0.869532 -0.238153
C18   C     C_R   0.365277 0.189115 0.912152 -0.196142
C19   C     C_R   0.516812 0.773076 0.163358 -0.080661
C20   C     C_R   0.706459 0.346022 0.326753 -0.299956
C21   C     C_R   0.324290 0.759734 0.646200 0.073749
C22   C     C_R   0.285287 0.662962 0.677595 -0.250584
C23   C     C_R   0.480351 0.145159 0.713562 0.790304
C24   C     C_R   0.351013 0.559311 0.622240 -0.191686
C25   C     C_R   0.457134 0.551018 0.533987 -0.004686
C26   C     C_R   0.493066 0.652505 0.504302 0.301256
C27   C     C_R   0.528994 0.446553 0.474384 -0.042782
C28   C     C_R   0.633780 0.445730 0.386121 0.187705
C29   C     C_R   0.666106 0.544567 0.357719 -0.302084
C30   C     C_R   0.598324 0.645948 0.416165 -0.200694
C31   C     C_R   0.502219 0.342080 0.498057 0.013936
C32   C     C_R   0.675296 0.246669 0.354296 0.065313
C33   C     C_R   0.259479 0.000009 0.500553 0.797718
C34   C     C_3   0.987853 0.089376 0.471674 -0.176734
C35   C     C_3   0.064698 0.979460 0.397808 0.171954
C36   C     C_3   0.122161 0.998766 0.501297 -0.025540
C37   C     C_3   0.045062 0.108622 0.577847 -0.226528
C38   C     C_3   0.931338 0.020137 0.605332 -0.173808
Cu1   Cu    Cu3+1 0.529830 0.098270 0.475420 0.929927
Cu2   Cu    Cu3+1 0.470170 0.901730 0.524580 0.915115
H1    H     H_    0.571552 0.375276 0.809658 0.145834
H2    H     H_    0.639984 0.908487 0.111782 0.146198
H3    H     H_    0.592558 0.556955 0.840581 0.125579
H4    H     H_    0.676671 0.769205 0.907934 0.139517
H5    H     H_    0.313397 0.674984 0.277495 0.189180
H6    H     H_    0.730827 0.169294 0.308538 0.116069
H7    H     H_    0.746506 0.544627 0.290540 0.151629
H8    H     H_    0.786950 0.344970 0.259389 0.133225
H9    H     H_    0.424202 0.334713 0.563450 0.123256
H10   H     H_    0.273297 0.840087 0.690202 0.114272
H11   H     H_    0.977225 0.161415 0.446659 0.140771
H12   H     H_    0.316787 0.487304 0.650177 0.133154
H13   H     H_    0.203957 0.668440 0.745279 0.141001
H14   H     H_    0.633180 0.717855 0.389786 0.205383
H15   H     H_    0.085147 0.197579 0.641676 0.140317
H16   H     H_    0.872976 0.036795 0.691024 0.128068
H17   H     H_    0.913539 0.800807 0.356713 0.120731
H18   H     H_    0.327656 0.093556 0.886347 0.144116
H19   H     H_    0.253698 0.241049 0.078626 0.129686
N1    N     N_R   0.575030 0.246270 0.438190 -0.178111
N2    N     N_R   0.425760 0.754330 0.561190 -0.204597
O1    O     O_R   0.537510 0.972500 0.318130 -0.578916
O2    O     O_R   0.487140 0.806530 0.359650 -0.604146
O3    O     O_R   0.708330 0.082950 0.479220 -0.584257
O4    O     O_R   0.657960 0.916980 0.520740 -0.602876
O5    O     O_R   0.512860 0.193470 0.640350 -0.586693
O6    O     O_R   0.462490 0.027500 0.681870 -0.587677
O7    O     O_R   0.342040 0.083020 0.479260 -0.580955
O8    O     O_R   0.291670 0.917050 0.520780 -0.604696
N3    N     N_3   0.140266 0.956672 0.284890 -0.602450
H20   H     H_    0.076180 0.948662 0.231591 0.207846
H21   H     H_    0.205663 0.034806 0.293208 0.224945
C39   C     C_3   0.020727 0.809654 0.561309 -0.393152
C40   C     C_3   0.887364 0.740311 0.580142 -0.346173
C41   C     C_3   0.898564 0.637554 0.610731 -0.841380
H22   H     H_    0.960981 0.570855 0.540260 0.263412
H23   H     H_    0.940864 0.675364 0.691418 0.244194
H24   H     H_    0.800422 0.588985 0.623390 0.244857
H25   H     H_    0.822145 0.804203 0.650597 0.220239
H26   H     H_    0.843182 0.700150 0.500453 0.235319
H27   H     H_    0.085784 0.744987 0.491554 0.220546
H28   H     H_    0.064319 0.851677 0.641637 0.190063
N4    N     N_3   0.217392 0.454981 0.243870 -0.605885
H29   H     H_    0.134842 0.408481 0.205071 0.209383
H30   H     H_    0.255439 0.397091 0.264780 0.222018

loop_
_geom_bond_atom_site_label_1
_geom_bond_atom_site_label_2
_ccdc_geom_bond_type
C24   H12   S    
C34   C37   S    
Cu1   O7    S    
C35   C36   S    
C1    O1    A    
C7    C8    A    
Cu1   O3    S    
C30   H14   S    
C11   C19   A    
C34   H11   S    
C29   C30   A    
Cu2   O2    S    
C29   H7    S    
C23   O5    A    
C36   C37   S    
C26   N2    A    
C12   O3    A    
Cu1   N1    S    
C15   C16   A    
C33   C36   S    
C34   C35   S    
C39   C40   S    
C7    H2    S    
C23   O6    A    
Cu1   O1    S    
C18   H18   S    
C35   N3    S    
C8    C9    A    
Cu2   O6    S    
N3    H20   S    
C4    C12   S    
C9    C10   A    
C21   N2    A    
C33   O8    A    
C40   H26   S    
C21   C22   A    
C31   H9    S    
C1    O2    A    
C39   H27   S    
C21   H10   S    
C22   H13   S    
C6    C18   A    
C4    C34   S    
C9    H3    S    
C1    C19   S    
Cu2   O8    S    
C5    H19   S    
C27   C31   A    
C24   C25   A    
C40   C41   S    
Cu1   Cu2   S    
C15   N4    S    
C5    C18   A    
C20   C28   A    
C25   C26   A    
Cu2   N2    S    
C31   N1    A    
C41   H22   S    
C37   C38   S    
C11   C16   A    
C2    C38   S    
N4    H29   S    
C3    C35   S    
C41   H23   S    
C5    C14   A    
C20   H8    S    
C2    C39   S    
C3    H17   S    
N4    H30   S    
C4    C38   S    
C26   C30   A    
C7    C19   A    
C40   H25   S    
Cu1   O5    S    
C22   C24   A    
C32   N1    A    
C3    C4    S    
C39   H28   S    
C20   C32   A    
C2    C36   S    
C6    C17   A    
C28   C29   A    
C32   H6    S    
C8    H4    S    
C10   C13   A    
C16   H5    S    
C25   C27   A    
C12   O4    A    
C13   C17   A    
Cu2   O4    S    
C2    C3    S    
C6    C23   S    
C41   H24   S    
C17   H1    S    
C10   C11   A    
C37   H15   S    
C38   H16   S    
C27   C28   A    
C14   C15   A    
N3    H21   S    
C13   C14   A    
C33   O7    A    
