data_mof_unit_23234.cif
_audit_creation_date              2012-12-10T18:06:40-0500
_audit_creation_method            fapswitch 2.2
_symmetry_space_group_name_H-M    P1
_symmetry_Int_Tables_number       1
_space_group_crystal_system       triclinic
_cell_length_a                    12.643415
_cell_length_b                    13.072964
_cell_length_c                    15.438166
_cell_angle_alpha                 83.647053
_cell_angle_beta                  98.854594
_cell_angle_gamma                 97.317955
_cell_volume                      2489.96347346

loop_
_atom_site_label
_atom_site_type_symbol
_atom_type_description
_atom_site_fract_x
_atom_site_fract_y
_atom_site_fract_z
_atom_type_partial_charge
C1    C     C_R   0.441825 0.308449 0.506641 0.859021
C2    C     C_R   0.426751 0.445744 0.105692 0.090246
C3    C     C_R   0.315811 0.445621 0.072787 0.171025
C4    C     C_R   0.499590 0.422149 0.051886 0.066725
C5    C     C_R   0.464418 0.419215 0.960854 0.067845
C6    C     C_R   0.352614 0.414801 0.929857 -0.220305
C7    C     C_R   0.279267 0.425729 0.985803 -0.219570
C8    C     C_R   0.606712 0.403302 0.085705 -0.229698
C9    C     C_R   0.680859 0.395764 0.029717 -0.212311
C10   C     C_R   0.651512 0.411382 0.938974 0.166232
C11   C     C_R   0.542982 0.423947 0.903975 0.092167
C12   C     C_R   0.434682 0.509750 0.336279 0.852192
C13   C     C_R   0.729896 0.418142 0.882793 -0.185726
C14   C     C_R   0.702543 0.442662 0.792623 -0.177875
C15   C     C_R   0.518021 0.450239 0.813753 -0.256954
C16   C     C_R   0.636682 0.940520 0.360341 -0.140048
C17   C     C_R   0.582085 0.801692 0.466303 -0.053482
C18   C     C_R   0.330605 0.156336 0.566799 -0.149929
C19   C     C_R   0.308966 0.049300 0.583317 0.236482
C20   C     C_R   0.367541 0.984953 0.547527 -0.204482
C21   C     C_R   0.444495 0.026890 0.491465 0.044684
C22   C     C_R   0.450875 0.132760 0.463291 0.090412
C23   C     C_R   0.556027 0.691805 0.488585 0.859816
C24   C     C_R   0.514747 0.966817 0.462241 0.070858
C25   C     C_R   0.574883 0.006904 0.392504 0.138002
C26   C     C_R   0.567206 0.110141 0.355447 -0.020519
C27   C     C_R   0.504819 0.171071 0.390990 -0.282547
C28   C     C_R   0.527514 0.867640 0.502424 -0.235186
C29   C     C_R   0.638961 0.838200 0.396365 -0.222608
C30   C     C_R   0.403941 0.198245 0.509154 -0.153959
C31   C     C_R   0.141647 0.657476 0.610733 -0.244353
C32   C     C_R   0.756314 0.391073 0.387176 0.038000
C33   C     C_R   0.849573 0.383588 0.352830 -0.211897
C34   C     C_R   0.563631 0.484547 0.663987 0.858434
C35   C     C_R   0.946522 0.431481 0.392551 -0.131451
C36   C     C_R   0.951134 0.482102 0.469865 0.035523
C37   C     C_R   0.853119 0.497419 0.495369 0.227550
C38   C     C_R   0.048120 0.524655 0.518168 -0.045163
C39   C     C_R   0.044920 0.600675 0.577162 0.138943
C40   C     C_R   0.944939 0.619102 0.598696 -0.059852
C41   C     C_R   0.851223 0.566187 0.558129 -0.315453
C42   C     C_R   0.149106 0.494589 0.510815 0.058565
C43   C     C_R   0.238223 0.632953 0.591819 -0.029458
C44   C     C_R   0.391759 0.496525 0.244270 -0.053767
C45   C     C_R   0.596603 0.460656 0.758217 -0.064302
C46   C     C_R   0.243551 0.467355 0.127065 -0.189412
C47   C     C_R   0.281245 0.491505 0.213039 -0.194122
C48   C     C_R   0.463210 0.476490 0.189619 -0.274904
H1    H     H_    0.194345 0.422905 0.959920 0.156178
H2    H     H_    0.812708 0.407153 0.908852 0.144015
H3    H     H_    0.679864 0.786337 0.366382 0.164376
H4    H     H_    0.678814 0.963961 0.304501 0.200595
H5    H     H_    0.491513 0.837733 0.560501 0.137919
H6    H     H_    0.292638 0.206829 0.600694 0.186327
H7    H     H_    0.349100 0.902478 0.562301 0.138904
H8    H     H_    0.498534 0.249608 0.361474 0.146175
H9    H     H_    0.313073 0.677225 0.616095 0.141331
H10   H     H_    0.438031 0.467482 0.786023 0.167112
H11   H     H_    0.144137 0.722364 0.648878 0.195912
H12   H     H_    0.679638 0.357308 0.355511 0.124997
H13   H     H_    0.015575 0.432300 0.359172 0.118957
H14   H     H_    0.846380 0.343922 0.294376 0.178638
H15   H     H_    0.776917 0.581948 0.575427 0.209903
H16   H     H_    0.764292 0.448913 0.750247 0.170288
H17   H     H_    0.762746 0.383136 0.057619 0.150729
H18   H     H_    0.158229 0.465667 0.103034 0.139282
H19   H     H_    0.224249 0.505311 0.254949 0.146826
H20   H     H_    0.548362 0.487465 0.212942 0.161672
H21   H     H_    0.319610 0.400820 0.862913 0.155795
H22   H     H_    0.634762 0.392678 0.155428 0.138001
N1    N     N_R   0.239390 0.551900 0.544730 -0.136088
N2    N     N_R   0.759950 0.448600 0.455730 -0.126717
O1    O     O_R   0.374950 0.371210 0.521360 -0.624930
O2    O     O_R   0.542050 0.338030 0.492790 -0.596114
O3    O     O_R   0.368720 0.526070 0.390200 -0.633552
O4    O     O_R   0.535820 0.492890 0.361630 -0.630278
O5    O     O_R   0.457950 0.661970 0.507210 -0.609534
O6    O     O_R   0.625050 0.628790 0.478640 -0.631215
O7    O     O_R   0.464180 0.507110 0.638370 -0.611875
O8    O     O_R   0.631280 0.473930 0.609800 -0.628471
Zn1   Zn    Zn3+2 0.388420 0.522150 0.519080 0.933413
Zn2   Zn    Zn3+2 0.611580 0.477850 0.480920 0.930309
C49   C     C_2   0.623771 0.160363 0.281705 0.342148
H23   H     H_    0.585959 0.218056 0.235277 0.063654
O9    O     O_2   0.714936 0.143931 0.275163 -0.582948
C50   C     C_3   0.227728 0.002951 0.642176 -0.868206
H24   H     H_    0.188385 0.063595 0.666091 0.253001
H25   H     H_    0.164438 0.950862 0.605392 0.246067
H26   H     H_    0.268040 0.957349 0.700061 0.238213
C51   C     C_2   0.932438 0.688651 0.665507 0.381824
H27   H     H_    0.859918 0.727067 0.658439 0.067420
O10   O     O_2   0.998347 0.698561 0.731500 -0.570861
C52   C     C_2   0.160880 0.396433 0.476673 0.421273
H28   H     H_    0.208531 0.396215 0.424157 0.085801
O11   O     O_2   0.115626 0.314837 0.506271 -0.569653

loop_
_geom_bond_atom_site_label_1
_geom_bond_atom_site_label_2
_ccdc_geom_bond_type
C8    C9    A    
C6    H21   S    
C26   C49   S    
C42   C52   S    
C17   C29   A    
C35   C36   A    
C4    C8    A    
C19   C50   S    
C32   N2    A    
C26   C27   A    
C17   C23   S    
C31   C43   A    
C1    O2    A    
C36   C37   A    
C46   H18   S    
C3    C7    A    
C5    C6    A    
C50   H25   S    
C31   H11   S    
C18   C19   A    
O1    Zn1   S    
C42   N1    A    
C34   O8    A    
C11   C15   A    
C19   C20   A    
C33   H14   S    
C18   C30   A    
C9    C10   A    
C44   C47   A    
C52   O11   D    
C21   C22   A    
C37   N2    A    
O2    Zn2   S    
C20   H7    S    
C47   H19   S    
C14   C45   A    
C16   H4    S    
C24   C25   A    
C7    H1    S    
O8    Zn2   S    
O4    Zn2   S    
C39   C40   A    
O7    Zn1   S    
C43   H9    S    
C27   H8    S    
O3    Zn1   S    
C2    C48   A    
C16   C29   A    
C50   H26   S    
C48   H20   S    
C2    C4    A    
C34   O7    A    
O6    Zn2   S    
C51   O10   D    
C49   H23   S    
O5    Zn1   S    
C14   H16   S    
C35   H13   S    
C34   C45   S    
C23   O5    A    
C40   C41   A    
C49   O9    D    
C22   C27   A    
C12   O4    A    
C15   H10   S    
C21   C24   A    
C41   H15   S    
C29   H3    S    
C16   C25   A    
C46   C47   A    
C43   N1    A    
C22   C30   A    
C50   H24   S    
C17   C28   A    
C24   C28   A    
C4    C5    A    
C10   C13   A    
C28   H5    S    
C5    C11   A    
C6    C7    A    
C52   H28   S    
C3    C46   A    
C8    H22   S    
C1    O1    A    
C32   C33   A    
C36   C38   A    
C2    C3    A    
C25   C26   A    
C12   C44   S    
C51   H27   S    
C38   C39   A    
C1    C30   S    
C33   C35   A    
C31   C39   A    
C23   O6    A    
C37   C41   A    
C9    H17   S    
C10   C11   A    
C18   H6    S    
C13   H2    S    
C38   C42   A    
C20   C21   A    
C12   O3    A    
C32   H12   S    
C40   C51   S    
C13   C14   A    
N2    Zn2   S    
C44   C48   A    
N1    Zn1   S    
C15   C45   A    
