data_mof_unit_68581.cif
_audit_creation_date              2012-12-11T16:11:55-0500
_audit_creation_method            fapswitch 2.2
_symmetry_space_group_name_H-M    P1
_symmetry_Int_Tables_number       1
_space_group_crystal_system       triclinic
_cell_length_a                    6.933463
_cell_length_b                    14.397784
_cell_length_c                    15.747351
_cell_angle_alpha                 89.978449
_cell_angle_beta                  90.193799
_cell_angle_gamma                 90.082796
_cell_volume                      1571.99223411

loop_
_atom_site_label
_atom_site_type_symbol
_atom_type_description
_atom_site_fract_x
_atom_site_fract_y
_atom_site_fract_z
_atom_type_partial_charge
O1    O     O_R   0.638960 0.835150 0.161940 -0.534941
O2    O     O_R   0.361040 0.164850 0.838060 -0.534941
O3    O     O_R   0.309170 0.846340 0.337470 -0.542952
O4    O     O_R   0.690830 0.153660 0.662530 -0.542952
O5    O     O_R   0.138810 0.664830 0.338070 -0.527876
O6    O     O_R   0.861190 0.335170 0.661930 -0.527876
C1    C     C_R   0.478336 0.868524 0.366499 0.732425
C2    C     C_R   0.521664 0.131476 0.633501 0.732424
O7    O     O_R   0.309250 0.846350 0.162570 -0.545872
O8    O     O_R   0.690750 0.153650 0.837430 -0.545872
O9    O     O_R   0.138880 0.664840 0.161920 -0.542604
O10   O     O_R   0.861120 0.335160 0.838080 -0.542604
C3    C     C_R   0.478182 0.868568 0.133567 0.751816
C4    C     C_R   0.521818 0.131432 0.866433 0.751816
O11   O     O_R   0.638880 0.835150 0.338090 -0.535975
O12   O     O_R   0.361120 0.164850 0.661910 -0.535975
O13   O     O_3   0.472380 0.690440 0.250000 -0.359718
O14   O     O_3   0.527620 0.309560 0.750000 -0.359719
V1    V     V_3+5 0.197550 0.761040 0.250010 1.490834
V2    V     V_3+5 0.802450 0.238960 0.749990 1.490834
O15   O     O_R   0.809160 0.653640 0.162540 -0.536273
O16   O     O_R   0.190840 0.346360 0.837460 -0.536274
C5    C     C_R   0.977682 0.631985 0.133217 0.708299
C6    C     C_R   0.022318 0.368015 0.866783 0.708300
O17   O     O_R   0.809090 0.653640 0.337440 -0.533407
O18   O     O_R   0.190910 0.346360 0.662560 -0.533407
C7    C     C_R   0.978149 0.631830 0.366792 0.712643
C8    C     C_R   0.021851 0.368170 0.633208 0.712642
V3    V     V_3+5 0.697540 0.738950 0.250000 1.517729
V4    V     V_3+5 0.302460 0.261050 0.750000 1.517729
O19   O     O_3   0.972580 0.809550 0.250010 -0.372723
O20   O     O_3   0.027420 0.190450 0.749990 -0.372723
C9    C     C_3   0.106125 0.573476 0.519892 0.033446
C10   C     C_3   0.893874 0.426524 0.480108 0.033446
C11   C     C_3   0.933273 0.538037 0.572556 -0.159253
C12   C     C_3   0.066726 0.461963 0.427444 -0.159253
H1    H     H_    0.879405 0.569373 0.632349 0.159854
H2    H     H_    0.120594 0.430627 0.367651 0.159854
C13   C     C_3   0.010529 0.438126 0.562581 -0.096030
C14   C     C_3   0.989471 0.561874 0.437418 -0.096030
C15   C     C_3   0.184808 0.473770 0.510966 -0.169205
C16   C     C_3   0.815192 0.526230 0.489034 -0.169205
H3    H     H_    0.337519 0.453554 0.520710 0.169852
H4    H     H_    0.662480 0.546446 0.479290 0.169852
C17   C     C_3   0.827336 0.457682 0.989550 -0.184823
C18   C     C_3   0.172664 0.542318 0.010450 -0.184824
C19   C     C_3   0.950719 0.457064 0.071911 -0.023324
C20   C     C_3   0.049281 0.542936 0.928089 -0.023324
H5    H     H_    0.685278 0.423534 0.980476 0.154125
H6    H     H_    0.314722 0.576466 0.019523 0.154126
C21   C     C_3   0.987738 0.562077 0.062784 -0.135722
C22   C     C_3   0.012262 0.437923 0.937216 -0.135722
C23   C     C_3   0.866868 0.563075 0.980546 -0.063254
C24   C     C_3   0.133132 0.436925 0.019454 -0.063254
C25   C     C_3   0.678175 0.968186 0.482300 -0.155592
C26   C     C_3   0.321825 0.031814 0.517700 -0.155592
C27   C     C_3   0.613891 0.071445 0.476361 -0.195787
C28   C     C_3   0.386109 0.928555 0.523639 -0.195787
H7    H     H_    0.709086 0.129373 0.456533 0.155655
H8    H     H_    0.290914 0.870627 0.543467 0.155655
H9    H     H_    0.825038 0.941693 0.468304 0.123402
H10   H     H_    0.174962 0.058307 0.531695 0.123402
C29   C     C_3   0.510626 0.061627 0.562778 -0.060516
C30   C     C_3   0.489374 0.938373 0.437222 -0.060516
C31   C     C_3   0.573811 0.959776 0.568356 -0.003336
C32   C     C_3   0.426189 0.040224 0.431644 -0.003336
C33   C     C_3   0.596998 0.922500 0.978723 -0.167371
C34   C     C_3   0.403002 0.077500 0.021277 -0.167371
C35   C     C_3   0.422264 0.963376 0.930493 0.016226
C36   C     C_3   0.577736 0.036624 0.069507 0.016227
H11   H     H_    0.679368 0.859603 0.960917 0.167301
H12   H     H_    0.320632 0.140397 0.039082 0.167301
C37   C     C_3   0.510442 0.061123 0.936746 -0.078223
C38   C     C_3   0.489558 0.938877 0.063254 -0.078223
C39   C     C_3   0.686136 0.021442 0.985138 -0.184138
C40   C     C_3   0.313864 0.978558 0.014862 -0.184138
H13   H     H_    0.839522 0.039325 0.973243 0.132546
H14   H     H_    0.160478 0.960675 0.026757 0.132546
C41   C     C_2   0.331811 0.919156 0.853923 0.791267
O21   O     O_2   0.271421 0.839544 0.858536 -0.524124
O22   O     O_R   0.315626 0.968895 0.778067 -0.673548
H15   H     H_    0.251228 0.931587 0.731280 0.302097
C42   C     C_2   0.668189 0.080843 0.146077 0.791267
O23   O     O_2   0.728579 0.160456 0.141464 -0.524124
O24   O     O_R   0.684373 0.031105 0.221933 -0.673548
H16   H     H_    0.748772 0.068413 0.268720 0.302097
C43   C     C_2   0.232350 0.654386 0.542064 0.729195
O25   O     O_2   0.197019 0.701315 0.604687 -0.565223
O26   O     O_R   0.392271 0.674505 0.491572 -0.671007
H17   H     H_    0.472829 0.727471 0.514939 0.274738
C44   C     C_2   0.767650 0.345613 0.457936 0.729195
O27   O     O_2   0.802981 0.298685 0.395313 -0.565223
O28   O     O_R   0.607729 0.325495 0.508428 -0.671008
H18   H     H_    0.527171 0.272528 0.485061 0.274738
C45   C     C_2   0.891986 0.409207 0.152340 0.798421
O29   O     O_2   0.742123 0.431465 0.187472 -0.536541
O30   O     O_R   0.008314 0.339379 0.186559 -0.639182
H19   H     H_    0.952758 0.311791 0.240373 0.350851
C46   C     C_2   0.108014 0.590793 0.847660 0.798420
O31   O     O_2   0.257878 0.568536 0.812529 -0.536540
O32   O     O_R   0.991685 0.660621 0.813440 -0.639183
H20   H     H_    0.047242 0.688208 0.759627 0.350851
C47   C     C_1   0.715333 0.630143 0.959003 0.359249
N1    N     N_1   0.595129 0.682509 0.941670 -0.320783
C48   C     C_1   0.284667 0.369857 0.040997 0.359249
N2    N     N_1   0.404871 0.317491 0.058330 -0.320784
C49   C     C_1   0.657301 0.914827 0.643559 0.306202
N3    N     N_1   0.723350 0.879407 0.702853 -0.298845
C50   C     C_1   0.342698 0.085172 0.356441 0.306202
N4    N     N_1   0.276650 0.120593 0.297147 -0.298845

loop_
_geom_bond_atom_site_label_1
_geom_bond_atom_site_label_2
_ccdc_geom_bond_type
C6    C22   S    
C43   O25   D    
C29   C31   S    
O28   H18   S    
O13   V3    S    
C45   O29   D    
C10   C16   S    
C27   C32   S    
O4    C2    A    
V1    O19   S    
O30   H19   S    
C13   C15   S    
O24   H16   S    
O9    V1    S    
O32   H20   S    
C38   C40   S    
O16   C6    A    
C11   H1    S    
C40   H14   S    
O3    C1    A    
C27   H7    S    
C28   H8    S    
C35   C40   S    
C11   C16   S    
O7    C3    A    
C10   C44   S    
O13   V1    S    
O5    C7    A    
O7    V1    S    
O6    C8    A    
C46   O31   D    
O8    V2    S    
C36   C38   S    
C49   N3    T    
O3    V1    S    
O14   V4    S    
O14   V2    S    
C14   C16   S    
C17   C23   S    
C2    O12   A    
C28   C30   S    
C15   H3    S    
O10   V2    S    
C12   C15   S    
C16   H4    S    
C25   C31   S    
C22   C24   S    
O11   V3    S    
C17   C19   S    
O17   V3    S    
C20   C23   S    
C18   C20   S    
C9    C14   S    
C10   C13   S    
C4    C37   S    
C12   C14   S    
O8    C4    A    
C44   O27   D    
C41   O22   S    
C19   C21   S    
C1    O11   A    
C8    C13   S    
C34   C37   S    
O15   V3    S    
C18   C21   S    
O22   H15   S    
C33   C35   S    
C30   C32   S    
C11   C13   S    
C44   O28   S    
C28   C31   S    
C5    C21   S    
C42   O23   D    
C17   H5    S    
C7    C14   S    
C34   H12   S    
C25   C30   S    
C18   C24   S    
O1    V3    S    
C26   C29   S    
C33   C38   S    
C34   C40   S    
C35   C37   S    
C36   C42   S    
C39   H13   S    
C19   C24   S    
C42   O24   S    
O18   V4    S    
C25   C27   S    
C26   H10   S    
C35   C41   S    
O1    C3    A    
C37   C39   S    
C12   H2    S    
C47   N1    T    
V2    O20   S    
C20   C46   S    
O10   C6    A    
O16   V4    S    
C24   C48   S    
C46   O32   S    
C27   C29   S    
C45   O30   S    
O5    V1    S    
O17   C7    A    
O6    V2    S    
C48   N2    T    
C18   H6    S    
O18   C8    A    
C17   C22   S    
O2    V4    S    
C9    C15   S    
O15   C5    A    
C9    C43   S    
V3    O19   S    
C50   N4    T    
V4    O20   S    
C23   C47   S    
C26   C32   S    
C25   H9    S    
O9    C5    A    
C9    C11   S    
C10   C12   S    
C26   C28   S    
C33   H11   S    
C32   C50   S    
O2    C4    A    
C1    C30   S    
C2    C29   S    
C41   O21   D    
O4    V2    S    
C20   C22   S    
C33   C39   S    
C3    C38   S    
C34   C36   S    
C36   C39   S    
C43   O26   S    
C19   C45   S    
C21   C23   S    
O26   H17   S    
O12   V4    S    
C31   C49   S    
