data_mof_unit_35197.cif
_audit_creation_date              2012-12-10T16:57:48-0500
_audit_creation_method            fapswitch 2.2
_symmetry_space_group_name_H-M    P1
_symmetry_Int_Tables_number       1
_space_group_crystal_system       triclinic
_cell_length_a                    7.760844
_cell_length_b                    8.577528
_cell_length_c                    19.092866
_cell_angle_alpha                 90.950411
_cell_angle_beta                  85.79007
_cell_angle_gamma                 93.666976
_cell_volume                      1264.87539117

loop_
_atom_site_label
_atom_site_type_symbol
_atom_type_description
_atom_site_fract_x
_atom_site_fract_y
_atom_site_fract_z
_atom_type_partial_charge
C1    C     C_R   0.545835 0.794778 0.498191 0.971795
C2    C     C_R   0.612328 0.389452 0.179031 -0.203161
C3    C     C_R   0.491143 0.416383 0.852854 0.019407
C4    C     C_R   0.478337 0.451002 0.145230 0.022967
C5    C     C_R   0.629162 0.363539 0.808121 0.234719
C6    C     C_R   0.348454 0.531068 0.184219 0.235811
C7    C     C_R   0.633464 0.395006 0.736583 -0.204919
C8    C     C_R   0.355613 0.545538 0.256845 -0.209196
C9    C     C_R   0.502353 0.476198 0.709700 -0.078024
C10   C     C_R   0.491161 0.484664 0.289960 -0.077923
C11   C     C_R   0.481181 0.432036 0.069512 0.270332
C12   C     C_R   0.454167 0.205223 0.501823 0.968912
C13   C     C_R   0.489675 0.406376 0.928706 0.269018
C14   C     C_3   0.930406 0.343642 0.830760 -0.754471
C15   C     C_3   0.045807 0.534756 0.161876 -0.754084
C16   C     C_2   0.569982 0.958244 0.497167 -0.382432
C17   C     C_2   0.430024 0.041765 0.502876 -0.380011
C18   C     C_R   0.501598 0.497299 0.634475 0.871947
C19   C     C_R   0.497663 0.498150 0.365534 0.872803
C20   C     C_R   0.365120 0.525736 0.754239 -0.199990
C21   C     C_R   0.619420 0.406890 0.250826 -0.199641
C22   C     C_R   0.360112 0.496593 0.825397 -0.200833
H1    H     H_    0.262384 0.587969 0.734148 0.160705
H2    H     H_    0.986266 0.617618 0.552576 0.191458
H3    H     H_    0.721567 0.210394 0.878721 0.236278
H4    H     H_    0.020512 0.260393 0.849329 0.248732
H5    H     H_    0.933656 0.449094 0.865328 0.247440
H6    H     H_    0.975802 0.377159 0.776254 0.240024
H7    H     H_    0.250974 0.644693 0.100818 0.238663
H8    H     H_    0.953298 0.606049 0.136884 0.251107
H9    H     H_    0.005310 0.526448 0.218771 0.240191
H10   H     H_    0.040726 0.415989 0.137696 0.245967
H11   H     H_    0.723868 0.357278 0.275838 0.161132
H12   H     H_    0.255984 0.540882 0.859429 0.161403
H13   H     H_    0.711509 0.326777 0.149724 0.160775
H14   H     H_    0.735939 0.350768 0.701622 0.165773
H15   H     H_    0.258253 0.608550 0.287112 0.164090
H16   H     H_    0.702152 0.009332 0.491725 0.180295
H17   H     H_    0.297854 0.990681 0.508321 0.180429
H18   H     H_    0.013732 0.382386 0.447420 0.190906
N1    N     N_R   0.637355 0.440458 0.960907 -0.168549
N2    N     N_R   0.333708 0.395025 0.037503 -0.170457
N3    N     N_R   0.633383 0.452008 0.030301 -0.174723
N4    N     N_R   0.337699 0.383580 0.968008 -0.176291
N5    N     N_2   0.950330 0.457950 0.481240 -0.175998
N6    N     N_2   0.049670 0.542050 0.518760 -0.175601
N7    N     N_2   0.757015 0.270296 0.833027 -0.312699
N8    N     N_2   0.218694 0.607862 0.151452 -0.312461
O1    O     O_R   0.389250 0.738570 0.504600 -0.611793
O2    O     O_R   0.610750 0.261430 0.495400 -0.613647
O3    O     O_R   0.678400 0.711620 0.492580 -0.626931
O4    O     O_R   0.321600 0.288380 0.507420 -0.627917
O5    O     O_R   0.355380 0.513500 0.607880 -0.617408
O6    O     O_R   0.644620 0.486500 0.392120 -0.618780
O7    O     O_R   0.644530 0.486550 0.595850 -0.629467
O8    O     O_R   0.355470 0.513450 0.404150 -0.627604
Zn1   Zn    Zn3+2 0.306930 0.517990 0.508030 0.941876
Zn2   Zn    Zn3+2 0.693070 0.482010 0.491970 0.940060

loop_
_geom_bond_atom_site_label_1
_geom_bond_atom_site_label_2
_ccdc_geom_bond_type
C19   O8    A    
C2    H13   S    
C2    C4    A    
N2    N4    A    
C15   H9    S    
C14   N7    S    
C14   H5    S    
C1    O3    A    
C7    H14   S    
H3    N7    S    
C9    C20   A    
C12   O2    A    
C3    C13   S    
C20   H1    S    
C10   C19   S    
H2    N6    S    
C9    C18   S    
C2    C21   A    
C13   N1    A    
C15   H10   S    
C10   C21   A    
C1    C16   S    
N5    N6    D    
C14   H4    S    
C4    C11   S    
C11   N3    A    
C5    N7    S    
C6    N8    S    
C15   N8    S    
C15   H8    S    
C18   O7    A    
C19   O6    A    
C4    C6    A    
C12   O4    A    
C20   C22   A    
C5    C7    A    
N6    Zn1   S    
C17   H17   S    
H18   N5    S    
C22   H12   S    
N5    Zn2   S    
C21   H11   S    
C8    H15   S    
H7    N8    S    
O4    Zn1   S    
O2    Zn2   S    
C7    C9    A    
C12   C17   S    
O1    Zn1   S    
O8    Zn1   S    
C11   N2    A    
C8    C10   A    
O6    Zn2   S    
O7    Zn2   S    
O3    Zn2   S    
O5    Zn1   S    
C3    C22   A    
C6    C8    A    
C18   O5    A    
C14   H6    S    
C1    O1    A    
C13   N4    A    
N1    N3    A    
C16   H16   S    
C16   C17   D    
C3    C5    A    
