data_mof_unit_62316.cif
_audit_creation_date              2012-12-10T21:23:35-0500
_audit_creation_method            fapswitch 2.2
_symmetry_space_group_name_H-M    P1
_symmetry_Int_Tables_number       1
_space_group_crystal_system       monoclinic
_cell_length_a                    25.429398
_cell_length_b                    24.238109
_cell_length_c                    16.856788
_cell_angle_alpha                 90.000039
_cell_angle_beta                  90.0
_cell_angle_gamma                 90.0
_cell_volume                      10389.8586261

loop_
_atom_site_label
_atom_site_type_symbol
_atom_type_description
_atom_site_fract_x
_atom_site_fract_y
_atom_site_fract_z
_atom_type_partial_charge
C1    C     C_R   0.075525 0.428793 0.499801 0.924345
C2    C     C_R   0.924475 0.571207 0.499801 0.924346
C3    C     C_R   0.924475 0.428793 0.500199 0.924348
C4    C     C_R   0.075525 0.571207 0.500199 0.924346
C5    C     C_R   0.575525 0.928793 0.499801 0.924346
C6    C     C_R   0.424475 0.071207 0.499801 0.924346
C7    C     C_R   0.424475 0.928793 0.500199 0.924346
C8    C     C_R   0.575525 0.071207 0.500199 0.924346
C9    C     C_R   0.992161 0.451740 0.749201 0.310610
C10   C     C_R   0.992161 0.548260 0.250799 0.310610
C11   C     C_R   0.007839 0.548260 0.749201 0.310611
C12   C     C_R   0.007839 0.451740 0.250799 0.310611
C13   C     C_R   0.492161 0.951740 0.749201 0.310611
C14   C     C_R   0.492161 0.048260 0.250799 0.310610
C15   C     C_R   0.507839 0.048260 0.749201 0.310611
C16   C     C_R   0.507839 0.951740 0.250799 0.310611
C17   C     C_R   1.000000 0.500000 0.876230 -0.145193
C18   C     C_R   1.000000 0.500000 0.123770 -0.145193
C19   C     C_R   0.500000 0.000000 0.876230 -0.145193
C20   C     C_R   0.500000 0.000000 0.123770 -0.145193
C21   C     C_1   1.000000 0.500000 0.963699 0.198522
C22   C     C_1   1.000000 0.500000 0.036301 0.198521
C23   C     C_1   0.500000 0.000000 0.963699 0.198521
C24   C     C_1   0.500000 1.000000 0.036301 0.198521
C25   C     C_R   0.191890 0.646809 0.586237 -0.059330
C26   C     C_R   0.834203 0.308078 0.461551 -0.062060
C27   C     C_R   0.808110 0.353191 0.586237 -0.059331
C28   C     C_R   0.165798 0.691921 0.461551 -0.062061
C29   C     C_R   0.808109 0.646808 0.413764 -0.059330
C30   C     C_R   0.165797 0.308078 0.538448 -0.062060
C31   C     C_R   0.191890 0.353191 0.413763 -0.059331
C32   C     C_R   0.834203 0.691923 0.538447 -0.062058
C33   C     C_R   0.691890 0.146808 0.586237 -0.059330
C34   C     C_R   0.334202 0.808078 0.461551 -0.062060
C35   C     C_R   0.308110 0.853192 0.586237 -0.059330
C36   C     C_R   0.665798 0.191921 0.461551 -0.062059
C37   C     C_R   0.308110 0.146808 0.413763 -0.059330
C38   C     C_R   0.665797 0.808078 0.538448 -0.062060
C39   C     C_R   0.691890 0.853191 0.413763 -0.059331
C40   C     C_R   0.334202 0.191922 0.538448 -0.062060
C41   C     C_R   0.156359 0.603637 0.570474 -0.059135
C42   C     C_R   0.869309 0.351483 0.445485 -0.106468
C43   C     C_R   0.843641 0.396364 0.570474 -0.059132
C44   C     C_R   0.130691 0.648516 0.445484 -0.106467
C45   C     C_R   0.843640 0.603636 0.429527 -0.059133
C46   C     C_R   0.130691 0.351483 0.554515 -0.106468
C47   C     C_R   0.156359 0.396364 0.429526 -0.059135
C48   C     C_R   0.869310 0.648518 0.554514 -0.106469
C49   C     C_R   0.656359 0.103636 0.570474 -0.059135
C50   C     C_R   0.369309 0.851483 0.445485 -0.106467
C51   C     C_R   0.343640 0.896364 0.570474 -0.059134
C52   C     C_R   0.630691 0.148517 0.445485 -0.106467
C53   C     C_R   0.343640 0.103636 0.429526 -0.059134
C54   C     C_R   0.630691 0.851483 0.554515 -0.106467
C55   C     C_R   0.656359 0.896363 0.429526 -0.059135
C56   C     C_R   0.369309 0.148517 0.554515 -0.106468
C57   C     C_R   0.122557 0.606997 0.503242 -0.092719
C58   C     C_R   0.877443 0.393003 0.503242 -0.092719
C59   C     C_R   0.877443 0.606997 0.496758 -0.092720
C60   C     C_R   0.122557 0.393003 0.496758 -0.092720
C61   C     C_R   0.622557 0.106997 0.503242 -0.092719
C62   C     C_R   0.377443 0.893003 0.503242 -0.092720
C63   C     C_R   0.377443 0.106997 0.496758 -0.092719
C64   C     C_R   0.622556 0.893003 0.496758 -0.092719
C65   C     C_R   0.194504 0.691356 0.533103 0.007067
C66   C     C_R   0.805496 0.308644 0.533103 0.007066
C67   C     C_R   0.805496 0.691356 0.466897 0.007065
C68   C     C_R   0.194504 0.308644 0.466897 0.007066
C69   C     C_R   0.694504 0.191355 0.533103 0.007066
C70   C     C_R   0.305496 0.808645 0.533103 0.007066
C71   C     C_R   0.305496 0.191356 0.466897 0.007067
C72   C     C_R   0.694504 0.808644 0.466897 0.007066
C73   C     C_1   0.233459 0.732713 0.544228 -0.077708
C74   C     C_1   0.766541 0.267287 0.544228 -0.077708
C75   C     C_1   0.766540 0.732712 0.455771 -0.077709
C76   C     C_1   0.233460 0.267288 0.455771 -0.077708
C77   C     C_1   0.733460 0.232712 0.544228 -0.077708
C78   C     C_1   0.266540 0.767288 0.544228 -0.077709
C79   C     C_1   0.266540 0.232712 0.455771 -0.077708
C80   C     C_1   0.733459 0.767287 0.455771 -0.077708
C81   C     C_R   0.991769 0.451132 0.833436 0.180477
C82   C     C_R   0.991770 0.548868 0.166564 0.180476
C83   C     C_R   0.008230 0.548868 0.833436 0.180477
C84   C     C_R   0.008230 0.451132 0.166564 0.180476
C85   C     C_R   0.491770 0.951132 0.833436 0.180476
C86   C     C_R   0.491770 0.048868 0.166564 0.180476
C87   C     C_R   0.508230 0.048868 0.833436 0.180476
C88   C     C_R   0.508230 0.951132 0.166564 0.180476
N1    N     N_R   0.000000 0.500000 0.707230 -0.164185
N2    N     N_R   1.000000 0.500000 0.292770 -0.164185
N3    N     N_R   0.500000 0.000000 0.707230 -0.164185
N4    N     N_R   0.500000 0.000000 0.292770 -0.164185
O1    O     O_R   0.055440 0.444550 0.566570 -0.553952
O2    O     O_R   0.944560 0.555450 0.433430 -0.604348
O3    O     O_R   0.944560 0.555450 0.566570 -0.553952
O4    O     O_R   0.055440 0.444550 0.433430 -0.604348
O5    O     O_R   0.944560 0.444550 0.433430 -0.553952
O6    O     O_R   0.055440 0.555450 0.566570 -0.604348
O7    O     O_R   0.055440 0.555450 0.433430 -0.553952
O8    O     O_R   0.944560 0.444550 0.566570 -0.604348
O9    O     O_R   0.555440 0.944550 0.566570 -0.553952
O10   O     O_R   0.444560 0.055450 0.433430 -0.604348
O11   O     O_R   0.444560 0.055450 0.566570 -0.553951
O12   O     O_R   0.555440 0.944550 0.433430 -0.604348
O13   O     O_R   0.444560 0.944550 0.433430 -0.553952
O14   O     O_R   0.555440 0.055450 0.566570 -0.604348
O15   O     O_R   0.555440 0.055450 0.433430 -0.553952
O16   O     O_R   0.444560 0.944550 0.566570 -0.604348
Zn1   Zn    Zn3+2 0.000000 0.500000 0.588860 1.078693
Zn2   Zn    Zn3+2 1.000000 0.500000 0.411140 1.078693
Zn3   Zn    Zn3+2 0.500000 0.000000 0.588860 1.078693
Zn4   Zn    Zn3+2 0.500000 0.000000 0.411140 1.078693
C89   C     C_2   0.227665 0.645970 0.656630 0.418369
H1    H     H_    0.238876 0.684386 0.685070 0.093391
O17   O     O_2   0.246790 0.603082 0.681328 -0.519731
C90   C     C_2   0.826209 0.261823 0.403816 0.418339
H2    H     H_    0.816934 0.220732 0.425199 0.102776
O18   O     O_2   0.827898 0.269347 0.332246 -0.489120
C91   C     C_2   0.772334 0.354031 0.656629 0.418369
H3    H     H_    0.761123 0.315615 0.685069 0.093391
O19   O     O_2   0.753209 0.396919 0.681326 -0.519731
C92   C     C_2   0.173792 0.738175 0.403815 0.418336
H4    H     H_    0.183067 0.779267 0.425197 0.102776
O20   O     O_2   0.172104 0.730650 0.332244 -0.489118
C93   C     C_2   0.772332 0.645967 0.343372 0.418367
H5    H     H_    0.761121 0.684383 0.314932 0.093391
O21   O     O_2   0.753208 0.603079 0.318677 -0.519730
C94   C     C_2   0.173791 0.261823 0.596183 0.418338
H6    H     H_    0.183066 0.220732 0.574801 0.102776
O22   O     O_2   0.172102 0.269348 0.667754 -0.489119
C95   C     C_2   0.227666 0.354031 0.343370 0.418369
H7    H     H_    0.238877 0.315615 0.314931 0.093391
O23   O     O_2   0.246791 0.396919 0.318674 -0.519731
C96   C     C_2   0.826210 0.738178 0.596181 0.418341
H8    H     H_    0.816934 0.779269 0.574798 0.102776
O24   O     O_2   0.827901 0.730656 0.667752 -0.489120
C97   C     C_2   0.727666 0.145969 0.656629 0.418368
H9    H     H_    0.738877 0.184384 0.685069 0.093391
O25   O     O_2   0.746791 0.103080 0.681326 -0.519730
C98   C     C_2   0.326209 0.761824 0.403816 0.418339
H10   H     H_    0.316933 0.720733 0.425199 0.102776
O26   O     O_2   0.327898 0.769348 0.332245 -0.489118
C99   C     C_2   0.272333 0.854032 0.656629 0.418368
H11   H     H_    0.261123 0.815616 0.685069 0.093391
O27   O     O_2   0.253209 0.896920 0.681325 -0.519730
C100  C     C_2   0.673792 0.238176 0.403816 0.418338
H12   H     H_    0.683067 0.279267 0.425198 0.102776
O28   O     O_2   0.672103 0.230651 0.332245 -0.489118
C101  C     C_2   0.272334 0.145968 0.343371 0.418368
H13   H     H_    0.261123 0.184384 0.314931 0.093391
O29   O     O_2   0.253209 0.103080 0.318674 -0.519730
C102  C     C_2   0.673791 0.761823 0.596183 0.418338
H14   H     H_    0.683066 0.720732 0.574801 0.102776
O30   O     O_2   0.672102 0.769347 0.667754 -0.489120
C103  C     C_2   0.727666 0.854031 0.343370 0.418368
H15   H     H_    0.738876 0.815615 0.314930 0.093391
O31   O     O_2   0.746790 0.896919 0.318674 -0.519731
C104  C     C_2   0.326209 0.238176 0.596183 0.418339
H16   H     H_    0.316933 0.279268 0.574801 0.102776
O32   O     O_2   0.327898 0.230653 0.667754 -0.489119
C105  C     C_2   0.154871 0.555097 0.624451 0.595450
H17   H     H_    0.155755 0.560797 0.688282 0.099312
O33   O     O_2   0.153978 0.508317 0.597696 -0.513483
C106  C     C_2   0.897811 0.351977 0.369134 0.603384
H18   H     H_    0.922233 0.317115 0.352609 0.090100
O34   O     O_2   0.891140 0.389615 0.322045 -0.462104
C107  C     C_2   0.845129 0.444903 0.624451 0.595448
H19   H     H_    0.844244 0.439203 0.688281 0.099311
O35   O     O_2   0.846022 0.491683 0.597695 -0.513484
C108  C     C_2   0.102190 0.648022 0.369133 0.603386
H20   H     H_    0.077769 0.682885 0.352607 0.090100
O36   O     O_2   0.108861 0.610383 0.322045 -0.462105
C109  C     C_2   0.845128 0.555095 0.375551 0.595449
H21   H     H_    0.844243 0.560795 0.311720 0.099310
O37   O     O_2   0.846021 0.508316 0.402307 -0.513485
C110  C     C_2   0.102189 0.351977 0.630865 0.603385
H22   H     H_    0.077767 0.317114 0.647390 0.090100
O38   O     O_2   0.108860 0.389615 0.677955 -0.462103
C111  C     C_2   0.154871 0.444904 0.375550 0.595449
H23   H     H_    0.155756 0.439204 0.311719 0.099311
O39   O     O_2   0.153978 0.491683 0.402305 -0.513483
C112  C     C_2   0.897813 0.648025 0.630863 0.603385
H24   H     H_    0.922235 0.682887 0.647386 0.090099
O40   O     O_2   0.891141 0.610388 0.677955 -0.462102
C113  C     C_2   0.654871 0.055096 0.624451 0.595450
H25   H     H_    0.655755 0.060796 0.688281 0.099311
O41   O     O_2   0.653978 0.008316 0.597696 -0.513484
C114  C     C_2   0.397811 0.851977 0.369135 0.603384
H26   H     H_    0.422233 0.817114 0.352610 0.090099
O42   O     O_2   0.391140 0.889614 0.322045 -0.462103
C115  C     C_2   0.345129 0.944904 0.624450 0.595449
H27   H     H_    0.344244 0.939204 0.688281 0.099311
O43   O     O_2   0.346022 0.991684 0.597695 -0.513484
C116  C     C_2   0.602189 0.148022 0.369134 0.603385
H28   H     H_    0.577768 0.182885 0.352609 0.090099
O44   O     O_2   0.608861 0.110384 0.322045 -0.462103
C117  C     C_2   0.345129 0.055096 0.375550 0.595450
H29   H     H_    0.344244 0.060796 0.311719 0.099311
O45   O     O_2   0.346021 0.008316 0.402305 -0.513484
C118  C     C_2   0.602189 0.851977 0.630865 0.603384
H30   H     H_    0.577768 0.817114 0.647391 0.090100
O46   O     O_2   0.608860 0.889615 0.677955 -0.462103
C119  C     C_2   0.654871 0.944903 0.375549 0.595449
H31   H     H_    0.655756 0.939204 0.311719 0.099311
O47   O     O_2   0.653978 0.991683 0.402305 -0.513484
C120  C     C_2   0.397811 0.148023 0.630865 0.603384
H32   H     H_    0.422233 0.182886 0.647390 0.090099
O48   O     O_2   0.391140 0.110385 0.677955 -0.462103
Br1   Br    Br    0.979817 0.383303 0.890738 -0.288287
Br2   Br    Br    0.979818 0.616697 0.109262 -0.288287
Br3   Br    Br    0.020183 0.616696 0.890739 -0.288285
Br4   Br    Br    0.020182 0.383303 0.109261 -0.288287
Br5   Br    Br    0.479818 0.883303 0.890738 -0.288287
Br6   Br    Br    0.479818 0.116696 0.109262 -0.288287
Br7   Br    Br    0.520182 0.116696 0.890738 -0.288287
Br8   Br    Br    0.520182 0.883304 0.109261 -0.288287
Br9   Br    Br    0.981504 0.382597 0.696083 -0.439093
Br10  Br    Br    0.981505 0.617403 0.303916 -0.439093
Br11  Br    Br    0.018496 0.617403 0.696084 -0.439091
Br12  Br    Br    0.018496 0.382597 0.303916 -0.439093
Br13  Br    Br    0.481504 0.882597 0.696084 -0.439093
Br14  Br    Br    0.481504 0.117403 0.303916 -0.439093
Br15  Br    Br    0.518495 0.117403 0.696084 -0.439092
Br16  Br    Br    0.518496 0.882597 0.303916 -0.439093

loop_
_geom_bond_atom_site_label_1
_geom_bond_atom_site_label_2
_ccdc_geom_bond_type
C81   Br1   S    
C119  H31   S    
C40   C71   A    
C4    O6    A    
C103  O31   D    
O15   Zn4   S    
O10   Zn4   S    
C76   C79   T    
C50   C114  S    
C94   H6    S    
C42   C58   A    
C71   C79   S    
C105  H17   S    
C113  H25   S    
C65   C73   S    
C107  O35   D    
C38   C72   A    
C109  H21   S    
C97   O25   D    
C10   Br10  S    
C54   C64   A    
C114  O42   D    
C106  H18   S    
C98   O26   D    
C100  H12   S    
C85   Br5   S    
C52   C61   A    
C101  O29   D    
C42   C106  S    
C113  O41   D    
C70   C78   S    
C108  H20   S    
C33   C49   A    
C99   H11   S    
C66   C74   S    
N1    Zn1   S    
C54   C118  S    
C90   H2    S    
C12   C84   A    
O11   Zn3   S    
N3    Zn3   S    
C117  O45   D    
C11   N1    A    
C112  H24   S    
C47   C111  S    
C43   C58   A    
C47   C60   A    
C29   C67   A    
C69   C77   S    
C3    O8    A    
C30   C94   S    
C39   C55   A    
C20   C24   S    
C35   C70   A    
C33   C97   S    
C118  H30   S    
C40   C56   A    
C74   C77   T    
C20   C86   A    
C4    C57   S    
C31   C95   S    
C39   C72   A    
C7    O13   A    
C56   C120  S    
O1    Zn1   S    
C75   C80   T    
C34   C70   A    
C11   Br11  S    
C36   C52   A    
C33   C69   A    
C8    C61   S    
C37   C53   A    
C110  O38   D    
C116  H28   S    
C5    O12   A    
O8    Zn1   S    
O6    Zn1   S    
C31   C47   A    
C21   C22   T    
C13   N3    A    
C104  O32   D    
C32   C48   A    
C51   C62   A    
C38   C102  S    
C105  O33   D    
C14   Br14  S    
C100  O28   D    
O14   Zn3   S    
C91   O19   D    
C31   C68   A    
C5    O9    A    
C34   C50   A    
C49   C61   A    
C8    O14   A    
C115  H27   S    
C26   C66   A    
C2    O2    A    
C25   C65   A    
C98   H10   S    
C14   C86   A    
O3    Zn1   S    
C1    C60   S    
C25   C41   A    
C107  H19   S    
O12   Zn4   S    
C120  H32   S    
N4    Zn4   S    
C96   O24   D    
C13   C85   A    
C95   O23   D    
O7    Zn2   S    
O4    Zn2   S    
C28   C44   A    
C1    O1    A    
C17   C21   S    
C5    C64   S    
C29   C45   A    
C114  H26   S    
C17   C83   A    
C6    C63   S    
C19   C23   S    
C86   Br6   S    
C7    C62   S    
C25   C89   S    
C119  O47   D    
C3    O5    A    
C18   C84   A    
C38   C54   A    
C44   C57   A    
C73   C78   T    
C55   C119  S    
C55   C64   A    
C115  O43   D    
C56   C63   A    
C52   C116  S    
C6    O11   A    
C93   O21   D    
C14   N4    A    
C109  O37   D    
C90   O18   D    
C32   C67   A    
C36   C100  S    
C110  H22   S    
O13   Zn4   S    
C102  O30   D    
C16   N4    A    
C43   C107  S    
C37   C71   A    
C35   C51   A    
C93   H5    S    
C50   C62   A    
C46   C110  S    
C16   Br16  S    
C44   C108  S    
C67   C75   S    
N2    Zn2   S    
C9    N1    A    
C95   H7    S    
C8    O15   A    
C116  O44   D    
C51   C115  S    
C36   C69   A    
C26   C42   A    
C48   C59   A    
C15   C87   A    
C89   H1    S    
C28   C92   S    
C9    Br9   S    
C99   O27   D    
C2    O3    A    
C88   Br8   S    
C112  O40   D    
C46   C60   A    
C2    C59   S    
C30   C46   A    
C13   Br13  S    
C19   C85   A    
C94   O22   D    
C12   N2    A    
C10   C82   A    
C91   H3    S    
C84   Br4   S    
C96   H8    S    
C27   C91   S    
C68   C76   S    
C97   H9    S    
C39   C103  S    
C19   C87   A    
O16   Zn3   S    
C53   C117  S    
C18   C22   S    
C28   C65   A    
C37   C101  S    
C41   C57   A    
C72   C80   S    
C27   C66   A    
C30   C68   A    
C101  H13   S    
C48   C112  S    
O5    Zn2   S    
C53   C63   A    
C11   C83   A    
C41   C105  S    
C104  H16   S    
C89   O17   D    
C108  O36   D    
C1    O4    A    
O9    Zn3   S    
C20   C88   A    
C106  O34   D    
C18   C82   A    
O2    Zn2   S    
C17   C81   A    
C6    O10   A    
C15   Br15  S    
C117  H29   S    
C26   C90   S    
C40   C104  S    
C23   C24   T    
C15   N3    A    
C111  H23   S    
C3    C58   S    
C27   C43   A    
C45   C109  S    
C49   C113  S    
C102  H14   S    
C10   N2    A    
C45   C59   A    
C4    O7    A    
C35   C99   S    
C103  H15   S    
C16   C88   A    
C87   Br7   S    
C7    O16   A    
C32   C96   S    
C111  O39   D    
C92   H4    S    
C29   C93   S    
C120  O48   D    
C92   O20   D    
C12   Br12  S    
C118  O46   D    
C83   Br3   S    
C9    C81   A    
C82   Br2   S    
C34   C98   S    
