data_mof_unit_21361.cif
_audit_creation_date              2012-12-10T19:43:16-0500
_audit_creation_method            fapswitch 2.2
_symmetry_space_group_name_H-M    P1
_symmetry_Int_Tables_number       1
_space_group_crystal_system       triclinic
_cell_length_a                    18.435111
_cell_length_b                    18.293556
_cell_length_c                    18.237095
_cell_angle_alpha                 119.093035
_cell_angle_beta                  90.013637
_cell_angle_gamma                 59.705086
_cell_volume                      4388.89621912

loop_
_atom_site_label
_atom_site_type_symbol
_atom_type_description
_atom_site_fract_x
_atom_site_fract_y
_atom_site_fract_z
_atom_type_partial_charge
C1    C     C_R   0.860093 0.779473 0.641400 0.552208
C2    C     C_R   0.405664 0.227549 0.647924 -0.106919
C3    C     C_R   0.329256 0.232771 0.635328 -0.076229
C4    C     C_R   0.137055 0.219859 0.360156 0.554853
C5    C     C_R   0.248647 0.328298 0.666537 0.304273
C6    C     C_R   0.220520 0.048739 0.336908 -0.040079
C7    C     C_R   0.183254 0.108552 0.303376 -0.022705
C8    C     C_R   0.193113 0.056413 0.211502 0.221634
C9    C     C_R   0.262946 0.950674 0.154418 0.216448
C10   C     C_R   0.299957 0.892221 0.191959 -0.029390
C11   C     C_R   0.270065 0.943789 0.283760 -0.080301
C12   C     C_R   0.200086 0.697015 0.905305 -0.073442
C13   C     C_3   0.319766 0.932312 0.346749 -0.191971
C14   C     C_3   0.266731 0.048677 0.404685 0.160032
C15   C     C_R   0.222642 0.563522 0.338967 -0.022123
C16   C     C_R   0.860626 0.497982 0.638857 0.578904
C17   C     C_R   0.203428 0.491116 0.303040 0.025875
C18   C     C_R   0.247368 0.410691 0.211614 0.235099
C19   C     C_R   0.302240 0.411644 0.159004 -0.127213
C20   C     C_R   0.311688 0.492746 0.195646 -0.017072
C21   C     C_R   0.276851 0.563523 0.287220 -0.035051
C22   C     C_3   0.227613 0.677683 0.343134 -0.228825
C23   C     C_R   0.223631 0.601836 0.830296 0.001876
C24   C     C_3   0.166502 0.678335 0.400441 0.163248
C25   C     C_R   0.835791 0.948888 0.726502 -0.031412
C26   C     C_R   0.802703 0.890310 0.702036 -0.010300
C27   C     C_R   0.709878 0.942862 0.739057 0.253763
C28   C     C_R   0.141187 0.498462 0.359842 0.524372
C29   C     C_R   0.652452 0.051365 0.786827 0.236048
C30   C     C_R   0.690993 0.108336 0.809300 -0.029465
C31   C     C_R   0.783016 0.052068 0.780606 -0.043630
C32   C     C_3   0.858585 0.061451 0.776375 0.131558
C33   C     C_3   0.919041 0.943110 0.715091 0.182188
C34   C     C_R   0.166507 0.602012 0.778277 0.006352
C35   C     C_R   0.722112 0.586857 0.329242 -0.023941
C36   C     C_R   0.804438 0.498855 0.304821 0.009313
C37   C     C_R   0.832859 0.408071 0.222334 -0.136362
C38   C     C_R   0.778740 0.408362 0.167943 -0.117975
C39   C     C_R   0.696776 0.500120 0.194054 0.020916
C40   C     C_R   0.860134 0.500142 0.360350 0.542257
C41   C     C_R   0.672898 0.588669 0.274098 -0.060048
C42   C     C_3   0.607369 0.703262 0.330080 0.187464
C43   C     C_3   0.662445 0.701422 0.394950 0.550752
C44   C     C_R   0.714428 0.554158 0.713867 -0.130679
C45   C     C_R   0.301422 0.506441 0.806467 -0.001692
C46   C     C_R   0.806137 0.498189 0.696588 0.020482
C47   C     C_R   0.842295 0.450346 0.741850 0.263018
C48   C     C_R   0.785581 0.463816 0.805665 0.237447
C49   C     C_R   0.694579 0.510548 0.813846 0.001750
C50   C     C_R   0.659373 0.562399 0.772800 -0.024469
C51   C     C_3   0.594807 0.566420 0.722017 0.535757
C52   C     C_R   0.136606 0.502180 0.643861 0.499239
C53   C     C_3   0.659478 0.551215 0.652640 0.156910
C54   C     C_R   0.360795 0.499303 0.139815 0.514100
C55   C     C_R   0.639548 0.502180 0.861735 0.550192
C56   C     C_R   0.318038 0.413676 0.736348 -0.039380
C57   C     C_R   0.361075 0.780338 0.139011 0.522860
C58   C     C_R   0.639087 0.220000 0.860710 0.545814
C59   C     C_R   0.640027 0.500442 0.139483 0.497766
C60   C     C_R   0.359227 0.501921 0.860896 0.477645
C61   C     C_R   0.090097 0.696959 0.800716 -0.097104
C62   C     C_R   0.071113 0.789299 0.872195 -0.108179
C63   C     C_R   0.125523 0.789276 0.924782 -0.073874
C64   C     C_3   0.363005 0.070864 0.342394 -0.079539
C65   C     C_3   0.187368 0.337690 0.118197 -0.050787
C66   C     C_3   0.056697 0.694456 0.326257 -0.064564
C67   C     C_R   0.249427 0.416092 0.702637 0.030454
C68   C     C_3   0.675643 0.873879 0.795867 -0.049151
C69   C     C_3   0.033583 0.905661 0.621452 -0.082617
C70   C     C_3   0.578785 0.735966 0.220750 -0.086749
C71   C     C_3   0.594862 0.675155 0.483043 -0.109468
C72   C     C_3   0.961497 0.284652 0.663501 -0.067436
C73   C     C_3   0.816770 0.494806 0.933332 -0.067877
C74   C     C_3   0.516876 0.494318 0.663560 0.003978
C75   C     C_3   0.504129 0.748888 0.791730 -0.128014
C76   C     C_3   0.164037 0.265735 0.617957 -0.059717
C77   C     C_R   0.182892 0.507513 0.710374 0.016361
C78   C     C_R   0.399424 0.317777 0.702166 -0.084845
H1    H     H_    0.332495 0.163202 0.605592 0.150711
H2    H     H_    0.854713 0.100271 0.743352 0.121810
H3    H     H_    0.965428 0.901913 0.741850 0.147678
H4    H     H_    0.896189 0.337172 0.200202 0.179555
H5    H     H_    0.800823 0.337170 0.106056 0.214704
H6    H     H_    0.012311 0.861125 0.888530 0.162787
H7    H     H_    0.538091 0.731053 0.357735 0.098442
H8    H     H_    0.634359 0.614839 0.644096 0.068355
H9    H     H_    0.109061 0.861107 0.981946 0.191397
H10   H     H_    0.237081 0.702462 0.951165 0.166484
H11   H     H_    0.457805 0.312181 0.718200 0.150463
H12   H     H_    0.302670 0.900870 0.377326 0.113730
H13   H     H_    0.467671 0.154207 0.622794 0.187844
H14   H     H_    0.451305 0.773875 0.958889 0.385559
H15   H     H_    0.317264 0.133511 0.334594 0.128634
H16   H     H_    0.389284 0.995280 0.280264 0.118588
H17   H     H_    0.420495 0.074827 0.353022 0.159188
H18   H     H_    0.122629 0.414469 0.153121 0.111657
H19   H     H_    0.172540 0.280061 0.097037 0.203035
H20   H     H_    0.223998 0.320507 0.057283 0.107278
H21   H     H_    0.039083 0.642345 0.319660 0.137555
H22   H     H_    0.111036 0.654686 0.265924 0.086343
H23   H     H_    0.391932 0.892937 0.319006 0.152007
H24   H     H_    0.997679 0.759303 0.329199 0.163233
H25   H     H_    0.744500 0.829292 0.796358 0.076070
H26   H     H_    0.647766 0.829487 0.785509 0.142755
H27   H     H_    0.633574 0.948496 0.861408 0.151347
H28   H     H_    0.423103 0.222270 0.934348 0.359316
H29   H     H_    0.866886 0.236316 0.883550 0.348172
H30   H     H_    0.087499 0.844221 0.626647 0.124038
H31   H     H_    0.020417 0.980895 0.672763 0.119471
H32   H     H_    0.056723 0.890109 0.556213 0.171798
H33   H     H_    0.520392 0.734763 0.232117 0.121939
H34   H     H_    0.221064 0.080941 0.468065 0.100960
H35   H     H_    0.631163 0.664157 0.157748 0.118565
H36   H     H_    0.556650 0.800057 0.213351 0.139091
H37   H     H_    0.679867 0.912863 0.453879 0.358967
H38   H     H_    0.656353 0.607116 0.473460 0.137249
H39   H     H_    0.562502 0.651532 0.433730 0.085786
H40   H     H_    0.548373 0.717210 0.549713 0.159808
H41   H     H_    0.030625 0.232811 0.658493 0.110511
H42   H     H_    0.960607 0.267588 0.596185 0.143946
H43   H     H_    0.921327 0.265898 0.686595 0.159215
H44   H     H_    0.845507 0.460142 0.970769 0.161925
H45   H     H_    0.335058 0.350565 0.089251 0.157268
H46   H     H_    0.746488 0.560728 0.974497 0.092072
H47   H     H_    0.855751 0.521819 0.923341 0.141284
H48   H     H_    0.504847 0.528421 0.624482 0.153467
H49   H     H_    0.456930 0.542856 0.721975 0.162393
H50   H     H_    0.528359 0.418465 0.620690 0.135270
H51   H     H_    0.499593 0.754633 0.733840 0.122656
H52   H     H_    0.559748 0.750868 0.813495 0.098396
H53   H     H_    0.441920 0.818259 0.846973 0.212893
H54   H     H_    0.766321 0.443723 0.450786 0.339979
H55   H     H_    0.190360 0.201052 0.625483 0.093824
H56   H     H_    0.268661 0.701836 0.377967 0.113850
H57   H     H_    0.198563 0.240615 0.552196 0.179167
H58   H     H_    0.094061 0.297275 0.621400 0.197070
H59   H     H_    0.967549 0.192667 0.218983 0.359472
H60   H     H_    0.196043 0.713828 0.307315 0.147295
H61   H     H_    0.173984 0.702659 0.467156 0.130672
H62   H     H_    0.041728 0.701574 0.766519 0.131855
O1    O     O_3   0.000000 0.500000 0.500000 -0.478439
O2    O     O_R   0.676550 0.268320 0.884150 -0.504095
O3    O     O_R   0.555150 0.560600 0.176460 -0.567319
O4    O     O_R   0.944950 0.731580 0.615800 -0.533317
O5    O     O_R   0.384220 0.439220 0.884170 -0.519468
O6    O     O_R   0.676580 0.439170 0.055020 -0.502264
O7    O     O_R   0.384230 0.560650 0.884170 -0.549033
O8    O     O_R   0.384260 0.731500 0.055040 -0.482982
O9    O     O_R   0.555100 0.268330 0.884160 -0.460342
O10   O     O_R   0.384250 0.560620 0.176470 -0.536782
O11   O     O_R   0.676570 0.439190 0.884150 -0.502986
O12   O     O_R   0.944910 0.439280 0.615800 -0.516914
O13   O     O_R   0.115780 0.268410 0.444920 -0.575512
O14   O     O_R   0.823470 0.560720 0.615800 -0.537961
O15   O     O_R   0.115800 0.439290 0.323490 -0.503140
O16   O     O_R   0.823460 0.560740 0.444930 -0.509312
O17   O     O_R   0.115830 0.560690 0.615790 -0.562426
O18   O     O_R   0.944900 0.439310 0.323490 -0.508518
O19   O     O_R   0.115810 0.439260 0.615790 -0.516536
O20   O     O_2   0.290416 0.833639 0.979893 -0.262103
O21   O     O_2   0.288101 0.985819 0.030695 -0.195662
O22   O     O_3   0.426186 0.833766 0.020996 -0.546899
O23   O     O_R   0.115820 0.560710 0.444920 -0.526251
O24   O     O_3   0.320924 0.085869 0.418188 -0.584000
O25   O     O_3   0.239273 0.329849 0.174426 -0.520793
O26   O     O_3   0.075133 0.733866 0.406745 -0.528066
O27   O     O_3   0.674633 0.888019 0.726258 -0.462244
O28   O     O_2   0.495945 0.172898 0.775896 -0.287203
O29   O     O_2   0.512752 0.032874 0.776698 -0.213031
O30   O     O_3   0.487806 0.185734 0.924471 -0.514179
O31   O     O_2   0.835753 0.100972 0.941568 -0.260040
O32   O     O_2   0.977044 0.052853 0.865187 -0.290171
O33   O     O_3   0.836656 0.235104 0.927424 -0.468493
O34   O     O_R   0.823500 0.731590 0.615800 -0.464894
O35   O     O_3   0.956686 0.906762 0.627246 -0.526492
O36   O     O_3   0.614325 0.751129 0.291013 -0.499083
O37   O     O_2   0.770495 0.752245 0.469132 -0.250681
O38   O     O_2   0.783215 0.707379 0.317068 -0.289493
O39   O     O_3   0.644752 0.884261 0.445782 -0.456108
O40   O     O_3   0.612819 0.740717 0.480668 -0.518421
O41   O     O_3   0.932989 0.387364 0.722671 -0.529500
O42   O     O_3   0.822375 0.419752 0.851536 -0.534909
O43   O     O_3   0.591688 0.480531 0.691311 -0.507045
O44   O     O_3   0.508607 0.661909 0.773368 -0.576872
O45   O     O_R   0.115770 0.268420 0.323490 -0.456675
O46   O     O_2   0.760274 0.342982 0.560073 -0.223630
O47   O     O_2   0.652307 0.422015 0.498478 -0.306699
O48   O     O_3   0.796078 0.414749 0.484382 -0.504886
O49   O     O_3   0.167316 0.343981 0.687023 -0.530287
O50   O     O_2   0.128260 0.174502 0.147411 -0.208430
O51   O     O_2   0.107747 0.036591 0.090366 -0.254298
O52   O     O_3   0.010096 0.197998 0.250659 -0.527731
O53   O     O_3   0.500040 0.499910 0.999960 -0.472067
O54   O     O_R   0.384230 0.439200 0.055040 -0.536635
O55   O     O_R   0.555130 0.560630 0.884160 -0.519828
O56   O     O_R   0.384270 0.731490 0.176470 -0.570507
S1    S     S_3+6 0.315226 0.901394 0.043341 0.071855
S2    S     S_3+6 0.534970 0.109748 0.813554 0.061110
S3    S     S_3+6 0.878801 0.110943 0.880217 -0.005141
S4    S     S_3+6 0.719758 0.759996 0.405751 0.121885
S5    S     S_3+6 0.717026 0.428737 0.546852 0.021859
S6    S     S_3+6 0.109818 0.116148 0.171176 0.081482
Zn1   Zn    Zn3+2 0.043370 0.413240 0.543370 0.949021
Zn2   Zn    Zn3+2 0.869870 0.586760 0.543380 1.025104
Zn3   Zn    Zn3+2 0.043360 0.413260 0.369880 1.046973
Zn4   Zn    Zn3+2 0.043390 0.586740 0.543370 0.954135
Zn5   Zn    Zn3+2 0.456670 0.586670 0.956580 0.974919
Zn6   Zn    Zn3+2 0.456680 0.586650 0.130080 0.907626
Zn7   Zn    Zn3+2 0.630180 0.413150 0.956570 0.994566
Zn8   Zn    Zn3+2 0.456650 0.413170 0.956580 0.996794

loop_
_geom_bond_atom_site_label_1
_geom_bond_atom_site_label_2
_ccdc_geom_bond_type
C25   C31   A    
C55   O55   A    
C45   C60   S    
C42   C43   S    
O53   Zn5   S    
C38   H5    S    
C27   C29   A    
C41   C42   S    
C66   H24   S    
C35   C36   A    
C67   C77   A    
C68   H25   S    
C47   O41   S    
C3    H1    S    
H54   O48   S    
C76   H58   S    
C7    C8    A    
C39   C41   A    
C70   H36   S    
C54   O54   A    
C14   H34   S    
C12   C23   A    
C19   H45   S    
C26   C27   A    
C37   C38   A    
O28   S2    D    
C5    C67   A    
C22   H56   S    
C23   C45   A    
C40   O18   A    
C36   C37   A    
C72   O41   S    
C32   S3    S    
C51   O43   S    
C34   C77   A    
C30   C31   A    
C13   H12   S    
O33   S3    S    
O39   S4    S    
C44   C50   A    
C65   O25   S    
O48   S5    S    
C56   C78   A    
O32   S3    D    
C18   C19   A    
C66   H22   S    
O1    Zn4   S    
C54   O10   A    
O31   S3    D    
C76   O49   S    
O8    Zn5   S    
C69   H31   S    
C44   C53   S    
C69   H30   S    
C65   H18   S    
C74   H50   S    
C47   C48   A    
C45   C56   A    
C9    S1    S    
C8    C9    A    
O37   S4    D    
O54   Zn8   S    
C28   O15   A    
O1    Zn2   S    
O12   Zn1   S    
C53   H8    S    
O51   S6    D    
C72   H43   S    
C35   C43   S    
C9    C10   A    
C58   O9    A    
C64   O24   S    
C23   C34   A    
C52   O19   A    
C4    O13   A    
C59   O3    A    
C78   H11   S    
O53   Zn6   S    
C13   C14   S    
H28   O30   S    
C65   H20   S    
C2    H13   S    
C62   H6    S    
C4    C7    S    
C35   C41   A    
C75   O44   S    
C76   H57   S    
C44   C46   A    
C50   C51   S    
C6    C7    A    
O4    Zn4   S    
C24   H61   S    
C38   C39   A    
C43   O40   S    
C74   H49   S    
C1    O34   A    
C71   H39   S    
C57   O56   A    
O45   Zn3   S    
C36   C40   S    
C10   C57   S    
O9    Zn8   S    
C64   H17   S    
C20   C54   S    
C51   O44   S    
C10   C11   A    
C16   C46   S    
C6    C11   A    
C12   C63   A    
C12   H10   S    
O50   S6    D    
C74   O43   S    
H29   O33   S    
C18   O25   S    
C25   C26   A    
C49   C55   S    
C34   C61   A    
C53   S5    S    
O46   S5    D    
C51   C53   S    
C71   O40   S    
O56   Zn6   S    
C24   O26   S    
C68   O27   S    
C62   C63   A    
C2    C78   A    
C32   H2    S    
H59   O52   S    
C69   H32   S    
C58   O2    A    
O19   Zn1   S    
O3    Zn6   S    
O22   S1    S    
C73   H46   S    
C39   C59   S    
C72   H42   S    
O34   Zn2   S    
C17   C18   A    
C16   O12   A    
C42   H7    S    
O7    Zn5   S    
C43   S4    S    
O15   Zn3   S    
C48   C49   A    
C60   O7    A    
C29   S2    S    
O53   Zn8   S    
C16   O14   A    
C1    C26   S    
C22   C24   S    
C37   H4    S    
C68   H27   S    
C13   H23   S    
C52   C77   S    
O16   Zn2   S    
O30   S2    S    
O6    Zn7   S    
O5    Zn8   S    
H14   O22   S    
C52   O17   A    
C15   C17   A    
O38   S4    D    
C46   C47   A    
C15   C24   S    
O11   Zn7   S    
C71   H40   S    
C63   H9    S    
O18   Zn3   S    
C70   H35   S    
C73   H44   S    
C31   C32   S    
O17   Zn4   S    
O1    Zn1   S    
C66   O26   S    
C3    C5    A    
C66   H21   S    
C64   H15   S    
O14   Zn2   S    
C76   H55   S    
C75   H52   S    
C61   H62   S    
C55   O11   A    
O20   S1    D    
C56   C67   A    
O47   S5    D    
O23   Zn4   S    
O21   S1    D    
C32   C33   S    
C19   C20   A    
C68   H26   S    
C2    C3    A    
O10   Zn6   S    
C6    C14   S    
C1    O4    A    
C42   O36   S    
C48   O42   S    
C73   O42   S    
C11   C13   S    
C22   H60   S    
C74   H48   S    
C33   H3    S    
C17   C28   S    
O53   Zn7   S    
C73   H47   S    
C30   C58   S    
C72   H41   S    
C8    S6    S    
C71   H38   S    
C64   H16   S    
C14   O24   S    
C61   C62   A    
C33   O35   S    
O1    Zn3   S    
C70   H33   S    
C29   C30   A    
C59   O6    A    
C65   H19   S    
C15   C21   A    
O55   Zn5   S    
C20   C21   A    
C75   H53   S    
C49   C50   A    
C60   O5    A    
C57   O8    A    
C25   C33   S    
O52   S6    S    
C5    O49   S    
C40   O16   A    
C69   O35   S    
O2    Zn7   S    
C21   C22   S    
C70   O36   S    
C4    O45   A    
H37   O39   S    
C75   H51   S    
C28   O23   A    
C27   O27   S    
O29   S2    D    
O13   Zn1   S    
