data_mof_unit_41285.cif
_audit_creation_date              2012-12-10T20:46:48-0500
_audit_creation_method            fapswitch 2.2
_symmetry_space_group_name_H-M    P1
_symmetry_Int_Tables_number       1
_space_group_crystal_system       triclinic
_cell_length_a                    12.862657
_cell_length_b                    8.923959
_cell_length_c                    8.12541
_cell_angle_alpha                 90.015822
_cell_angle_beta                  96.3353
_cell_angle_gamma                 90.019215
_cell_volume                      926.986042005

loop_
_atom_site_label
_atom_site_type_symbol
_atom_type_description
_atom_site_fract_x
_atom_site_fract_y
_atom_site_fract_z
_atom_type_partial_charge
C1    C     C_R   0.499894 0.218090 0.499966 0.908835
C2    C     C_R   0.866326 0.402178 0.692060 0.354801
C3    C     C_R   0.134217 0.441474 0.584663 -0.299013
C4    C     C_R   0.864210 0.482246 0.404597 -0.277542
C5    C     C_R   0.026814 0.425455 0.566225 -0.100444
C6    C     C_R   0.970650 0.460586 0.412211 -0.084356
C7    C     C_1   0.499964 0.065266 0.499985 -0.209268
C8    C     C_1   0.500018 0.934812 0.500040 -0.206324
C9    C     C_3   0.775478 0.223981 0.817691 0.159088
C10   C     C_3   0.711823 0.195044 0.961434 -0.740866
C11   C     C_3   0.205183 0.271300 0.151368 0.198910
C12   C     C_R   0.500034 0.781931 0.500024 0.935976
C13   C     C_3   0.283409 0.236345 0.029368 -0.765735
C14   C     C_3   0.979226 0.630972 0.053449 -0.220904
C15   C     C_3   0.050596 0.157060 0.779045 -0.371732
C16   C     C_R   0.297733 0.491309 0.468285 0.922994
C17   C     C_R   0.702344 0.493190 0.531004 0.924031
C18   C     C_R   0.813195 0.463846 0.546426 -0.290095
C19   C     C_R   0.186117 0.467138 0.446110 -0.281108
C20   C     C_R   0.022545 0.473721 0.269635 0.467450
C21   C     C_R   0.973983 0.379049 0.699746 0.516501
C22   C     C_R   0.131134 0.458195 0.286372 0.349893
H1    H     H_    0.821497 0.518193 0.288854 0.237891
H2    H     H_    0.361168 0.281971 0.075971 0.259453
H3    H     H_    0.290490 0.113117 0.015248 0.185509
H4    H     H_    0.258328 0.286306 0.907004 0.255710
H5    H     H_    0.060566 0.649599 0.023714 0.179609
H6    H     H_    0.957133 0.717878 0.141723 0.109793
H7    H     H_    0.926479 0.644693 0.936965 0.188570
H8    H     H_    0.989073 0.106990 0.687910 0.125359
H9    H     H_    0.059715 0.080469 0.886954 0.178312
H10   H     H_    0.125837 0.159127 0.724132 0.177345
H11   H     H_    0.176865 0.435164 0.706762 0.227390
H12   H     H_    0.840038 0.140946 0.825875 0.135050
H13   H     H_    0.723822 0.206186 0.699957 0.105003
H14   H     H_    0.644804 0.273673 0.955645 0.259761
H15   H     H_    0.681383 0.078480 0.954837 0.190100
H16   H     H_    0.761566 0.210776 0.080921 0.253686
H17   H     H_    0.132410 0.206170 0.118183 0.159536
H18   H     H_    0.240744 0.231494 0.275094 0.088511
N1    N     N_1   0.500020 0.500000 0.073640 -0.043969
N2    N     N_1   0.499980 0.500000 0.926360 -0.041316
O1    O     O_R   0.499990 0.285340 0.636850 -0.627687
O2    O     O_3   0.181905 0.426741 0.148791 -0.566851
O3    O     O_3   0.966567 0.484933 0.114669 -0.535203
O4    O     O_3   0.024861 0.302235 0.832923 -0.541705
O5    O     O_R   0.500010 0.714660 0.363150 -0.613653
O6    O     O_R   0.500010 0.285340 0.363150 -0.631279
O7    O     O_R   0.499990 0.714660 0.636850 -0.614792
O8    O     O_R   0.346350 0.500000 0.614250 -0.629867
O9    O     O_R   0.653650 0.500000 0.385750 -0.630084
O10   O     O_R   0.346360 0.500000 0.340500 -0.575836
O11   O     O_R   0.653640 0.500000 0.659500 -0.577372
O12   O     O_3   0.815178 0.371664 0.829553 -0.540942
Zn1   Zn    Zn3+2 0.499990 0.500000 0.682780 0.981669
Zn2   Zn    Zn3+2 0.500010 0.500000 0.317220 0.981206

loop_
_geom_bond_atom_site_label_1
_geom_bond_atom_site_label_2
_ccdc_geom_bond_type
N1    N2    T    
N1    Zn2   S    
C3    C19   A    
C10   H15   S    
C14   H5    S    
C2    C18   A    
C6    C20   A    
C9    C10   S    
O8    Zn1   S    
O6    Zn2   S    
C8    C12   S    
C10   H16   S    
C4    C18   A    
C17   O9    A    
C2    C21   A    
C17   C18   S    
C11   O2    S    
C1    O6    A    
O7    Zn1   S    
C11   H17   S    
C11   C13   S    
C13   H3    S    
C9    H12   S    
C12   O5    A    
O1    Zn1   S    
C16   O8    A    
C12   O7    A    
C14   O3    S    
O11   Zn1   S    
C16   C19   S    
C5    C6    A    
N2    Zn1   S    
C13   H4    S    
C3    H11   S    
C14   H7    S    
C11   H18   S    
C21   O4    S    
C17   O11   A    
C7    C8    T    
C19   C22   A    
C5    C21   A    
C15   H8    S    
C4    C6    A    
O9    Zn2   S    
C2    O12   S    
C20   O3    S    
C16   O10   A    
C9    H13   S    
C4    H1    S    
C10   H14   S    
C9    O12   S    
C15   O4    S    
C14   H6    S    
C1    C7    S    
C15   H9    S    
C1    O1    A    
C22   O2    S    
O10   Zn2   S    
C13   H2    S    
C20   C22   A    
O5    Zn2   S    
C3    C5    A    
C15   H10   S    
