data_mof_unit_59415.cif
_audit_creation_date              2012-12-10T17:55:51-0500
_audit_creation_method            fapswitch 2.2
_symmetry_space_group_name_H-M    P1
_symmetry_Int_Tables_number       1
_space_group_crystal_system       triclinic
_cell_length_a                    11.077401
_cell_length_b                    10.851677
_cell_length_c                    9.694928
_cell_angle_alpha                 92.566936
_cell_angle_beta                  103.376201
_cell_angle_gamma                 93.644958
_cell_volume                      1129.37654302

loop_
_atom_site_label
_atom_site_type_symbol
_atom_type_description
_atom_site_fract_x
_atom_site_fract_y
_atom_site_fract_z
_atom_type_partial_charge
C1    C     C_R   0.498443 0.262385 0.497359 0.880627
C2    C     C_R   0.494414 0.736886 0.501315 0.859200
C3    C     C_R   0.262981 0.502554 0.441629 0.779049
C4    C     C_R   0.737063 0.501368 0.558770 0.796874
C5    C     C_R   0.417653 0.423301 0.046626 0.152583
C6    C     C_R   0.584966 0.574753 0.953177 0.172992
C7    C     C_R   0.422765 0.416840 0.899875 0.456201
C8    C     C_R   0.588840 0.571560 0.101620 0.454326
C9    C     C_2   0.127633 0.510875 0.409127 0.024437
C10   C     C_2   0.872797 0.502050 0.593532 0.021358
C11   C     C_2   0.069889 0.521139 0.516417 -0.224172
C12   C     C_2   0.934936 0.526219 0.493063 -0.179979
C13   C     C_R   0.406044 0.053205 0.393739 0.400825
C14   C     C_R   0.549226 0.945995 0.622916 0.377953
C15   C     C_R   0.410264 0.924686 0.388725 0.028905
C16   C     C_R   0.571316 0.072045 0.609127 0.037056
C17   C     C_R   0.485270 0.870379 0.503812 -0.306639
C18   C     C_R   0.496581 0.127791 0.494979 -0.294074
Cu1   Cu    Cu3+1 0.500000 0.500020 0.640660 1.035373
Cu2   Cu    Cu3+1 0.500000 0.499980 0.359340 1.033696
H1    H     H_    0.883700 0.548705 0.389404 0.233468
H2    H     H_    0.123914 0.524674 0.625194 0.185035
N1    N     N_R   0.500030 0.500030 0.852080 -0.256032
N2    N     N_R   0.499970 0.499970 0.147920 -0.250497
O1    O     O_R   0.499990 0.319660 0.618740 -0.520725
O2    O     O_R   0.500010 0.680340 0.381260 -0.599678
O3    O     O_R   0.499990 0.319630 0.381170 -0.537007
O4    O     O_R   0.500010 0.680370 0.618830 -0.533494
O5    O     O_R   0.320690 0.500020 0.575130 -0.628784
O6    O     O_R   0.679310 0.499980 0.424870 -0.568646
O7    O     O_R   0.320680 0.499990 0.337560 -0.514600
O8    O     O_R   0.679320 0.500010 0.662440 -0.518672
I1    I     I_    0.287449 0.301522 0.106383 -0.221442
I2    I     I_    0.728232 0.687830 0.897827 -0.169175
I3    I     I_    0.960862 0.455130 0.800137 -0.271971
I4    I     I_    0.029837 0.507364 0.193133 -0.221613
O9    O     O_3   0.380072 0.307347 0.818151 -0.546556
C19   C     C_3   0.250355 0.299249 0.759556 0.107044
H3    H     H_    0.231637 0.326116 0.649247 0.159204
H4    H     H_    0.198935 0.358647 0.817963 0.165393
C20   C     C_3   0.198384 0.164787 0.751821 -0.778152
H5    H     H_    0.206550 0.130117 0.858972 0.282565
H6    H     H_    0.098658 0.156554 0.694925 0.224926
H7    H     H_    0.250513 0.105356 0.693921 0.205892
O10   O     O_3   0.700111 0.613988 0.196079 -0.552588
C21   C     C_3   0.697655 0.735115 0.256022 0.123087
H8    H     H_    0.705113 0.728533 0.371208 0.176025
H9    H     H_    0.612812 0.782334 0.209576 0.140230
C22   C     C_3   0.813433 0.816392 0.248584 -0.790490
H10   H     H_    0.802817 0.855826 0.143605 0.266562
H11   H     H_    0.827752 0.895479 0.328970 0.199353
H12   H     H_    0.897195 0.762801 0.271058 0.284378
O11   O     O_3   0.304952 0.102801 0.309877 -0.529881
C23   C     C_3   0.209848 0.107732 0.385372 0.070465
H13   H     H_    0.227021 0.193274 0.456052 0.130261
H14   H     H_    0.203709 0.025864 0.449930 0.132939
C24   C     C_3   0.083546 0.110707 0.282290 -0.665497
H15   H     H_    0.067530 0.030698 0.203037 0.271760
H16   H     H_    0.009008 0.105634 0.341713 0.187977
H17   H     H_    0.078036 0.197871 0.226557 0.271124
O12   O     O_3   0.572321 0.901748 0.757023 -0.525504
C25   C     C_3   0.472586 0.932689 0.818225 0.108725
H18   H     H_    0.384409 0.879452 0.761428 0.138492
H19   H     H_    0.458340 0.033441 0.815384 0.178368
C26   C     C_3   0.499935 0.903150 0.973073 -0.712637
H20   H     H_    0.595086 0.941332 0.028236 0.258499
H21   H     H_    0.490737 0.801699 0.980901 0.219680
H22   H     H_    0.432022 0.945429 0.025250 0.236809
I5    I     I_    0.279844 0.817903 0.222131 -0.328220
I6    I     I_    0.710030 0.170834 0.773998 -0.222990

loop_
_geom_bond_atom_site_label_1
_geom_bond_atom_site_label_2
_ccdc_geom_bond_type
C9    I4    S    
C3    O7    A    
C11   C12   S    
O9    C19   S    
C3    C9    S    
Cu2   O3    S    
C5    C7    A    
C20   H5    S    
C23   H13   S    
C11   H2    S    
Cu1   N1    S    
Cu1   Cu2   S    
C21   C22   S    
C26   H22   S    
C20   H7    S    
C22   H12   S    
C13   C15   A    
C7    O9    S    
C16   I6    S    
C2    O2    A    
C4    O8    A    
O10   C21   S    
Cu2   O6    S    
C2    C17   S    
C1    O1    A    
Cu1   O4    S    
C20   H6    S    
C14   C17   A    
C3    O5    A    
C24   H15   S    
C25   H18   S    
C5    N2    A    
C10   C12   D    
C13   C18   A    
C7    N1    A    
Cu1   O8    S    
C6    C8    A    
C16   C18   A    
C19   H4    S    
C22   H10   S    
C13   O11   S    
C9    C11   D    
O12   C25   S    
C15   I5    S    
C10   I3    S    
C23   H14   S    
C24   H16   S    
C2    O4    A    
C6    N1    A    
Cu1   O1    S    
C4    C10   S    
Cu1   O5    S    
C21   H9    S    
C6    I2    S    
C19   H3    S    
C19   C20   S    
C1    O3    A    
C26   H20   S    
C21   H8    S    
C15   C17   A    
C1    C18   S    
C8    O10   S    
C24   H17   S    
C25   H19   S    
C25   C26   S    
C8    N2    A    
C14   C16   A    
O11   C23   S    
C14   O12   S    
C26   H21   S    
C12   H1    S    
Cu2   O7    S    
C4    O6    A    
Cu2   N2    S    
Cu2   O2    S    
C22   H11   S    
C23   C24   S    
C5    I1    S    
