data_mof_unit_52163.cif
_audit_creation_date              2012-12-10T18:10:56-0500
_audit_creation_method            fapswitch 2.2
_symmetry_space_group_name_H-M    P1
_symmetry_Int_Tables_number       1
_space_group_crystal_system       triclinic
_cell_length_a                    12.670587
_cell_length_b                    13.066554
_cell_length_c                    15.684145
_cell_angle_alpha                 91.954007
_cell_angle_beta                  101.826066
_cell_angle_gamma                 82.186789
_cell_volume                      2517.9181682

loop_
_atom_site_label
_atom_site_type_symbol
_atom_type_description
_atom_site_fract_x
_atom_site_fract_y
_atom_site_fract_z
_atom_type_partial_charge
C1    C     C_R   0.439349 0.691158 0.492071 0.933400
C2    C     C_R   0.593685 0.200553 0.493090 -0.094056
C3    C     C_R   0.321723 0.837600 0.543537 0.250428
C4    C     C_R   0.501319 0.497817 0.661443 0.925026
C5    C     C_R   0.287965 0.944141 0.548014 0.475608
C6    C     C_R   0.349900 0.012234 0.520771 -0.252213
C7    C     C_R   0.442234 0.975229 0.485990 0.035678
C8    C     C_R   0.455676 0.871303 0.459553 0.007701
C9    C     C_R   0.519727 0.038615 0.473928 0.052574
C10   C     C_R   0.589210 0.006400 0.414765 0.117071
C11   C     C_R   0.589240 0.908071 0.377251 -0.221095
C12   C     C_3   0.384029 0.457451 0.030003 0.711900
C13   C     C_R   0.525854 0.839848 0.401556 -0.137771
C14   C     C_R   0.533839 0.131087 0.520860 0.278172
C15   C     C_R   0.657440 0.171223 0.431076 -0.258491
C16   C     C_R   0.560378 0.308992 0.506975 0.925817
C17   C     C_R   0.401083 0.801122 0.494389 -0.249424
C18   C     C_R   0.084349 0.364353 0.358364 0.358274
C19   C     C_R   0.798117 0.632662 0.602492 0.516282
C20   C     C_R   0.895802 0.676304 0.608287 0.269198
C21   C     C_R   0.974080 0.627997 0.564065 -0.267065
C22   C     C_R   0.956863 0.537922 0.514297 0.006517
C23   C     C_3   0.502338 0.470075 0.082865 -0.079411
C24   C     C_R   0.852340 0.507730 0.499606 0.051283
C25   C     C_R   0.037483 0.481026 0.474184 -0.191974
C26   C     C_R   0.005126 0.413309 0.403245 -0.143490
C27   C     C_R   0.895400 0.394436 0.382591 0.427337
C28   C     C_R   0.500358 0.496919 0.338886 0.853412
C29   C     C_R   0.824869 0.433352 0.436273 -0.201174
C30   C     C_R   0.149851 0.486668 0.504225 0.498871
C31   C     C_R   0.192120 0.383574 0.384921 0.321170
C32   C     C_3   0.392501 0.446438 0.930537 0.044940
C33   C     C_3   0.527095 0.579225 0.958724 0.226169
C34   C     C_3   0.585489 0.377354 0.060910 0.248597
C35   C     C_3   0.537724 0.573730 0.058281 0.035989
C36   C     C_1   0.502533 0.484465 0.250391 -0.062371
C37   C     C_3   0.505926 0.471757 0.917799 -0.048140
C38   C     C_3   0.250483 0.333130 0.032147 0.251968
C39   C     C_3   0.153861 0.406982 0.982607 -0.399266
C40   C     C_3   0.061168 0.346931 0.940051 -0.884439
C41   C     C_3   0.103983 0.959596 0.544712 0.141575
C42   C     C_3   0.055269 0.035794 0.470763 -0.436061
C43   C     C_3   0.946532 0.007604 0.420332 -0.973319
C44   C     C_3   0.079438 0.201357 0.300531 0.149754
C45   C     C_3   0.595557 0.386114 0.964202 0.113690
C46   C     C_3   0.078087 0.142169 0.214702 -0.284335
C47   C     C_3   0.099795 0.025655 0.228995 -0.967883
C48   C     C_3   0.190467 0.450176 0.650165 0.188205
C49   C     C_3   0.142184 0.498630 0.726403 -0.440659
C50   C     C_3   0.184180 0.600315 0.758362 -0.612656
C51   C     C_3   0.748350 0.689748 0.735066 0.087357
C52   C     C_3   0.805038 0.591992 0.785690 -0.408472
C53   C     C_3   0.838703 0.617766 0.882381 -0.801004
C54   C     C_3   0.859495 0.851871 0.619650 0.063089
C55   C     C_3   0.871142 0.941113 0.685347 -0.350507
C56   C     C_1   0.503445 0.474584 0.175179 0.143768
C57   C     C_3   0.805323 0.041691 0.647879 -0.885215
C58   C     C_3   0.468761 0.730210 0.874103 0.106609
C59   C     C_3   0.518639 0.814867 0.932715 -0.392079
C60   C     C_3   0.543449 0.900525 0.879020 -0.847600
C61   C     C_3   0.616211 0.218599 0.135962 0.130159
C62   C     C_3   0.710887 0.158630 0.100410 -0.341657
C63   C     C_3   0.775639 0.076649 0.164462 -0.934741
C64   C     C_1   0.507244 0.476865 0.825983 0.099305
C65   C     C_1   0.505811 0.486449 0.750731 -0.166204
C66   C     C_R   0.658075 0.072892 0.394260 -0.219829
Cl1   Cl    Cl    0.294326 0.573556 0.047223 -0.675355
Cl2   Cl    Cl    0.367366 0.323895 0.879643 -0.644514
Cl3   Cl    Cl    0.494423 0.157155 0.622739 -0.626131
Cl4   Cl    Cl    0.274597 0.753282 0.608884 -0.641767
Cl5   Cl    Cl    0.288921 0.322729 0.326936 -0.577780
Cl6   Cl    Cl    0.837507 0.324646 0.290847 -0.681362
Cl7   Cl    Cl    0.673063 0.591620 0.114527 -0.596417
Cl8   Cl    Cl    0.730600 0.406443 0.956408 -0.661731
H1    H     H_    0.666655 0.382991 0.103602 0.205847
H2    H     H_    0.605972 0.597048 0.945689 0.176345
H3    H     H_    0.485791 0.640928 0.080168 0.224044
H4    H     H_    0.584913 0.310777 0.930617 0.233531
H5    H     H_    0.222651 0.303553 0.088224 0.163451
H6    H     H_    0.266706 0.262868 0.992826 0.195957
H7    H     H_    0.177237 0.447997 0.930420 0.245639
H8    H     H_    0.122861 0.464259 0.028590 0.283687
H9    H     H_    0.089742 0.286681 0.895221 0.270163
H10   H     H_    0.994200 0.400006 0.901298 0.281620
H11   H     H_    0.029376 0.309830 0.990548 0.288175
H12   H     H_    0.702281 0.225765 0.408114 0.184102
H13   H     H_    0.048513 0.965997 0.591277 0.177666
H14   H     H_    0.106904 0.879200 0.518688 0.167785
H15   H     H_    0.043287 0.115287 0.497837 0.234941
H16   H     H_    0.112221 0.033710 0.425434 0.212765
H17   H     H_    0.958180 0.930890 0.388454 0.274233
H18   H     H_    0.909876 0.065970 0.369640 0.272139
H19   H     H_    0.888943 0.005692 0.464367 0.267605
H20   H     H_    0.016172 0.177978 0.332180 0.165531
H21   H     H_    0.159956 0.179797 0.344393 0.132113
H22   H     H_    0.997582 0.161782 0.170651 0.249827
H23   H     H_    0.641547 0.882472 0.331853 0.160219
H24   H     H_    0.141477 0.165779 0.182683 0.237210
H25   H     H_    0.179825 0.004239 0.273153 0.272708
H26   H     H_    0.100711 0.985472 0.165584 0.282180
H27   H     H_    0.034795 0.999648 0.257506 0.277051
H28   H     H_    0.275870 0.416949 0.676119 0.200784
H29   H     H_    0.146019 0.383317 0.625621 0.068853
H30   H     H_    0.052195 0.511504 0.707676 0.205938
H31   H     H_    0.163137 0.442495 0.780609 0.214951
H32   H     H_    0.144643 0.663673 0.712910 0.306229
H33   H     H_    0.164256 0.620862 0.823044 0.235436
H34   H     H_    0.708160 0.050611 0.346719 0.163434
H35   H     H_    0.273576 0.593919 0.763856 0.265512
H36   H     H_    0.673296 0.715871 0.760060 0.148925
H37   H     H_    0.797260 0.754035 0.750522 0.182916
H38   H     H_    0.748845 0.532547 0.777603 0.263193
H39   H     H_    0.879110 0.559713 0.761413 0.205409
H40   H     H_    0.899025 0.673509 0.891936 0.259235
H41   H     H_    0.876358 0.546926 0.919430 0.307462
H42   H     H_    0.766802 0.651855 0.908843 0.262866
H43   H     H_    0.771324 0.844416 0.598637 0.175112
H44   H     H_    0.891583 0.869277 0.561679 0.141821
H45   H     H_    0.324375 0.094106 0.526509 0.213918
H46   H     H_    0.842064 0.922105 0.744335 0.226900
H47   H     H_    0.958118 0.952066 0.705883 0.238505
H48   H     H_    0.835560 0.066370 0.591392 0.259128
H49   H     H_    0.812716 0.103396 0.698374 0.281882
H50   H     H_    0.718378 0.031267 0.627397 0.289995
H51   H     H_    0.393718 0.765994 0.829905 0.212324
H52   H     H_    0.524286 0.695270 0.831306 0.114035
H53   H     H_    0.460875 0.848593 0.973964 0.254939
H54   H     H_    0.595258 0.781302 0.976244 0.239404
H55   H     H_    0.603539 0.869156 0.839116 0.246595
H56   H     H_    0.328775 0.503290 0.893233 0.170479
H57   H     H_    0.578119 0.961084 0.923298 0.270893
H58   H     H_    0.467905 0.936368 0.835472 0.294666
H59   H     H_    0.567250 0.162295 0.155280 0.182955
H60   H     H_    0.645107 0.262981 0.195961 0.171034
H61   H     H_    0.678405 0.120240 0.038030 0.239189
H62   H     H_    0.766245 0.212658 0.087494 0.259114
H63   H     H_    0.810423 0.113358 0.226774 0.289946
H64   H     H_    0.843282 0.034697 0.136764 0.276150
H65   H     H_    0.722702 0.020107 0.177071 0.261298
H66   H     H_    0.530903 0.762939 0.373491 0.158392
H67   H     H_    0.046597 0.663986 0.567012 0.250255
H68   H     H_    0.746888 0.407213 0.424770 0.214411
N1    N     N_R   0.222200 0.444690 0.455710 -0.190855
N2    N     N_R   0.776960 0.554780 0.543830 -0.170267
O1    O     O_R   0.366740 0.627160 0.478850 -0.558298
O2    O     O_3   0.205922 0.983971 0.590896 -0.603111
O3    O     O_3   0.056349 0.308289 0.282521 -0.539417
O4    O     O_3   0.188677 0.525336 0.586096 -0.572122
O5    O     O_3   0.714976 0.674536 0.644034 -0.609084
O6    O     O_3   0.919861 0.761195 0.659935 -0.644839
O7    O     O_3   0.438331 0.655556 0.924457 -0.634458
O8    O     O_3   0.546817 0.281927 0.070759 -0.592058
O9    O     O_R   0.544830 0.662520 0.507140 -0.574759
O10   O     O_R   0.410920 0.482310 0.608710 -0.564016
O11   O     O_R   0.589010 0.517670 0.637000 -0.585435
O12   O     O_R   0.455170 0.337480 0.492860 -0.554365
O13   O     O_R   0.633260 0.372840 0.521150 -0.651469
O14   O     O_R   0.410990 0.482330 0.363000 -0.544565
O15   O     O_R   0.589080 0.517690 0.391290 -0.640536
O16   O     O_3   0.350940 0.371319 0.067403 -0.571637
Zn1   Zn    Zn3+2 0.381090 0.476390 0.481110 1.071788
Zn2   Zn    Zn3+2 0.618910 0.523610 0.518890 0.979250

loop_
_geom_bond_atom_site_label_1
_geom_bond_atom_site_label_2
_ccdc_geom_bond_type
C62   H61   S    
C4    O10   A    
C55   H47   S    
C19   N2    A    
C47   H27   S    
C27   C29   A    
C11   C13   A    
C41   C42   S    
C40   H10   S    
O10   Zn1   S    
C1    O1    A    
C19   C20   A    
C18   C26   A    
C60   H58   S    
C49   H30   S    
C32   H56   S    
C61   H59   S    
C23   C56   S    
C54   O6    S    
C52   H39   S    
C52   C53   S    
C12   C23   S    
C26   C27   A    
C8    C13   A    
O1    Zn1   S    
C5    C6    A    
C38   H5    S    
C52   H38   S    
C59   H53   S    
C44   O3    S    
C47   H25   S    
C62   H62   S    
C24   C29   A    
O14   Zn1   S    
C19   O5    S    
C57   H48   S    
C46   C47   S    
C41   O2    S    
C22   C25   A    
C16   O12   A    
C45   H4    S    
C2    C16   S    
C9    C10   A    
C53   H42   S    
C34   H1    S    
C32   Cl2   S    
C31   Cl5   S    
C46   H24   S    
C59   C60   S    
C21   C22   A    
C12   C32   S    
C63   H63   S    
C40   H9    S    
C43   H19   S    
C60   H57   S    
C44   C46   S    
C61   H60   S    
C55   H46   S    
C10   C66   A    
O11   Zn2   S    
C38   C39   S    
C41   H13   S    
C12   Cl1   S    
C51   C52   S    
C13   H66   S    
C7    C8    A    
C3    Cl4   S    
C39   H7    S    
C18   O3    S    
C33   O7    S    
C39   C40   S    
C34   O8    S    
C49   H31   S    
C25   C26   A    
C15   C66   A    
C35   H3    S    
C28   O15   A    
C33   C37   S    
C30   N1    A    
C45   Cl8   S    
C42   H16   S    
C40   H11   S    
C9    C14   A    
C62   C63   S    
C36   C56   T    
C57   H49   S    
C33   H2    S    
C23   C34   S    
C48   H28   S    
C28   O14   A    
O15   Zn2   S    
C34   C45   S    
C32   C37   S    
C12   O16   S    
C1    O9    A    
C2    C15   A    
C51   O5    S    
C15   H12   S    
C48   C49   S    
O12   Zn1   S    
C58   H52   S    
C51   H36   S    
C23   C35   S    
C55   C57   S    
C50   H33   S    
C14   Cl3   S    
C22   C24   A    
C58   C59   S    
C42   C43   S    
C37   C45   S    
C6    H45   S    
C37   C64   S    
C58   O7    S    
C25   C30   A    
C7    C9    A    
C41   H14   S    
C54   C55   S    
C35   Cl7   S    
C51   H37   S    
C5    O2    S    
N2    Zn2   S    
C16   O13   A    
C63   H65   S    
C8    C17   A    
C39   H8    S    
C66   H34   S    
C3    C5    A    
C60   H55   S    
C30   O4    S    
C6    C7    A    
C1    C17   S    
C43   H18   S    
O9    Zn2   S    
C11   H23   S    
C42   H15   S    
C64   C65   T    
C54   H44   S    
C63   H64   S    
C59   H54   S    
C38   O16   S    
C44   H21   S    
C57   H50   S    
C48   H29   S    
C4    C65   S    
C38   H6    S    
C24   N2    A    
C29   H68   S    
C48   O4    S    
C33   C35   S    
C20   O6    S    
C3    C17   A    
C50   H35   S    
C31   N1    A    
C61   C62   S    
C2    C14   A    
C61   O8    S    
C43   H17   S    
C44   H20   S    
C10   C11   A    
C47   H26   S    
C21   H67   S    
C4    O11   A    
C46   H22   S    
C20   C21   A    
C28   C36   S    
C58   H51   S    
C49   C50   S    
C54   H43   S    
C50   H32   S    
C53   H40   S    
C18   C31   A    
O13   Zn2   S    
N1    Zn1   S    
C27   Cl6   S    
C53   H41   S    
