data_mof_unit_5670.cif
_audit_creation_date              2012-12-10T17:36:47-0500
_audit_creation_method            fapswitch 2.2
_symmetry_space_group_name_H-M    P1
_symmetry_Int_Tables_number       1
_space_group_crystal_system       triclinic
_cell_length_a                    10.62186
_cell_length_b                    12.352207
_cell_length_c                    13.219283
_cell_angle_alpha                 116.749406
_cell_angle_beta                  77.13708
_cell_angle_gamma                 101.537245
_cell_volume                      1499.98209405

loop_
_atom_site_label
_atom_site_type_symbol
_atom_type_description
_atom_site_fract_x
_atom_site_fract_y
_atom_site_fract_z
_atom_type_partial_charge
C1    C     C_R   0.511467 0.854883 0.286651 0.767672
C2    C     C_3   0.013008 0.907371 0.522553 -0.135935
C3    C     C_3   0.956546 0.895005 0.419113 -0.168090
C4    C     C_3   0.877199 0.000837 0.500711 0.005624
C5    C     C_R   0.324906 0.276554 0.021767 -0.159390
C6    C     C_R   0.453542 0.228331 0.834645 -0.034438
C7    C     C_R   0.598025 0.815159 0.085303 -0.180294
C8    C     C_R   0.623885 0.736377 0.970359 -0.131760
C9    C     C_R   0.577281 0.613307 0.932571 -0.181318
C10   C     C_R   0.498731 0.566831 0.009310 0.080433
C11   C     C_R   0.460009 0.650412 0.123837 0.082673
C12   C     C_R   0.740386 0.999963 0.499902 0.788744
C13   C     C_R   0.456366 0.440372 0.975982 0.079464
C14   C     C_R   0.366778 0.401087 0.053379 0.157744
C15   C     C_R   0.317805 0.486573 0.160515 -0.230538
C16   C     C_R   0.362180 0.609477 0.194713 -0.200801
C17   C     C_R   0.501382 0.351326 0.868247 -0.225926
C18   C     C_R   0.367737 0.190492 0.912651 -0.168442
C19   C     C_R   0.519177 0.773075 0.163639 -0.107929
C20   C     C_R   0.718794 0.348187 0.332146 -0.090541
C21   C     C_R   0.318167 0.751637 0.642037 0.183140
C22   C     C_R   0.286110 0.653353 0.671902 -0.202738
C23   C     C_R   0.480794 0.145143 0.713418 0.822703
C24   C     C_R   0.357772 0.555870 0.619758 -0.253599
C25   C     C_R   0.463632 0.551644 0.533705 0.016184
C26   C     C_R   0.497251 0.654489 0.505817 0.272872
C27   C     C_R   0.536389 0.448231 0.474682 -0.025758
C28   C     C_R   0.644930 0.449385 0.389782 0.078689
C29   C     C_R   0.674909 0.550329 0.363105 -0.286998
C30   C     C_R   0.603415 0.649409 0.419427 -0.151245
C31   C     C_R   0.504325 0.342394 0.496183 0.004250
C32   C     C_R   0.679337 0.247158 0.358159 0.070623
C33   C     C_R   0.259537 0.000494 0.500832 0.831020
C34   C     C_3   0.985959 0.094859 0.480543 -0.199015
C35   C     C_3   0.067690 0.988762 0.398989 -0.178387
C36   C     C_3   0.122371 0.001118 0.502298 0.002490
C37   C     C_3   0.041797 0.105635 0.583004 0.036425
C38   C     C_3   0.931023 0.013238 0.604318 -0.206439
Cu1   Cu    Cu3+1 0.529830 0.098270 0.475420 0.955245
Cu2   Cu    Cu3+1 0.470170 0.901730 0.524580 0.917041
H1    H     H_    0.126243 0.978558 0.315033 0.145025
H2    H     H_    0.573229 0.374994 0.807655 0.140147
H3    H     H_    0.642611 0.908845 0.113326 0.169179
H4    H     H_    0.602226 0.557832 0.842280 0.134299
H5    H     H_    0.683963 0.770179 0.910550 0.160579
H6    H     H_    0.315956 0.671802 0.276387 0.174188
H7    H     H_    0.733536 0.168881 0.316159 0.166770
H8    H     H_    0.752791 0.554154 0.296258 0.134508
H9    H     H_    0.423528 0.332998 0.558173 0.164189
H10   H     H_    0.972830 0.171931 0.463694 0.150141
H11   H     H_    0.326471 0.485102 0.649155 0.167703
H12   H     H_    0.204137 0.651641 0.737044 0.190851
H13   H     H_    0.634827 0.719817 0.390931 0.201849
H14   H     H_    0.872488 0.023639 0.688344 0.149938
H15   H     H_    0.026128 0.830428 0.539560 0.171812
H16   H     H_    0.918139 0.808349 0.351846 0.126712
H17   H     H_    0.329902 0.095480 0.888109 0.146584
H18   H     H_    0.244923 0.458329 0.218424 0.152387
H19   H     H_    0.256487 0.246102 0.080507 0.153965
N1    N     N_R   0.575030 0.246270 0.438190 -0.209545
N2    N     N_R   0.425760 0.754330 0.561190 -0.249037
O1    O     O_R   0.537510 0.972500 0.318130 -0.581511
O2    O     O_R   0.487140 0.806530 0.359650 -0.605830
O3    O     O_R   0.708330 0.082950 0.479220 -0.592494
O4    O     O_R   0.657960 0.916980 0.520740 -0.596137
O5    O     O_R   0.512860 0.193470 0.640350 -0.565432
O6    O     O_R   0.462490 0.027500 0.681870 -0.621225
O7    O     O_R   0.342040 0.083020 0.479260 -0.554122
O8    O     O_R   0.291670 0.917050 0.520780 -0.627186
C39   C     C_2   0.838729 0.345720 0.247741 0.322925
H20   H     H_    0.891364 0.428510 0.243511 0.074058
O9    O     O_2   0.882492 0.249581 0.182201 -0.553851
C40   C     C_2   0.229395 0.848567 0.700724 0.333684
H21   H     H_    0.257754 0.939933 0.709226 0.140728
O10   O     O_2   0.118297 0.826625 0.743028 -0.581554
C41   C     C_2   0.085411 0.224606 0.676283 0.317995
H22   H     H_    0.017814 0.292147 0.724856 0.072942
O11   O     O_2   0.195742 0.246191 0.698474 -0.558688

loop_
_geom_bond_atom_site_label_1
_geom_bond_atom_site_label_2
_ccdc_geom_bond_type
C34   C37   S    
C40   H21   S    
C35   C36   S    
C1    O1    A    
C7    C8    A    
Cu1   O3    S    
C11   C19   A    
C29   C30   A    
Cu2   O2    S    
C23   O5    A    
C36   C37   S    
C26   N2    A    
C41   O11   D    
C2    H15   S    
C12   O3    A    
C6    C23   S    
C15   C16   A    
C21   C40   S    
C33   C36   S    
C34   C35   S    
Cu1   O7    S    
C23   O6    A    
Cu1   O1    S    
C17   H2    S    
C8    H5    S    
C8    C9    A    
Cu2   O6    S    
C39   H20   S    
C7    H3    S    
C4    C12   S    
C9    C10   A    
C21   N2    A    
C33   O8    A    
C24   H11   S    
C21   C22   A    
C40   O10   D    
C20   C39   S    
C31   H9    S    
C1    O2    A    
C6    C18   A    
C30   H13   S    
C4    C34   S    
C34   H10   S    
C1    C19   S    
Cu2   O8    S    
C5    H19   S    
C29   H8    S    
C27   C31   A    
C41   H22   S    
C16   H6    S    
Cu1   Cu2   S    
C5    C18   A    
C20   C28   A    
C25   C26   A    
Cu2   N2    S    
C31   N1    A    
C37   C38   S    
C15   H18   S    
C3    H16   S    
C2    C38   S    
C18   H17   S    
C38   H14   S    
C3    C35   S    
C24   C25   A    
C5    C14   A    
C37   C41   S    
C4    C38   S    
C26   C30   A    
C7    C19   A    
Cu2   O4    S    
Cu1   O5    S    
C22   C24   A    
C32   N1    A    
C3    C4    S    
C22   H12   S    
C20   C32   A    
C2    C36   S    
C6    C17   A    
C28   C29   A    
C9    H4    S    
C10   C13   A    
C25   C27   A    
C12   O4    A    
C13   C17   A    
C2    C3    S    
Cu1   N1    S    
C32   H7    S    
C35   H1    S    
C11   C16   A    
C10   C11   A    
C27   C28   A    
C14   C15   A    
C39   O9    D    
C13   C14   A    
C33   O7    A    
