data_mof_unit_65348.cif
_audit_creation_date              2012-12-10T18:25:37-0500
_audit_creation_method            fapswitch 2.2
_symmetry_space_group_name_H-M    P1
_symmetry_Int_Tables_number       1
_space_group_crystal_system       triclinic
_cell_length_a                    25.754447
_cell_length_b                    25.738858
_cell_length_c                    18.203461
_cell_angle_alpha                 89.999968
_cell_angle_beta                  135.011692
_cell_angle_gamma                 90.000043
_cell_volume                      8530.8406746

loop_
_atom_site_label
_atom_site_type_symbol
_atom_type_description
_atom_site_fract_x
_atom_site_fract_y
_atom_site_fract_z
_atom_type_partial_charge
C1    C     C_R   0.108896 0.250030 0.500307 0.751869
C2    C     C_3   0.449319 0.749802 0.898130 0.215725
C3    C     C_R   0.749985 0.391302 0.499883 0.738317
C4    C     C_R   0.108638 0.250056 0.217415 0.743938
C5    C     C_R   0.108735 0.750050 0.217415 0.743998
C6    C     C_R   0.608749 0.749961 0.217416 0.741628
C7    C     C_R   0.608749 0.250038 0.217416 0.741627
C8    C     C_R   0.391361 0.250022 0.782588 0.738879
C9    C     C_R   0.391360 0.749977 0.782588 0.738876
C10   C     C_R   0.891348 0.750032 0.782587 0.739925
C11   C     C_R   0.891252 0.250075 0.782587 0.739987
C12   C     C_3   0.484853 0.195619 0.939975 -0.402821
C13   C     C_3   0.949292 0.750214 0.898128 0.214373
C14   C     C_3   0.484866 0.804379 0.939975 -0.402807
C15   C     C_3   0.984944 0.695667 0.939975 -0.402938
C16   C     C_3   0.930118 0.290354 0.940422 -0.387679
C17   C     C_3   0.544886 0.195625 0.060050 -0.401283
C18   C     C_3   0.544899 0.804373 0.060050 -0.401267
C19   C     C_3   0.044975 0.695673 0.060048 -0.400037
C20   C     C_3   0.989704 0.290348 0.059610 -0.388329
C21   C     C_3   0.415777 0.265109 0.939981 -0.401616
C22   C     C_3   0.415771 0.734902 0.939981 -0.401687
C23   C     C_3   0.915712 0.765008 0.939976 -0.401251
C24   C     C_3   0.948839 0.250258 0.898128 0.214557
C25   C     C_3   0.954858 0.195755 0.939961 -0.401159
C26   C     C_3   0.551185 0.250206 0.101881 0.213264
C27   C     C_3   0.551184 0.749793 0.101881 0.213301
C28   C     C_3   0.051155 0.750224 0.101878 0.212375
C29   C     C_3   0.050702 0.250248 0.101878 0.211755
C30   C     C_3   0.475805 0.265118 0.060048 -0.403381
C31   C     C_3   0.475799 0.734894 0.060048 -0.403442
C32   C     C_3   0.975740 0.765014 0.060047 -0.403253
C33   C     C_R   0.108895 0.749970 0.500305 0.751833
C34   C     C_3   0.014887 0.195748 0.060032 -0.402992
C35   C     C_3   0.570131 0.290084 0.059590 -0.386330
C36   C     C_3   0.570122 0.709903 0.059590 -0.386295
C37   C     C_3   0.070002 0.790197 0.059583 -0.387825
C38   C     C_3   0.084328 0.264879 0.060036 -0.398515
C39   C     C_3   0.523958 0.235428 0.608147 -0.466801
C40   C     C_3   0.523960 0.764580 0.608150 -0.466784
C41   C     C_3   0.011998 0.788030 0.583734 -0.444882
C42   C     C_3   0.011985 0.211958 0.583709 -0.444755
C43   C     C_3   0.584007 0.235365 0.608232 -0.405730
C44   C     C_R   0.608661 0.750031 0.499896 0.750962
C45   C     C_3   0.584010 0.764648 0.608235 -0.405432
C46   C     C_3   0.072109 0.787724 0.584785 -0.393588
C47   C     C_3   0.072096 0.212261 0.584759 -0.393576
C48   C     C_3   0.455446 0.305250 0.470630 -0.045201
C49   C     C_3   0.455460 0.694752 0.470654 -0.045085
C50   C     C_3   0.916315 0.769034 0.391566 -0.042328
C51   C     C_3   0.916311 0.230990 0.391558 -0.042177
C52   C     C_3   0.430514 0.209311 0.420439 -0.391663
C53   C     C_3   0.430517 0.790686 0.420442 -0.391766
C54   C     C_3   0.982383 0.695226 0.524614 -0.409514
C55   C     C_R   0.608658 0.249971 0.499891 0.750982
C56   C     C_3   0.982406 0.304770 0.524662 -0.409507
C57   C     C_3   0.448468 0.250135 0.498865 0.201854
C58   C     C_3   0.448473 0.749867 0.498874 0.201802
C59   C     C_3   0.948648 0.750335 0.499052 0.202034
C60   C     C_3   0.948650 0.249668 0.499057 0.201931
C61   C     C_R   0.391209 0.249925 0.499902 0.782533
C62   C     C_R   0.391211 0.750076 0.499905 0.782599
C63   C     C_R   0.891130 0.750150 0.499681 0.760877
C64   C     C_R   0.891131 0.249851 0.499683 0.760850
C65   C     C_3   0.550560 0.250045 0.499182 0.198280
C66   C     C_3   0.510537 0.290083 0.940401 -0.389533
C67   C     C_3   0.550565 0.749958 0.499192 0.198117
C68   C     C_3   0.051108 0.750333 0.500110 0.198556
C69   C     C_3   0.051110 0.249669 0.500114 0.198656
C70   C     C_3   0.515156 0.304702 0.469342 -0.446947
C71   C     C_3   0.515173 0.695300 0.469374 -0.446950
C72   C     C_3   0.977270 0.768681 0.392793 -0.446767
C73   C     C_3   0.977264 0.231342 0.392785 -0.447026
C74   C     C_3   0.489270 0.210203 0.418897 -0.394280
C75   C     C_3   0.489270 0.789792 0.418896 -0.394295
C76   C     C_3   0.041009 0.694948 0.522029 -0.406923
C77   C     C_3   0.510528 0.709905 0.940401 -0.389494
C78   C     C_3   0.041034 0.305049 0.522078 -0.406907
C79   C     C_3   0.250009 0.029795 0.580453 -0.387990
C80   C     C_3   0.250009 0.970205 0.580453 -0.387994
C81   C     C_3   0.680695 0.530017 0.469949 -0.402229
C82   C     C_3   0.680695 0.469983 0.469948 -0.402194
C83   C     C_3   0.319258 0.030017 0.529979 -0.402446
C84   C     C_3   0.319258 0.969984 0.529980 -0.402410
C85   C     C_3   0.819263 0.530017 0.608620 -0.401841
C86   C     C_3   0.819262 0.469984 0.608620 -0.402123
C87   C     C_3   0.180695 0.030017 0.391365 -0.401927
C88   C     C_3   0.010415 0.790192 0.940397 -0.387793
C89   C     C_3   0.180696 0.969984 0.391365 -0.402217
C90   C     C_3   0.749997 0.529796 0.419551 -0.387951
C91   C     C_3   0.749997 0.470205 0.419551 -0.387952
C92   C     C_3   0.249987 0.050934 0.500451 0.215272
C93   C     C_3   0.249987 0.949067 0.500451 0.215364
C94   C     C_3   0.749985 0.550934 0.499520 0.215080
C95   C     C_3   0.749984 0.449066 0.499520 0.215165
C96   C     C_3   0.250476 0.449061 0.500455 0.212576
C97   C     C_3   0.250476 0.550940 0.500455 0.212493
C98   C     C_3   0.749546 0.949061 0.499557 0.214546
C99   C     C_3   0.024299 0.264884 0.939964 -0.403989
C100  C     C_3   0.749546 0.050939 0.499557 0.214463
C101  C     C_3   0.210676 0.469982 0.391357 -0.401339
C102  C     C_3   0.210677 0.530019 0.391357 -0.401065
C103  C     C_3   0.789242 0.969982 0.469946 -0.402245
C104  C     C_3   0.789243 0.030018 0.469947 -0.402283
C105  C     C_3   0.210762 0.469984 0.530036 -0.402352
C106  C     C_3   0.210762 0.530017 0.530035 -0.402391
C107  C     C_3   0.669586 0.970204 0.419619 -0.387886
C108  C     C_3   0.669586 0.029796 0.419619 -0.387881
C109  C     C_R   0.250106 0.391288 0.500102 0.744196
C110  C     C_3   0.449319 0.250197 0.898130 0.215691
C111  C     C_R   0.250106 0.608712 0.500102 0.744151
C112  C     C_R   0.749902 0.891288 0.499915 0.740408
C113  C     C_R   0.749902 0.108712 0.499915 0.740356
C114  C     C_3   0.330436 0.470202 0.580406 -0.387977
C115  C     C_3   0.330436 0.529798 0.580406 -0.387972
C116  C     C_3   0.789370 0.969983 0.608664 -0.402089
C117  C     C_3   0.789370 0.030018 0.608664 -0.401809
C118  C     C_R   0.249986 0.108698 0.500088 0.738965
C119  C     C_R   0.249986 0.891303 0.500088 0.739003
C120  C     C_R   0.749985 0.608698 0.499883 0.738268
H1    H     H_    0.442389 0.166107 0.911380 0.175898
H2    H     H_    0.390100 0.695725 0.910981 0.146204
H3    H     H_    0.761550 0.044515 0.631267 0.146552
H4    H     H_    0.360411 0.455971 0.561019 0.173479
H5    H     H_    0.360411 0.544030 0.561020 0.173485
H6    H     H_    0.847042 0.955679 0.667795 0.175895
H7    H     H_    0.847040 0.044324 0.667797 0.176087
H8    H     H_    0.153006 0.455677 0.332205 0.175840
H9    H     H_    0.153007 0.544325 0.332203 0.176022
H10   H     H_    0.761329 0.955485 0.391627 0.146874
H11   H     H_    0.761330 0.044516 0.391628 0.146862
H12   H     H_    0.153093 0.455679 0.473848 0.175815
H13   H     H_    0.889966 0.804163 0.910975 0.146800
H14   H     H_    0.153093 0.544320 0.473846 0.175838
H15   H     H_    0.639528 0.955974 0.340212 0.171910
H16   H     H_    0.639529 0.044026 0.340212 0.171917
H17   H     H_    0.238660 0.455487 0.608348 0.146405
H18   H     H_    0.238659 0.544514 0.608346 0.146392
H19   H     H_    0.639617 0.955973 0.439016 0.171367
H20   H     H_    0.639617 0.044027 0.439016 0.171370
H21   H     H_    0.531028 0.166114 0.088671 0.175693
H22   H     H_    0.531049 0.833892 0.088672 0.175669
H23   H     H_    0.031182 0.666102 0.088670 0.175994
H24   H     H_    0.968557 0.166099 0.911336 0.176018
H25   H     H_    0.964236 0.280780 0.088072 0.171298
H26   H     H_    0.371838 0.237080 0.911385 0.175669
H27   H     H_    0.371838 0.762939 0.911385 0.175608
H28   H     H_    0.871832 0.736915 0.911377 0.175829
H29   H     H_    0.901211 0.184586 0.910974 0.146680
H30   H     H_    0.460473 0.237095 0.088674 0.175746
H31   H     H_    0.460472 0.762926 0.088673 0.175687
H32   H     H_    0.960468 0.736925 0.088670 0.175596
H33   H     H_    0.990230 0.184576 0.089032 0.146727
H34   H     H_    0.486756 0.329805 0.911947 0.171564
H35   H     H_    0.479138 0.304300 0.089033 0.146181
H36   H     H_    0.486737 0.670184 0.911946 0.171544
H37   H     H_    0.986538 0.829892 0.911933 0.171965
H38   H     H_    0.039489 0.236703 0.911349 0.176208
H39   H     H_    0.535941 0.280302 0.911922 0.171761
H40   H     H_    0.535937 0.719677 0.911923 0.171837
H41   H     H_    0.035849 0.780502 0.911929 0.171668
H42   H     H_    0.021172 0.304005 0.910973 0.147164
H43   H     H_    0.624003 0.280298 0.088052 0.176379
H44   H     H_    0.623999 0.719680 0.088052 0.176442
H45   H     H_    0.123894 0.780506 0.088040 0.172903
H46   H     H_    0.479121 0.695713 0.089034 0.146136
H47   H     H_    0.110195 0.303996 0.089041 0.150054
H48   H     H_    0.390280 0.363076 0.363200 0.173567
H49   H     H_    0.370727 0.304020 0.309655 0.187990
H50   H     H_    0.390306 0.636922 0.363242 0.173547
H51   H     H_    0.370755 0.695972 0.309689 0.187682
H52   H     H_    0.828434 0.755840 0.235363 0.166510
H53   H     H_    0.869933 0.701042 0.305173 0.195957
H54   H     H_    0.828434 0.244215 0.235373 0.166175
H55   H     H_    0.869960 0.298996 0.305219 0.195892
H56   H     H_    0.978987 0.804171 0.089037 0.146806
H57   H     H_    0.057198 0.166091 0.088634 0.175939
H58   H     H_    0.539275 0.263531 0.667354 0.176386
H59   H     H_    0.539280 0.736479 0.667358 0.176485
H60   H     H_    0.990533 0.828290 0.568659 0.173987
H61   H     H_    0.442408 0.833899 0.911380 0.175875
H62   H     H_    0.990505 0.171703 0.568606 0.173973
H63   H     H_    0.520853 0.196321 0.630975 0.159517
H64   H     H_    0.520850 0.803685 0.630974 0.159590
H65   H     H_    0.036425 0.776386 0.661797 0.182595
H66   H     H_    0.036416 0.223588 0.661778 0.182942
H67   H     H_    0.609728 0.196197 0.630854 0.153511
H68   H     H_    0.609720 0.803817 0.630840 0.153654
H69   H     H_    0.125042 0.775363 0.662911 0.175848
H70   H     H_    0.125035 0.224605 0.662895 0.175979
H71   H     H_    0.627887 0.263468 0.667407 0.178096
H72   H     H_    0.942542 0.666094 0.911377 0.176249
H73   H     H_    0.627897 0.736553 0.667419 0.178383
H74   H     H_    0.079655 0.827919 0.571010 0.176416
H75   H     H_    0.079623 0.172069 0.570949 0.176401
H76   H     H_    0.473654 0.332774 0.532502 0.152000
H77   H     H_    0.473666 0.667232 0.532528 0.152012
H78   H     H_    0.897117 0.809848 0.379547 0.120374
H79   H     H_    0.897096 0.190180 0.379507 0.120299
H80   H     H_    0.557886 0.334157 0.525453 0.165255
H81   H     H_    0.557907 0.665852 0.525497 0.165299
H82   H     H_    0.983651 0.808537 0.376301 0.135327
H83   H     H_    0.876198 0.280790 0.911969 0.171652
H84   H     H_    0.983630 0.191489 0.376261 0.135200
H85   H     H_    0.375628 0.216632 0.340816 0.176932
H86   H     H_    0.375631 0.783364 0.340824 0.176691
H87   H     H_    0.939294 0.665941 0.468983 0.176948
H88   H     H_    0.939329 0.334065 0.469055 0.176921
H89   H     H_    0.509448 0.184242 0.910972 0.146692
H90   H     H_    0.509465 0.815747 0.910971 0.146747
H91   H     H_    0.009565 0.684373 0.910973 0.147026
H92   H     H_    0.925659 0.330023 0.911962 0.171850
H93   H     H_    0.428464 0.169748 0.443083 0.170110
H94   H     H_    0.574811 0.329808 0.088048 0.171152
H95   H     H_    0.428465 0.830249 0.443081 0.170125
H96   H     H_    0.008127 0.683231 0.603188 0.148639
H97   H     H_    0.008153 0.316749 0.603242 0.148828
H98   H     H_    0.513131 0.170584 0.436918 0.175129
H99   H     H_    0.513124 0.829411 0.436900 0.175138
H100  H     H_    0.094039 0.680541 0.597682 0.149175
H101  H     H_    0.094070 0.319440 0.597743 0.149256
H102  H     H_    0.463103 0.220523 0.339384 0.171018
H103  H     H_    0.463104 0.779465 0.339389 0.170925
H104  H     H_    0.023824 0.667567 0.460742 0.177421
H105  H     H_    0.574790 0.670180 0.088048 0.171130
H106  H     H_    0.023861 0.332443 0.460814 0.177361
H107  H     H_    0.491622 0.315827 0.391593 0.148542
H108  H     H_    0.491646 0.684167 0.391635 0.148490
H109  H     H_    0.961817 0.743053 0.330566 0.173825
H110  H     H_    0.961823 0.256983 0.330578 0.173535
H111  H     H_    0.299366 0.044026 0.659846 0.171838
H112  H     H_    0.299366 0.955974 0.659846 0.171831
H113  H     H_    0.679209 0.544322 0.526145 0.175957
H114  H     H_    0.679207 0.455678 0.526142 0.175933
H115  H     H_    0.200671 0.044026 0.561117 0.171417
H116  H     H_    0.074584 0.829898 0.088040 0.171540
H117  H     H_    0.200671 0.955974 0.561116 0.171414
H118  H     H_    0.630295 0.544515 0.391637 0.146309
H119  H     H_    0.630294 0.455486 0.391636 0.146321
H120  H     H_    0.369668 0.044515 0.608281 0.146510
H121  H     H_    0.369668 0.955487 0.608282 0.146523
H122  H     H_    0.820735 0.544322 0.667777 0.176112
H123  H     H_    0.820732 0.455680 0.667775 0.175920
H124  H     H_    0.179202 0.044322 0.332189 0.175973
H125  H     H_    0.179206 0.955680 0.332191 0.175777
H126  H     H_    0.799351 0.544027 0.438922 0.171764
H127  H     H_    0.128121 0.236697 0.088634 0.176729
H128  H     H_    0.799351 0.455974 0.438922 0.171763
H129  H     H_    0.130300 0.044514 0.368823 0.146477
H130  H     H_    0.130300 0.955486 0.368822 0.146409
H131  H     H_    0.700654 0.544026 0.340148 0.171471
H132  H     H_    0.700654 0.455974 0.340148 0.171464
H133  H     H_    0.598476 0.184253 0.089039 0.148508
H134  H     H_    0.598494 0.815735 0.089038 0.148559
H135  H     H_    0.098590 0.684385 0.089038 0.150122
H136  H     H_    0.013706 0.330014 0.088082 0.172266
H137  H     H_    0.238515 0.455483 0.368784 0.150582
H138  H     H_    0.390116 0.304287 0.910980 0.146249
H139  H     H_    0.238517 0.544517 0.368784 0.150650
H140  H     H_    0.846910 0.955677 0.526118 0.175590
H141  H     H_    0.846911 0.044323 0.526120 0.175613
H142  H     H_    0.320720 0.044321 0.473759 0.175548
H143  H     H_    0.320722 0.955679 0.473761 0.175526
H144  H     H_    0.869671 0.544514 0.631192 0.146750
H145  H     H_    0.869670 0.455486 0.631192 0.146685
H146  H     H_    0.360486 0.455972 0.659809 0.170900
H147  H     H_    0.360486 0.544028 0.659809 0.170905
H148  H     H_    0.761552 0.955485 0.631268 0.146485
N1    N     N_3   0.384577 0.323892 0.371644 -0.486475
N2    N     N_3   0.384597 0.676105 0.371671 -0.486640
N3    N     N_3   0.852736 0.737848 0.305112 -0.446520
N4    N     N_3   0.852747 0.262194 0.305134 -0.446546
O1    O     O_3   0.249990 0.249990 0.500000 -0.458350
O2    O     O_R   0.249990 0.866860 0.561260 -0.652439
O3    O     O_R   0.749990 0.633140 0.561260 -0.649704
O4    O     O_R   0.749990 0.366860 0.561260 -0.649774
O5    O     O_R   0.102520 0.280640 0.438750 -0.651007
O6    O     O_R   0.102520 0.719360 0.438750 -0.650919
O7    O     O_R   0.602520 0.780640 0.438750 -0.653038
O8    O     O_R   0.602520 0.219360 0.438750 -0.652990
O9    O     O_R   0.336190 0.219350 0.438710 -0.651361
O10   O     O_R   0.336190 0.780650 0.438710 -0.651416
O11   O     O_R   0.836190 0.719350 0.438710 -0.623978
O12   O     O_3   0.249990 0.750010 0.500000 -0.458355
O13   O     O_R   0.836190 0.280650 0.438710 -0.624004
O14   O     O_R   0.163790 0.219360 0.561280 -0.653077
O15   O     O_R   0.163790 0.780640 0.561280 -0.653125
O16   O     O_R   0.663790 0.719360 0.561280 -0.649439
O17   O     O_R   0.663790 0.280640 0.561280 -0.649524
O18   O     O_R   0.397470 0.280620 0.561260 -0.652786
O19   O     O_R   0.397470 0.719380 0.561260 -0.652736
O20   O     O_R   0.897470 0.780620 0.561260 -0.660378
O21   O     O_R   0.897470 0.219380 0.561260 -0.660296
O22   O     O_R   0.188730 0.366850 0.438750 -0.649816
O23   O     O_3   0.749990 0.749990 0.500000 -0.459357
O24   O     O_R   0.188730 0.633150 0.438750 -0.649754
O25   O     O_R   0.688730 0.866850 0.438750 -0.652230
O26   O     O_R   0.688730 0.133150 0.438750 -0.652263
O27   O     O_R   0.249980 0.133140 0.438710 -0.651103
O28   O     O_R   0.249980 0.866860 0.438710 -0.651185
O29   O     O_R   0.749980 0.633140 0.438710 -0.653610
O30   O     O_R   0.749980 0.366860 0.438710 -0.653575
O31   O     O_R   0.102500 0.280640 0.266310 -0.652253
O32   O     O_R   0.102500 0.719360 0.266310 -0.649623
O33   O     O_R   0.602500 0.780640 0.266310 -0.650552
O34   O     O_3   0.749990 0.250010 0.500000 -0.459362
O35   O     O_R   0.602500 0.219360 0.266310 -0.650537
O36   O     O_R   0.336220 0.219350 0.733700 -0.649922
O37   O     O_R   0.336220 0.780650 0.733700 -0.649939
O38   O     O_R   0.836220 0.719350 0.733700 -0.649659
O39   O     O_R   0.836220 0.280650 0.733700 -0.652429
O40   O     O_R   0.163750 0.219360 0.266290 -0.647932
O41   O     O_R   0.163750 0.780640 0.266290 -0.650589
O42   O     O_R   0.663750 0.719360 0.266290 -0.647111
O43   O     O_R   0.663750 0.280640 0.266290 -0.647120
O44   O     O_R   0.397490 0.280620 0.733700 -0.653757
O45   O     O_R   0.311270 0.366840 0.561280 -0.650231
O46   O     O_R   0.397490 0.719380 0.733700 -0.653745
O47   O     O_R   0.897490 0.780620 0.733700 -0.652191
O48   O     O_R   0.897490 0.219380 0.733700 -0.649423
O49   O     O_R   0.311270 0.633160 0.561280 -0.650260
O50   O     O_R   0.811270 0.866840 0.561280 -0.649422
O51   O     O_R   0.811270 0.133160 0.561280 -0.649357
O52   O     O_R   0.249990 0.133140 0.561260 -0.652471
Zn1   Zn    Zn3+2 0.337540 0.293760 0.587540 0.944980
Zn2   Zn    Zn3+2 0.249980 0.793780 0.412450 0.945377
Zn3   Zn    Zn3+2 0.749980 0.706220 0.412450 0.951170
Zn4   Zn    Zn3+2 0.749980 0.293780 0.412450 0.951163
Zn5   Zn    Zn3+2 0.250000 0.206220 0.587540 0.937635
Zn6   Zn    Zn3+2 0.250000 0.793780 0.587540 0.937604
Zn7   Zn    Zn3+2 0.750000 0.706220 0.587540 0.939814
Zn8   Zn    Zn3+2 0.750000 0.293780 0.587540 0.938792
Zn9   Zn    Zn3+2 0.337540 0.706240 0.587540 0.945017
Zn10  Zn    Zn3+2 0.837540 0.793760 0.587540 0.938548
Zn11  Zn    Zn3+2 0.837540 0.206240 0.587540 0.939577
Zn12  Zn    Zn3+2 0.162450 0.293770 0.412470 0.942475
Zn13  Zn    Zn3+2 0.162450 0.706230 0.412470 0.943472
Zn14  Zn    Zn3+2 0.662450 0.793770 0.412470 0.939088
Zn15  Zn    Zn3+2 0.662450 0.206230 0.412470 0.939109
Zn16  Zn    Zn3+2 0.249980 0.206220 0.412450 0.946342

loop_
_geom_bond_atom_site_label_1
_geom_bond_atom_site_label_2
_ccdc_geom_bond_type
C78   H106  S    
C113  O26   A    
C41   H60   S    
O37   Zn6   S    
C119  O28   A    
O12   Zn6   S    
C21   C110  S    
C50   H78   S    
C3    O4    A    
C76   H104  S    
C54   H96   S    
O21   Zn11  S    
C50   C59   S    
C47   H75   S    
O8    Zn15  S    
C77   H36   S    
O42   Zn3   S    
C44   O7    A    
C9    O37   A    
C100  C104  S    
C101  H8    S    
C11   O39   A    
C81   H118  S    
O4    Zn8   S    
C50   C72   S    
C101  H137  S    
H50   N2    S    
C97   C115  S    
C25   C34   S    
C33   O6    A    
O13   Zn4   S    
C8    O44   A    
C96   C114  S    
C53   C75   S    
H52   N3    S    
C44   O16   A    
C1    O14   A    
C55   C65   S    
C114  C115  S    
C91   H132  S    
C38   H47   S    
C40   C58   S    
C89   H130  S    
C27   C31   S    
C28   C32   S    
C98   C112  S    
C22   C31   S    
O14   Zn5   S    
C23   H13   S    
C35   C66   S    
O19   Zn9   S    
C35   H43   S    
C4    O31   A    
C61   O9    A    
C1    O5    A    
C99   H42   S    
C118  O52   A    
C75   H99   S    
C68   C72   S    
C66   C110  S    
C79   H111  S    
O39   Zn8   S    
C19   H135  S    
C87   C89   S    
O10   Zn2   S    
C81   H113  S    
C120  O29   A    
C39   H58   S    
C55   O17   A    
C21   C30   S    
C34   H33   S    
C74   H102  S    
C91   H128  S    
C70   H80   S    
O24   Zn13  S    
C48   C70   S    
C37   H45   S    
C53   C58   S    
C57   C61   S    
C23   H28   S    
C59   C63   S    
C60   C64   S    
C21   H26   S    
C2    C22   S    
C112  O50   A    
O22   Zn12  S    
C85   H122  S    
C89   H125  S    
C84   C93   S    
C2    C14   S    
C103  H10   S    
C86   C95   S    
C9    O46   A    
C26   C35   S    
C11   O48   A    
C49   C71   S    
C34   H57   S    
C3    C95   S    
C100  C117  S    
C80   C93   S    
H48   N1    S    
C98   C103  S    
C80   H117  S    
C36   H105  S    
C90   C94   S    
C103  H140  S    
O46   Zn9   S    
O16   Zn7   S    
C12   C110  S    
C48   C57   S    
C49   H77   S    
C85   C86   S    
C18   H134  S    
C7    C26   S    
C12   H89   S    
C52   C74   S    
C114  H146  S    
C65   C70   S    
C56   C78   S    
C13   C23   S    
C25   H29   S    
C92   C118  S    
C47   C69   S    
C94   C120  S    
C12   H1    S    
C33   O15   A    
C104  H11   S    
C29   C38   S    
O9    Zn16  S    
C107  C108  S    
O30   Zn4   S    
C5    O41   A    
C7    O35   A    
O2    Zn6   S    
C51   N4    S    
O27   Zn16  S    
C80   H112  S    
C66   H39   S    
C35   H94   S    
C46   H74   S    
C54   C59   S    
C10   O38   A    
C100  C108  S    
O49   Zn9   S    
C52   H85   S    
O36   Zn5   S    
H53   N3    S    
H54   N4    S    
O52   Zn5   S    
C65   C74   S    
C109  O45   A    
O33   Zn14  S    
C46   C68   S    
C8    C110  S    
C31   H31   S    
O17   Zn8   S    
C83   C84   S    
C32   H32   S    
C82   H119  S    
C74   H98   S    
C53   H86   S    
O28   Zn2   S    
C19   C28   S    
C64   O21   A    
C10   O47   A    
C26   C30   S    
C63   O20   A    
O48   Zn11  S    
C25   H24   S    
C67   C75   S    
C46   H69   S    
C72   H82   S    
O45   Zn1   S    
C87   H129  S    
C83   H120  S    
C82   C95   S    
O12   Zn13  S    
C4    C29   S    
C116  H148  S    
C68   C76   S    
C90   H131  S    
O43   Zn4   S    
C47   H70   S    
O3    Zn7   S    
C79   H115  S    
O20   Zn10  S    
C119  O2    A    
C81   C94   S    
C87   H124  S    
C28   C37   S    
O25   Zn14  S    
C107  H19   S    
C105  H17   S    
C106  H14   S    
C62   O19   A    
C50   N3    S    
O23   Zn3   S    
H51   N2    S    
C51   C60   S    
C93   C119  S    
C96   C101  S    
C2    C9    S    
H55   N4    S    
C33   C68   S    
C64   O13   A    
C58   C62   S    
C96   C105  S    
C101  C102  S    
O7    Zn14  S    
C71   H108  S    
C37   C88   S    
O34   Zn11  S    
C42   H62   S    
C15   C19   S    
C120  O3    A    
C36   C77   S    
C97   C111  S    
C30   H30   S    
C61   O18   A    
O32   Zn13  S    
C17   H21   S    
O34   Zn4   S    
C107  H15   S    
C86   H123  S    
C12   C17   S    
C45   C67   S    
C69   C73   S    
C84   H121  S    
O23   Zn7   S    
C3    O30   A    
C97   C102  S    
C49   N2    S    
C55   O8    A    
C53   H95   S    
C87   C92   S    
O31   Zn12  S    
C56   H97   S    
C115  H147  S    
O34   Zn15  S    
C20   H136  S    
C105  H12   S    
C6    O33   A    
C45   H73   S    
C40   C45   S    
C100  C113  S    
O23   Zn10  S    
O51   Zn11  S    
C70   H107  S    
C66   H34   S    
O15   Zn6   S    
C29   C34   S    
C89   C93   S    
C1    C69   S    
C98   C107  S    
C56   C60   S    
O34   Zn8   S    
C40   H59   S    
C6    O42   A    
C56   H88   S    
C43   C65   S    
C88   H37   S    
C117  H7    S    
O18   Zn1   S    
C97   C106  S    
C30   H35   S    
C82   H114  S    
C104  H141  S    
C85   H144  S    
O35   Zn15  S    
C14   H61   S    
O11   Zn3   S    
O26   Zn15  S    
C62   O10   A    
O23   Zn14  S    
C38   C99   S    
C27   C36   S    
C105  C106  S    
C8    O36   A    
C23   C32   S    
C2    C77   S    
C4    O40   A    
C90   C91   S    
C76   H100  S    
C90   H126  S    
C7    O43   A    
C67   C71   S    
C52   C57   S    
C77   H40   S    
O38   Zn7   S    
C22   H27   S    
C103  C104  S    
C36   H44   S    
C20   H25   S    
C22   H2    S    
C86   H145  S    
C39   H63   S    
C40   H64   S    
O47   Zn10  S    
C15   H72   S    
H49   N1    S    
O29   Zn3   S    
C24   C99   S    
C14   C18   S    
C102  H9    S    
C81   C82   S    
C63   O11   A    
C116  C117  S    
C83   C92   S    
C32   H56   S    
C17   H133  S    
C118  O27   A    
C17   C26   S    
C108  H16   S    
C21   H138  S    
C106  H18   S    
C109  O22   A    
C88   H41   S    
C39   C57   S    
C11   C24   S    
C102  H139  S    
C13   C88   S    
C15   H91   S    
C41   C46   S    
C84   H143  S    
C43   H67   S    
O41   Zn2   S    
C16   H83   S    
C16   C20   S    
C114  H4    S    
C42   H66   S    
C75   H103  S    
C16   C24   S    
C116  H6    S    
C48   H76   S    
O1    Zn5   S    
C69   C78   S    
C111  O49   A    
C73   H110  S    
O40   Zn16  S    
C20   C29   S    
O50   Zn10  S    
C73   H84   S    
C72   H109  S    
C14   H90   S    
O6    Zn13  S    
C16   H92   S    
C24   C25   S    
C41   C59   S    
C42   C60   S    
C108  H20   S    
C39   C43   S    
C91   C95   S    
O1    Zn12  S    
C49   C58   S    
O1    Zn1   S    
C5    C28   S    
C113  O51   A    
C85   C94   S    
C98   C116  S    
C6    C27   S    
C31   H46   S    
C41   H65   S    
O12   Zn9   S    
C79   C92   S    
C96   C109  S    
C51   H79   S    
C54   C76   S    
C48   N1    S    
C13   C15   S    
C37   H116  S    
C71   H81   S    
C18   H22   S    
C19   H23   S    
C111  O24   A    
O12   Zn2   S    
C18   C27   S    
C51   C73   S    
C44   C67   S    
C10   C13   S    
C45   H68   S    
C112  O25   A    
C115  H5    S    
O1    Zn16  S    
C117  H3    S    
O44   Zn1   S    
C38   H127  S    
O5    Zn12  S    
C52   H93   S    
C42   C47   S    
C5    O32   A    
C78   H101  S    
C43   H71   S    
C79   C80   S    
C54   H87   S    
C99   H38   S    
C83   H142  S    
