data_mof_unit_33401.cif
_audit_creation_date              2012-12-10T17:15:46-0500
_audit_creation_method            fapswitch 2.2
_symmetry_space_group_name_H-M    P1
_symmetry_Int_Tables_number       1
_space_group_crystal_system       triclinic
_cell_length_a                    17.33203
_cell_length_b                    13.044002
_cell_length_c                    11.649282
_cell_angle_alpha                 100.546708
_cell_angle_beta                  89.622327
_cell_angle_gamma                 91.028445
_cell_volume                      2588.73371107

loop_
_atom_site_label
_atom_site_type_symbol
_atom_type_description
_atom_site_fract_x
_atom_site_fract_y
_atom_site_fract_z
_atom_type_partial_charge
C1    C     C_R   0.496185 0.298814 0.477902 0.870028
C2    C     C_R   0.501659 0.701067 0.522159 0.865054
C3    C     C_R   0.499454 0.814918 0.537071 -0.267856
C4    C     C_R   0.490449 0.184586 0.462632 -0.341865
C5    C     C_R   0.519047 0.014721 0.348038 0.492825
C6    C     C_R   0.453705 0.980129 0.645426 0.412605
C7    C     C_R   0.513064 0.121842 0.356268 0.228872
C8    C     C_R   0.467852 0.873358 0.639622 0.240116
C9    C     C_R   0.465019 0.137294 0.556352 0.363183
C10   C     C_R   0.523522 0.863901 0.444566 0.339276
C11   C     C_R   0.474755 0.029298 0.550586 -0.162569
C12   C     C_R   0.506087 0.968906 0.447424 -0.209746
C13   C     C_R   0.416573 0.418647 0.031992 0.365381
C14   C     C_R   0.583055 0.584590 0.969407 0.344780
C15   C     C_R   0.427436 0.422333 0.152612 -0.025853
C16   C     C_R   0.573797 0.575992 0.846546 -0.026072
C17   C     C_R   0.536283 0.534387 0.152987 0.071932
C18   C     C_R   0.462795 0.467655 0.847671 0.076776
C19   C     C_R   0.530160 0.530533 0.030711 -0.087042
C20   C     C_R   0.469308 0.471694 0.969556 -0.105129
C21   C     C_R   0.350664 0.503437 0.515608 0.802890
C22   C     C_R   0.649327 0.499734 0.484463 0.819330
C23   C     C_R   0.266941 0.515899 0.523533 -0.087111
C24   C     C_R   0.733414 0.502355 0.475374 -0.091617
C25   C     C_R   0.225349 0.516943 0.420846 -0.208878
C26   C     C_R   0.778109 0.513583 0.576734 -0.202273
C27   C     C_R   0.146966 0.534962 0.425505 -0.223707
C28   C     C_R   0.857850 0.515989 0.569218 -0.224858
C29   C     C_R   0.107870 0.549941 0.532727 0.089186
C30   C     C_R   0.894407 0.509038 0.460259 0.092566
C31   C     C_R   0.148977 0.549901 0.636713 0.461330
C32   C     C_R   0.850190 0.498661 0.357822 0.480368
C33   C     C_R   0.228673 0.533705 0.631688 -0.277975
C34   C     C_R   0.769563 0.493798 0.366036 -0.268834
C35   C     C_2   0.023823 0.561786 0.536266 -0.230852
C36   C     C_2   0.978816 0.507964 0.452207 -0.209157
Cu1   Cu    Cu3+1 0.505800 0.507690 0.615350 0.977247
Cu2   Cu    Cu3+1 0.494200 0.492310 0.384650 0.955053
H1    H     H_    0.253463 0.505447 0.336236 0.158125
H2    H     H_    0.751586 0.519382 0.662104 0.163037
H3    H     H_    0.614385 0.613225 0.795935 0.118251
H4    H     H_    0.388398 0.379206 0.199765 0.131269
H5    H     H_    0.735560 0.482877 0.286936 0.177312
H6    H     H_    0.260220 0.535466 0.712036 0.165962
H7    H     H_    0.004191 0.459366 0.376204 0.188453
H8    H     H_    0.998494 0.609720 0.612777 0.189079
H9    H     H_    0.890690 0.520682 0.648794 0.151779
H10   H     H_    0.117208 0.538017 0.344807 0.153166
H11   H     H_    0.416750 0.422411 0.799230 0.172001
H12   H     H_    0.581497 0.580659 0.202322 0.184437
N1    N     N_R   0.514530 0.519260 0.788680 -0.203239
N2    N     N_R   0.485470 0.480740 0.211320 -0.215213
O1    O     O_R   0.504120 0.354440 0.581590 -0.555194
O2    O     O_R   0.495880 0.645560 0.418410 -0.583341
O3    O     O_R   0.494320 0.341440 0.386760 -0.565847
O4    O     O_R   0.505680 0.658560 0.613240 -0.521645
O5    O     O_R   0.391870 0.507230 0.608700 -0.596360
O6    O     O_R   0.608130 0.492770 0.391300 -0.589455
O7    O     O_R   0.382070 0.494240 0.413880 -0.604512
O8    O     O_R   0.617930 0.505760 0.586120 -0.598160
O9    O     O_3   0.357302 0.358100 0.974783 -0.585878
C37   C     C_3   0.287135 0.411197 0.000131 0.043092
H13   H     H_    0.285106 0.478633 0.953890 0.150417
H14   H     H_    0.278840 0.439657 0.095583 0.128186
C38   C     C_3   0.220299 0.337009 0.958390 -0.818429
H15   H     H_    0.221298 0.268994 0.003402 0.251333
H16   H     H_    0.164835 0.377606 0.978932 0.210910
H17   H     H_    0.224591 0.309208 0.862630 0.240369
O10   O     O_3   0.644552 0.638047 0.031957 -0.599104
C39   C     C_3   0.674873 0.721087 0.981916 0.032793
H18   H     H_    0.628849 0.764913 0.946507 0.150254
H19   H     H_    0.716615 0.690564 0.911562 0.140175
C40   C     C_3   0.717418 0.797397 0.075641 -0.717001
H20   H     H_    0.764732 0.757429 0.112658 0.226885
H21   H     H_    0.742389 0.862599 0.037336 0.202974
H22   H     H_    0.676819 0.829601 0.146797 0.297071
O11   O     O_3   0.112186 0.570376 0.743880 -0.588477
C41   C     C_3   0.085459 0.475091 0.771851 0.040842
H23   H     H_    0.134759 0.424005 0.781728 0.145384
H24   H     H_    0.045707 0.433104 0.703528 0.148606
C42   C     C_3   0.041188 0.497014 0.886683 -0.792532
H25   H     H_    0.990615 0.546182 0.878166 0.244759
H26   H     H_    0.020514 0.422487 0.910293 0.203815
H27   H     H_    0.079216 0.538331 0.957298 0.249882
O12   O     O_3   0.886504 0.485057 0.249808 -0.596164
C43   C     C_3   0.868987 0.566997 0.189888 0.041116
H28   H     H_    0.923558 0.609582 0.177285 0.163360
H29   H     H_    0.828194 0.626001 0.236419 0.129922
C44   C     C_3   0.836084 0.521412 0.070161 -0.749727
H30   H     H_    0.779916 0.481520 0.079752 0.258418
H31   H     H_    0.827046 0.584637 0.019762 0.205039
H32   H     H_    0.876761 0.464448 0.021137 0.247034
O13   O     O_3   0.566549 0.811497 0.352435 -0.669907
H33   H     H_    0.600786 0.762281 0.382231 0.312006
O14   O     O_3   0.432020 0.195911 0.654544 -0.647519
H34   H     H_    0.397539 0.247153 0.628865 0.301270
O15   O     O_3   0.449215 0.823709 0.731781 -0.715538
H35   H     H_    0.439453 0.875735 0.803338 0.348739
O16   O     O_3   0.531817 0.163218 0.259055 -0.658800
H36   H     H_    0.483511 0.192596 0.234596 0.327857
O17   O     O_3   0.537175 0.955128 0.240628 -0.495750
C45   C     C_3   0.467480 0.923045 0.181269 0.117769
H37   H     H_    0.436782 0.991417 0.159864 0.126088
H38   H     H_    0.428655 0.880762 0.234269 0.127418
C46   C     C_3   0.485279 0.849243 0.067844 -0.734618
H39   H     H_    0.430896 0.824182 0.020172 0.189971
H40   H     H_    0.523256 0.889033 0.011913 0.250912
H41   H     H_    0.514404 0.779282 0.087122 0.267202
O18   O     O_3   0.420192 0.035957 0.745186 -0.520564
C47   C     C_3   0.339170 0.022752 0.736328 0.083523
H42   H     H_    0.321405 0.938933 0.723630 0.138313
H43   H     H_    0.316750 0.056840 0.662414 0.146447
C48   C     C_3   0.302432 0.078698 0.848664 -0.746285
H44   H     H_    0.320487 0.162052 0.864665 0.308221
H45   H     H_    0.238582 0.072916 0.841642 0.185398
H46   H     H_    0.321067 0.043007 0.923282 0.235215

loop_
_geom_bond_atom_site_label_1
_geom_bond_atom_site_label_2
_ccdc_geom_bond_type
C27   H10   S    
C28   H9    S    
O17   C45   S    
C27   C29   A    
C40   H20   S    
C19   C20   A    
C16   N1    A    
C42   H25   S    
O11   C41   S    
C46   H40   S    
O13   H33   S    
C7    O16   S    
C22   C24   S    
Cu1   Cu2   S    
C24   C26   A    
C21   O7    A    
C22   O8    A    
Cu1   N1    S    
C41   H24   S    
Cu2   N2    S    
O15   H35   S    
C45   C46   S    
C1    O1    A    
C47   H42   S    
C37   H14   S    
C17   C19   A    
Cu2   O6    S    
Cu1   O4    S    
Cu2   O3    S    
O14   H34   S    
C38   H16   S    
C31   C33   A    
C39   H18   S    
C44   H31   S    
C9    O14   S    
C13   C20   A    
C48   H46   S    
Cu1   O1    S    
C40   H21   S    
O9    C37   S    
C4    C7    A    
C17   N2    A    
C42   H26   S    
C18   N1    A    
C31   O11   S    
C46   H41   S    
C5    O17   S    
C43   H29   S    
C45   H37   S    
C5    C12   A    
C3    C8    A    
C2    O2    A    
C6    C11   A    
C5    C7    A    
C43   H28   S    
C6    C8    A    
C10   O13   S    
C23   C33   A    
O12   C43   S    
C24   C34   A    
C35   C36   D    
C32   C34   A    
C8    O15   S    
C21   O5    A    
C37   H13   S    
O16   H36   S    
Cu2   O2    S    
C38   H17   S    
C39   C40   S    
C36   H7    S    
C15   N2    A    
C44   H32   S    
C45   H38   S    
C9    C11   A    
C47   C48   S    
C10   C12   A    
C21   C23   S    
C14   O10   S    
C14   C16   A    
C44   H30   S    
C42   H27   S    
C48   H44   S    
C37   C38   S    
C41   H23   S    
C33   H6    S    
C14   C19   A    
C34   H5    S    
C15   H4    S    
C43   C44   S    
C17   H12   S    
C22   O6    A    
C11   C12   A    
C25   C27   A    
C46   H39   S    
C29   C35   S    
C26   C28   A    
C30   C36   S    
C1    C4    S    
C13   C15   A    
C2    C3    S    
C1    O3    A    
C29   C31   A    
C3    C10   A    
C2    O4    A    
O18   C47   S    
C25   H1    S    
C30   C32   A    
C41   C42   S    
C26   H2    S    
C32   O12   S    
C28   C30   A    
C6    O18   S    
C18   C20   A    
C23   C25   A    
O10   C39   S    
C47   H43   S    
Cu1   O8    S    
Cu2   O7    S    
C13   O9    S    
C40   H22   S    
C38   H15   S    
C39   H19   S    
C4    C9    A    
C35   H8    S    
C16   H3    S    
Cu1   O5    S    
C18   H11   S    
C48   H45   S    
