data_mof_unit_43309.cif
_audit_creation_date              2012-12-11T14:42:19-0500
_audit_creation_method            fapswitch 2.2
_symmetry_space_group_name_H-M    P1
_symmetry_Int_Tables_number       1
_space_group_crystal_system       triclinic
_cell_length_a                    18.899677
_cell_length_b                    10.952968
_cell_length_c                    18.738093
_cell_angle_alpha                 89.808909
_cell_angle_beta                  90.718713
_cell_angle_gamma                 90.223308
_cell_volume                      3878.5712865

loop_
_atom_site_label
_atom_site_type_symbol
_atom_type_description
_atom_site_fract_x
_atom_site_fract_y
_atom_site_fract_z
_atom_type_partial_charge
C1    C     C_R   0.728100 0.953221 0.853018 0.537358
C2    C     C_R   0.252203 0.397280 0.920021 0.030262
C3    C     C_R   0.247829 0.897750 0.079931 0.031321
C4    C     C_R   0.752203 0.897280 0.920021 0.030262
C5    C     C_R   0.790686 0.309228 0.048274 -0.124165
C6    C     C_R   0.209301 0.308273 0.951944 -0.125605
C7    C     C_R   0.290686 0.809228 0.048274 -0.124166
C8    C     C_R   0.709300 0.808273 0.951944 -0.125606
C9    C     C_R   0.780712 0.278909 0.977300 -0.129695
C10   C     C_R   0.219370 0.277949 0.022982 -0.129692
C11   C     C_R   0.280712 0.778910 0.977300 -0.129695
C12   C     C_R   0.271904 0.953523 0.146953 0.544146
C13   C     C_R   0.719370 0.777950 0.022982 -0.129692
C14   C     C_R   0.727322 0.335207 0.936778 0.027298
C15   C     C_R   0.272900 0.334718 0.063233 0.025783
C16   C     C_R   0.227322 0.835206 0.936778 0.027298
C17   C     C_R   0.772900 0.834718 0.063233 0.025783
C18   C     C_R   0.456402 0.269673 0.551477 -0.116262
C19   C     C_R   0.438494 0.272940 0.480093 -0.113342
C20   C     C_R   0.956404 0.769676 0.551476 -0.116262
C21   C     C_R   0.938496 0.772943 0.480092 -0.113342
C22   C     C_R   0.449567 0.170484 0.437884 0.030468
C23   C     C_R   0.228100 0.453221 0.853018 0.537358
C24   C     C_R   0.487617 0.164940 0.580447 0.023235
C25   C     C_R   0.949566 0.670484 0.437884 0.030468
C26   C     C_R   0.987616 0.664941 0.580447 0.023235
C27   C     C_R   0.474510 0.061470 0.468400 -0.135533
C28   C     C_R   0.493046 0.058413 0.539898 -0.139704
C29   C     C_R   0.974506 0.561469 0.468401 -0.135532
C30   C     C_R   0.993042 0.558412 0.539900 -0.139704
C31   C     C_R   0.813984 0.400039 0.543972 -0.123259
C32   C     C_R   0.203652 0.325696 0.468727 -0.132755
C33   C     C_R   0.313984 0.900043 0.543972 -0.123259
C34   C     C_R   0.771904 0.453523 0.146953 0.544145
C35   C     C_R   0.703652 0.825697 0.468727 -0.132755
C36   C     C_R   0.818918 0.403660 0.471001 -0.138160
C37   C     C_R   0.202982 0.336025 0.541580 -0.156531
C38   C     C_R   0.318919 0.903665 0.471002 -0.138160
C39   C     C_R   0.702982 0.836025 0.541580 -0.156532
C40   C     C_R   0.529911 0.177342 0.850797 0.544210
C41   C     C_R   0.470055 0.177832 0.149186 0.558960
C42   C     C_R   0.029911 0.677342 0.850797 0.544210
C43   C     C_R   0.970055 0.677832 0.149186 0.558960
C44   C     C_R   0.759267 0.428895 0.427915 0.037320
C45   C     C_R   0.689266 0.443859 0.041982 -0.145098
C46   C     C_R   0.248332 0.418599 0.575995 0.033640
C47   C     C_R   0.259267 0.928896 0.427915 0.037320
C48   C     C_R   0.748332 0.918598 0.575995 0.033641
C49   C     C_R   0.693143 0.448311 0.459687 0.063667
C50   C     C_R   0.299474 0.484051 0.535906 0.069121
C51   C     C_R   0.193143 0.948310 0.459687 0.063666
C52   C     C_R   0.799474 0.984050 0.535906 0.069121
C53   C     C_R   0.688126 0.439511 0.533471 -0.114597
C54   C     C_R   0.298950 0.473830 0.461995 -0.127915
C55   C     C_R   0.188126 0.939509 0.533471 -0.114597
C56   C     C_R   0.310900 0.443923 0.957717 -0.145742
C57   C     C_R   0.798951 0.973829 0.461995 -0.127915
C58   C     C_R   0.748204 0.411822 0.575419 0.002926
C59   C     C_R   0.251538 0.394509 0.428302 0.004446
C60   C     C_R   0.248204 0.911822 0.575419 0.002926
C61   C     C_R   0.751539 0.894508 0.428303 0.004446
C62   C     C_R   0.723814 0.311643 0.859955 0.560419
C63   C     C_R   0.276259 0.311394 0.140110 0.563188
C64   C     C_R   0.223815 0.811643 0.859955 0.560419
C65   C     C_R   0.776259 0.811394 0.140110 0.563188
C66   C     C_R   0.728567 0.955114 0.647559 0.563155
C67   C     C_R   0.189266 0.943858 0.041982 -0.145098
C68   C     C_R   0.272729 0.956455 0.353423 0.559958
C69   C     C_R   0.228567 0.455114 0.647559 0.563155
C70   C     C_R   0.772729 0.456455 0.353423 0.559957
C71   C     C_R   0.527513 0.175808 0.646152 0.553330
C72   C     C_R   0.435965 0.180090 0.362211 0.563692
C73   C     C_R   0.027513 0.675808 0.646152 0.553330
C74   C     C_R   0.935964 0.680090 0.362211 0.563693
C75   C     C_R   0.739301 0.363921 0.646770 0.563419
C76   C     C_R   0.260845 0.360472 0.354459 0.551303
C77   C     C_R   0.239301 0.863921 0.646770 0.563419
C78   C     C_R   0.810900 0.943923 0.957717 -0.145742
C79   C     C_R   0.760845 0.860472 0.354459 0.551303
C80   C     C_2   0.497463 0.167585 0.920890 -0.107903
C81   C     C_2   0.502642 0.168919 0.079148 -0.107342
C82   C     C_2   0.997463 0.667585 0.920890 -0.107903
C83   C     C_2   0.002642 0.668919 0.079148 -0.107342
C84   C     C_2   0.492449 0.069276 0.038571 -0.157350
C85   C     C_2   0.509096 0.069158 0.962327 -0.156462
C86   C     C_2   0.992449 0.569276 0.038571 -0.157349
C87   C     C_2   0.009095 0.569158 0.962327 -0.156462
C88   C     C_R   0.678986 0.412716 0.970431 -0.138268
C89   C     C_R   0.747829 0.397750 0.079931 0.031321
C90   C     C_R   0.321291 0.412718 0.029315 -0.138777
C91   C     C_R   0.178986 0.912715 0.970431 -0.138268
C92   C     C_R   0.821291 0.912718 0.029315 -0.138777
Cr1   Cr    Cr6+3 0.769270 0.163730 0.750710 1.049965
Cr2   Cr    Cr6+3 0.385840 0.322500 0.252290 1.036741
Cr3   Cr    Cr6+3 0.114160 0.822500 0.747710 1.028823
Cr4   Cr    Cr6+3 0.885840 0.822500 0.252290 1.036740
Cr5   Cr    Cr6+3 0.230730 0.163730 0.249290 1.042800
Cr6   Cr    Cr6+3 0.269270 0.663730 0.750710 1.049965
Cr7   Cr    Cr6+3 0.730730 0.663730 0.249290 1.042800
Cr8   Cr    Cr6+3 0.612620 0.009790 0.748780 1.022822
Cr9   Cr    Cr6+3 0.387380 0.009790 0.251220 1.022206
Cr10  Cr    Cr6+3 0.112620 0.509790 0.748780 1.022822
Cr11  Cr    Cr6+3 0.887380 0.509790 0.251220 1.022207
Cr12  Cr    Cr6+3 0.614160 0.322500 0.747710 1.028823
H1    H     H_    0.470347 0.986069 0.060968 0.158088
H2    H     H_    0.337781 0.523449 0.431117 0.151828
H3    H     H_    0.136393 0.946667 0.557312 0.164509
H4    H     H_    0.837782 0.023447 0.431118 0.151826
H5    H     H_    0.526623 0.250648 0.056772 0.110148
H6    H     H_    0.472502 0.248365 0.942623 0.109471
H7    H     H_    0.026623 0.750648 0.056772 0.110148
H8    H     H_    0.972502 0.748365 0.942623 0.109471
H9    H     H_    0.635467 0.453547 0.940897 0.132818
H10   H     H_    0.364851 0.454001 0.058692 0.132592
H11   H     H_    0.135466 0.953546 0.940897 0.132818
H12   H     H_    0.532358 0.986903 0.940637 0.158441
H13   H     H_    0.864851 0.954000 0.058692 0.132592
H14   H     H_    0.653904 0.508631 0.066262 0.119287
H15   H     H_    0.346208 0.509332 0.933235 0.118229
H16   H     H_    0.153903 0.008630 0.066262 0.119287
H17   H     H_    0.846209 0.009331 0.933234 0.118229
H18   H     H_    0.835093 0.269073 0.076800 0.135467
H19   H     H_    0.164765 0.267890 0.923599 0.133757
H20   H     H_    0.335093 0.769073 0.076799 0.135468
H21   H     H_    0.664765 0.767890 0.923599 0.133757
H22   H     H_    0.817121 0.215787 0.953189 0.124558
H23   H     H_    0.970347 0.486069 0.060968 0.158088
H24   H     H_    0.182842 0.214637 0.047393 0.124514
H25   H     H_    0.317121 0.715788 0.953189 0.124558
H26   H     H_    0.682842 0.714638 0.047394 0.124514
H27   H     H_    0.451581 0.351981 0.582580 0.171606
H28   H     H_    0.420141 0.357461 0.456836 0.154497
H29   H     H_    0.951586 0.851985 0.582578 0.171608
H30   H     H_    0.920145 0.857465 0.456834 0.154499
H31   H     H_    0.483518 0.980827 0.436569 0.141900
H32   H     H_    0.516975 0.976312 0.561550 0.144991
H33   H     H_    0.983511 0.480824 0.436571 0.141899
H34   H     H_    0.032358 0.486903 0.940637 0.158441
H35   H     H_    0.016969 0.476309 0.561552 0.144990
H36   H     H_    0.860980 0.379869 0.575483 0.163236
H37   H     H_    0.167602 0.260295 0.444532 0.172418
H38   H     H_    0.360980 0.879874 0.575483 0.163236
H39   H     H_    0.667602 0.760296 0.444532 0.172419
H40   H     H_    0.870480 0.388331 0.448541 0.149366
H41   H     H_    0.164239 0.282899 0.570606 0.147937
H42   H     H_    0.370481 0.888340 0.448542 0.149366
H43   H     H_    0.664238 0.782899 0.570606 0.147937
H44   H     H_    0.636393 0.446672 0.557312 0.164509
I1    I     I_    0.597608 0.479258 0.401439 -0.347943
I2    I     I_    0.382492 0.594926 0.578697 -0.415205
I3    I     I_    0.097608 0.979253 0.401439 -0.347945
I4    I     I_    0.882493 0.094925 0.578698 -0.415210
O1    O     O_R   0.784320 0.290430 0.830510 -0.513647
O2    O     O_R   0.456080 0.282180 0.333210 -0.476750
O3    O     O_R   0.043920 0.782180 0.666790 -0.513077
O4    O     O_R   0.956080 0.782180 0.333210 -0.476751
O5    O     O_R   0.679040 0.374160 0.674430 -0.502219
O6    O     O_R   0.320960 0.374160 0.325570 -0.518959
O7    O     O_R   0.179040 0.874160 0.674430 -0.502219
O8    O     O_R   0.820960 0.874160 0.325570 -0.518959
O9    O     O_3   0.665350 0.165340 0.749070 -0.271029
O10   O     O_3   0.334650 0.165340 0.250930 -0.303049
O11   O     O_3   0.165350 0.665340 0.749070 -0.271029
O12   O     O_R   0.215680 0.290430 0.169490 -0.506726
O13   O     O_3   0.834650 0.665340 0.250930 -0.303050
O14   O     O_R   0.762640 0.040960 0.825200 -0.521800
O15   O     O_R   0.237360 0.040960 0.174800 -0.516399
O16   O     O_R   0.262640 0.540960 0.825200 -0.521800
O17   O     O_R   0.737360 0.540960 0.174800 -0.516399
O18   O     O_R   0.667400 0.923970 0.829950 -0.524106
O19   O     O_R   0.332600 0.923970 0.170050 -0.520990
O20   O     O_R   0.167400 0.423970 0.829950 -0.524106
O21   O     O_R   0.832600 0.423970 0.170050 -0.520990
O22   O     O_R   0.553960 0.081340 0.821780 -0.497760
O23   O     O_R   0.284320 0.790430 0.830510 -0.513648
O24   O     O_R   0.446040 0.081340 0.178220 -0.490359
O25   O     O_R   0.053960 0.581340 0.821780 -0.497760
O26   O     O_R   0.946040 0.581340 0.178220 -0.490359
O27   O     O_R   0.543180 0.283240 0.826740 -0.523941
O28   O     O_R   0.456820 0.283240 0.173260 -0.514715
O29   O     O_R   0.043180 0.783240 0.826740 -0.523941
O30   O     O_R   0.956820 0.783240 0.173260 -0.514715
O31   O     O_R   0.678360 0.375140 0.822710 -0.503302
O32   O     O_R   0.321640 0.375140 0.177290 -0.498928
O33   O     O_R   0.178360 0.875140 0.822710 -0.503302
O34   O     O_R   0.715680 0.790430 0.169490 -0.506727
O35   O     O_R   0.821640 0.875140 0.177290 -0.498928
O36   O     O_R   0.785050 0.289380 0.670560 -0.482347
O37   O     O_R   0.214950 0.289380 0.329440 -0.502575
O38   O     O_R   0.285050 0.789380 0.670560 -0.482346
O39   O     O_R   0.714950 0.789380 0.329440 -0.502575
O40   O     O_R   0.763320 0.039990 0.676930 -0.462789
O41   O     O_R   0.236680 0.039990 0.323070 -0.472326
O42   O     O_R   0.263320 0.539990 0.676930 -0.462789
O43   O     O_R   0.736680 0.539990 0.323070 -0.472326
O44   O     O_R   0.668130 0.922920 0.670000 -0.524772
O45   O     O_R   0.554640 0.080370 0.673500 -0.501410
O46   O     O_R   0.331870 0.922920 0.330000 -0.532092
O47   O     O_R   0.168130 0.422920 0.670000 -0.524771
O48   O     O_R   0.831870 0.422920 0.330000 -0.532092
O49   O     O_R   0.445360 0.080370 0.326500 -0.502265
O50   O     O_R   0.054640 0.580370 0.673500 -0.501409
O51   O     O_R   0.945360 0.580370 0.326500 -0.502264
O52   O     O_R   0.543920 0.282180 0.666790 -0.513075

loop_
_geom_bond_atom_site_label_1
_geom_bond_atom_site_label_2
_ccdc_geom_bond_type
C44   C49   A    
C45   H14   S    
Cr7   O39   S    
C65   O35   A    
C43   O26   A    
C8    C13   A    
C30   H35   S    
C43   C83   S    
C47   C68   S    
C41   O28   A    
C75   O36   A    
C42   C82   S    
Cr12  O5    S    
Cr6   O38   S    
C12   O15   A    
Cr6   O11   S    
C7    C11   A    
C76   O6    A    
C29   C30   A    
C18   C24   A    
C77   O38   A    
Cr12  O52   S    
C31   C58   A    
C27   C28   A    
Cr9   O10   S    
C18   C19   A    
C3    C7    A    
C10   C15   A    
C31   C36   A    
Cr12  O27   S    
C74   O51   A    
C42   O25   A    
C82   C87   D    
C14   C62   S    
Cr7   O43   S    
C1    O18   A    
Cr11  O21   S    
C26   C73   S    
Cr6   O42   S    
C68   O46   A    
C25   C74   S    
Cr5   O41   S    
C88   H9    S    
C78   H17   S    
C38   H42   S    
C46   C69   S    
C21   C25   A    
C76   O37   A    
C62   O31   A    
C23   O20   A    
Cr10  O11   S    
C66   O40   A    
C13   H26   S    
C40   C80   S    
C44   C70   S    
C68   O41   A    
C3    C12   S    
C20   H29   S    
C45   C89   A    
C67   H16   S    
C7    H20   S    
C9    H22   S    
C51   C55   A    
C64   O33   A    
C4    C8    A    
Cr8   O45   S    
C75   O5    A    
C56   C90   A    
C51   I3    S    
Cr2   O6    S    
C79   O39   A    
C55   C60   A    
C25   C29   A    
Cr4   O35   S    
C73   O3    A    
C18   H27   S    
C2    C6    A    
C17   C92   A    
Cr2   O32   S    
C6    H19   S    
C10   H24   S    
C11   H25   S    
C22   C72   S    
C58   C75   S    
C71   O45   A    
C12   O19   A    
C54   C59   A    
Cr8   O44   S    
C42   O29   A    
Cr10  O20   S    
C71   O52   A    
Cr3   O7    S    
C60   C77   S    
C72   O2    A    
C54   H2    S    
Cr8   O18   S    
C19   C22   A    
C84   C85   S    
Cr12  O9    S    
Cr9   O46   S    
Cr3   O29   S    
C47   C51   A    
C37   H41   S    
C78   C92   A    
Cr5   O15   S    
C5    H18   S    
C53   H44   S    
C55   H3    S    
C82   H8    S    
C35   C39   A    
C9    C14   A    
C5    C9    A    
C80   C85   D    
Cr3   O11   S    
C40   O27   A    
C11   C16   A    
C50   I2    S    
Cr1   O9    S    
Cr2   O2    S    
Cr5   O12   S    
C41   C81   S    
C63   O12   A    
C57   H4    S    
C67   C91   A    
C84   H1    S    
C38   C47   A    
C74   O4    A    
C35   C61   A    
C50   C54   A    
C32   C37   A    
C64   O23   A    
C57   C61   A    
C32   H37   S    
Cr8   O9    S    
C34   O17   A    
C77   O7    A    
C92   H13   S    
C45   C88   A    
Cr4   O8    S    
C41   O24   A    
C81   H5    S    
Cr1   O14   S    
Cr11  O13   S    
C33   C60   A    
C22   C27   A    
Cr8   O22   S    
C56   H15   S    
C83   H7    S    
C36   C44   A    
C87   H34   S    
C80   H6    S    
C21   H30   S    
C79   O8    A    
C81   C84   D    
Cr3   O33   S    
Cr12  O31   S    
Cr1   O40   S    
C19   H28   S    
Cr2   O10   S    
C65   O34   A    
C70   O48   A    
C63   O32   A    
C86   H23   S    
C86   C87   S    
C70   O43   A    
C85   H12   S    
C3    C67   A    
C24   C28   A    
Cr4   O30   S    
C5    C89   A    
C6    C10   A    
C66   O44   A    
C53   C58   A    
C26   C30   A    
Cr7   O17   S    
C49   I1    S    
C33   H38   S    
C4    C78   A    
C29   H33   S    
C73   O50   A    
C46   C50   A    
C43   O30   A    
C17   C65   S    
C33   C38   A    
C62   O1    A    
C13   C17   A    
C28   H32   S    
Cr11  O26   S    
C27   H31   S    
C52   I4    S    
C1    C4    S    
Cr1   O1    S    
C36   H40   S    
C34   C89   S    
C14   C88   A    
C34   O21   A    
Cr9   O49   S    
Cr10  O47   S    
C15   C90   A    
C40   O22   A    
Cr6   O23   S    
Cr4   O4    S    
C20   C26   A    
C1    O14   A    
C61   C79   S    
C49   C53   A    
Cr5   O37   S    
C69   O42   A    
C91   H11   S    
Cr9   O19   S    
Cr3   O3    S    
Cr11  O48   S    
C90   H10   S    
Cr10  O50   S    
Cr11  O51   S    
C31   H36   S    
Cr2   O28   S    
C52   C57   A    
C23   O16   A    
Cr1   O36   S    
C8    H21   S    
C48   C52   A    
C83   C86   D    
C20   C21   A    
C16   C91   A    
Cr5   O10   S    
C39   H43   S    
C2    C23   S    
C69   O47   A    
Cr10  O25   S    
C15   C63   S    
Cr4   O13   S    
C72   O49   A    
Cr9   O24   S    
C2    C56   A    
C16   C64   S    
C32   C59   A    
C48   C66   S    
C37   C46   A    
C59   C76   S    
Cr7   O34   S    
Cr6   O16   S    
C24   C71   S    
C35   H39   S    
C39   C48   A    
Cr7   O13   S    
