data_mof_unit_58481.cif
_audit_creation_date              2012-12-11T14:03:49-0500
_audit_creation_method            fapswitch 2.2
_symmetry_space_group_name_H-M    P1
_symmetry_Int_Tables_number       1
_space_group_crystal_system       triclinic
_cell_length_a                    19.177769
_cell_length_b                    10.926543
_cell_length_c                    18.826484
_cell_angle_alpha                 89.737154
_cell_angle_beta                  88.96672
_cell_angle_gamma                 89.90167
_cell_volume                      3944.3396535

loop_
_atom_site_label
_atom_site_type_symbol
_atom_type_description
_atom_site_fract_x
_atom_site_fract_y
_atom_site_fract_z
_atom_type_partial_charge
C1    C     C_R   0.240486 0.466548 0.647176 0.560732
C2    C     C_R   0.759705 0.466364 0.352808 0.539981
C3    C     C_R   0.740517 0.966444 0.647211 0.529025
C4    C     C_R   0.259705 0.966368 0.352808 0.539243
C5    C     C_2   0.278162 0.821296 0.532296 -0.159255
C6    C     C_2   0.725883 0.816155 0.468721 -0.148849
C7    C     C_2   0.778155 0.321277 0.532295 -0.155837
C8    C     C_2   0.225799 0.316433 0.468629 -0.158945
C9    C     C_R   0.000294 0.667218 0.422965 -0.013425
C10   C     C_R   0.047320 0.663651 0.561817 -0.014210
C11   C     C_R   0.500409 0.167177 0.422933 -0.019138
C12   C     C_R   0.547565 0.163559 0.561763 -0.031224
C13   C     C_R   0.044811 0.893635 0.412856 0.216841
C14   C     C_R   0.036407 0.892631 0.561141 0.300955
C15   C     C_R   0.544917 0.393583 0.412786 0.219958
C16   C     C_R   0.536565 0.392462 0.561065 0.266103
C17   C     C_R   0.066165 0.994779 0.452695 -0.158056
C18   C     C_R   0.064648 0.992155 0.525930 -0.158115
C19   C     C_R   0.566185 0.494780 0.452631 -0.155108
C20   C     C_R   0.564685 0.492111 0.525870 -0.149997
C21   C     C_R   0.036666 0.778563 0.525932 -0.026953
C22   C     C_R   0.028473 0.779296 0.450666 -0.053548
C23   C     C_R   0.537034 0.278437 0.525834 -0.063920
C24   C     C_R   0.528694 0.279199 0.450590 -0.055204
C25   C     C_R   0.038632 0.554539 0.523932 0.002268
C26   C     C_R   0.995828 0.560639 0.466758 0.019038
C27   C     C_R   0.538780 0.054456 0.523904 0.005154
C28   C     C_R   0.495943 0.060610 0.466743 0.007999
C29   C     C_R   0.058574 0.437770 0.548461 -0.085860
C30   C     C_R   0.949719 0.460020 0.457668 -0.063452
C31   C     C_R   0.558613 0.937677 0.548489 -0.083336
C32   C     C_R   0.449757 0.960082 0.457707 -0.070935
C33   C     C_R   0.020258 0.334825 0.532003 -0.099868
C34   C     C_R   0.963228 0.346759 0.488969 -0.094250
C35   C     C_R   0.520210 0.834811 0.532087 -0.101067
C36   C     C_R   0.463189 0.846829 0.489051 -0.093522
C37   C     C_2   0.223763 0.853131 0.934627 -0.096102
C38   C     C_2   0.761504 0.900161 0.072143 -0.091334
C39   C     C_2   0.723764 0.353132 0.934627 -0.096141
C40   C     C_2   0.261499 0.400174 0.072148 -0.091944
C41   C     C_2   0.245949 0.890093 0.087608 -0.106408
C42   C     C_2   0.750234 0.898646 0.916042 -0.105654
C43   C     C_2   0.745949 0.390093 0.087608 -0.106659
C44   C     C_2   0.250229 0.398663 0.916050 -0.101899
C45   C     C_R   0.226832 0.872660 0.646782 0.543148
C46   C     C_R   0.773164 0.872287 0.353164 0.538621
C47   C     C_R   0.726831 0.372656 0.646781 0.543168
C48   C     C_R   0.273122 0.372381 0.353108 0.537080
C49   C     C_2   0.183585 0.898464 0.056333 -0.140639
C50   C     C_2   0.809621 0.916020 0.950517 -0.158125
C51   C     C_2   0.683585 0.398464 0.056333 -0.140806
C52   C     C_2   0.309615 0.416046 0.950525 -0.155235
C53   C     C_2   0.171758 0.860576 0.982751 -0.167457
C54   C     C_2   0.815640 0.891419 0.026032 -0.151163
C55   C     C_2   0.671759 0.360577 0.982751 -0.167277
C56   C     C_2   0.315635 0.391439 0.026038 -0.152073
C57   C     C_2   0.011456 0.655416 0.927079 -0.107759
C58   C     C_2   0.010794 0.665459 0.083552 -0.099727
C59   C     C_2   0.511464 0.155415 0.927083 -0.106817
C60   C     C_2   0.510798 0.165459 0.083555 -0.099688
C61   C     C_2   0.026429 0.565750 0.046008 -0.164486
C62   C     C_2   0.040558 0.571531 0.970121 -0.159221
C63   C     C_2   0.526437 0.065750 0.046012 -0.164124
C64   C     C_2   0.540567 0.071530 0.970125 -0.160721
C65   C     C_R   0.062300 0.652115 0.637898 0.558554
C66   C     C_R   0.970029 0.655926 0.353913 0.583458
C67   C     C_R   0.562368 0.152090 0.637908 0.559297
C68   C     C_R   0.470043 0.155920 0.353912 0.583421
C69   C     C_R   0.238663 0.463858 0.849997 0.552320
C70   C     C_R   0.760791 0.462951 0.150428 0.553504
C71   C     C_R   0.738666 0.963849 0.849993 0.542207
C72   C     C_R   0.260791 0.962951 0.150428 0.553961
C73   C     C_R   0.209195 0.827747 0.860760 0.552845
C74   C     C_R   0.774563 0.870726 0.145704 0.539962
C75   C     C_R   0.709196 0.327747 0.860760 0.552516
C76   C     C_R   0.274561 0.370731 0.145707 0.540543
C77   C     C_R   0.031330 0.651605 0.852561 0.559520
C78   C     C_R   0.972453 0.653084 0.150158 0.582663
C79   C     C_R   0.531336 0.151604 0.852564 0.568721
C80   C     C_R   0.472454 0.153084 0.150158 0.583116
C81   C     C_2   0.247426 0.906309 0.574603 -0.104208
C82   C     C_2   0.753019 0.904026 0.425570 -0.096148
C83   C     C_2   0.747421 0.406295 0.574600 -0.098696
C84   C     C_2   0.252859 0.404302 0.425427 -0.101041
C85   C     C_2   0.242093 0.908490 0.420133 -0.124827
C86   C     C_2   0.759230 0.908989 0.579940 -0.090098
C87   C     C_2   0.742093 0.408482 0.420131 -0.122750
C88   C     C_2   0.259012 0.409711 0.579723 -0.096445
C89   C     C_2   0.286312 0.838084 0.455180 -0.189020
C90   C     C_2   0.717804 0.832357 0.545799 -0.183903
C91   C     C_2   0.786305 0.338058 0.455178 -0.187327
C92   C     C_2   0.217739 0.332699 0.545691 -0.197426
Cr1   Cr    Cr6+3 0.113970 0.508630 0.747920 1.026078
Cr2   Cr    Cr6+3 0.886030 0.508630 0.252080 1.040003
Cr3   Cr    Cr6+3 0.613970 0.008630 0.747920 1.025930
Cr4   Cr    Cr6+3 0.386030 0.008630 0.252080 1.039780
Cr5   Cr    Cr6+3 0.269200 0.666740 0.749850 1.086668
Cr6   Cr    Cr6+3 0.730800 0.666740 0.250150 1.093940
Cr7   Cr    Cr6+3 0.769200 0.166740 0.749850 1.069897
Cr8   Cr    Cr6+3 0.230800 0.166740 0.250150 1.093542
Cr9   Cr    Cr6+3 0.112300 0.820070 0.749800 1.099817
Cr10  Cr    Cr6+3 0.887700 0.820070 0.250200 1.149330
Cr11  Cr    Cr6+3 0.612300 0.320070 0.749800 1.110475
Cr12  Cr    Cr6+3 0.387700 0.320070 0.250200 1.147024
H1    H     H_    0.329393 0.794772 0.427098 0.142496
H2    H     H_    0.676801 0.782755 0.573913 0.128117
H3    H     H_    0.829384 0.294733 0.427100 0.141705
H4    H     H_    0.176940 0.282722 0.573898 0.132596
H5    H     H_    0.118105 0.850536 0.966102 0.136510
H6    H     H_    0.867980 0.873027 0.044730 0.148169
H7    H     H_    0.618105 0.350535 0.966103 0.136219
H8    H     H_    0.367976 0.373046 0.044734 0.148583
H9    H     H_    0.288500 0.838077 0.063829 0.106613
H10   H     H_    0.706682 0.850131 0.940754 0.107561
H11   H     H_    0.788501 0.338077 0.063829 0.106749
H12   H     H_    0.206678 0.350142 0.940760 0.106234
H13   H     H_    0.277815 0.865244 0.949070 0.117526
H14   H     H_    0.708555 0.917441 0.055249 0.094428
H15   H     H_    0.777815 0.365245 0.949070 0.116969
H16   H     H_    0.208550 0.417454 0.055256 0.094038
H17   H     H_    0.024014 0.475117 0.069925 0.161543
H18   H     H_    0.072998 0.498373 0.948593 0.155454
H19   H     H_    0.524022 0.975117 0.069930 0.161689
H20   H     H_    0.573006 0.998372 0.948596 0.155475
H21   H     H_    0.016832 0.756406 0.060674 0.099018
H22   H     H_    0.979327 0.730013 0.947075 0.089839
H23   H     H_    0.516837 0.256406 0.060677 0.098911
H24   H     H_    0.479336 0.230013 0.947080 0.091917
H25   H     H_    0.296981 0.735445 0.554175 0.174428
H26   H     H_    0.709707 0.728595 0.447438 0.152958
H27   H     H_    0.796974 0.235427 0.554176 0.175101
H28   H     H_    0.209779 0.228729 0.447417 0.154544
H29   H     H_    0.195085 0.939883 0.446472 0.116723
H30   H     H_    0.805707 0.944018 0.553209 0.181177
H31   H     H_    0.695091 0.439889 0.446473 0.117407
H32   H     H_    0.305220 0.445439 0.552841 0.162864
H33   H     H_    0.229098 0.993148 0.553746 0.097756
H34   H     H_    0.768934 0.992421 0.445702 0.100379
H35   H     H_    0.729093 0.493133 0.553743 0.099836
H36   H     H_    0.268612 0.492864 0.445442 0.101162
H37   H     H_    0.081908 0.079656 0.427292 0.168579
H38   H     H_    0.076714 0.073463 0.555171 0.124820
H39   H     H_    0.581825 0.579716 0.427230 0.167099
H40   H     H_    0.576621 0.573468 0.555121 0.124211
H41   H     H_    0.902667 0.469083 0.428070 0.159920
H42   H     H_    0.098533 0.427364 0.586193 0.158517
H43   H     H_    0.402693 0.969215 0.428129 0.159012
H44   H     H_    0.598542 0.927245 0.586245 0.159014
H45   H     H_    0.030815 0.249478 0.557979 0.134871
H46   H     H_    0.930389 0.268355 0.480236 0.134990
H47   H     H_    0.530688 0.749477 0.558115 0.133672
H48   H     H_    0.430289 0.768493 0.480366 0.134805
H49   H     H_    0.140167 0.943745 0.083239 0.175694
H50   H     H_    0.854588 0.957776 0.924210 0.163519
H51   H     H_    0.640167 0.443743 0.083240 0.175701
H52   H     H_    0.354580 0.457811 0.924221 0.166507
O1    O     O_R   0.043230 0.549300 0.667990 -0.498579
O2    O     O_R   0.956770 0.549300 0.332010 -0.536410
O3    O     O_R   0.543230 0.049300 0.667990 -0.499438
O4    O     O_R   0.456770 0.049300 0.332010 -0.534076
O5    O     O_R   0.262920 0.788600 0.824420 -0.489495
O6    O     O_R   0.737080 0.788600 0.175580 -0.493344
O7    O     O_R   0.762920 0.288600 0.824420 -0.488847
O8    O     O_R   0.237080 0.288600 0.175580 -0.493124
O9    O     O_R   0.167530 0.905110 0.830340 -0.489113
O10   O     O_R   0.832470 0.905110 0.169660 -0.503808
O11   O     O_R   0.667530 0.405110 0.830340 -0.492283
O12   O     O_R   0.332470 0.405110 0.169660 -0.503383
O13   O     O_R   0.054010 0.748440 0.822860 -0.494781
O14   O     O_R   0.945990 0.748440 0.177140 -0.456638
O15   O     O_R   0.554010 0.248440 0.822860 -0.489463
O16   O     O_R   0.445990 0.248440 0.177140 -0.456109
O17   O     O_3   0.165160 0.665150 0.749190 -0.321815
O18   O     O_3   0.834840 0.665150 0.250810 -0.285938
O19   O     O_3   0.665160 0.165150 0.749190 -0.318344
O20   O     O_3   0.334840 0.165150 0.250810 -0.286130
O21   O     O_R   0.178620 0.457600 0.674100 -0.543526
O22   O     O_R   0.821380 0.457600 0.325900 -0.518725
O23   O     O_R   0.678620 0.957600 0.674100 -0.538688
O24   O     O_R   0.321380 0.957600 0.325900 -0.518896
O25   O     O_R   0.284680 0.542100 0.669460 -0.448669
O26   O     O_R   0.715320 0.542100 0.330540 -0.463765
O27   O     O_R   0.784680 0.042100 0.669460 -0.472475
O28   O     O_R   0.215320 0.042100 0.330540 -0.463716
O29   O     O_R   0.262860 0.790390 0.676650 -0.486681
O30   O     O_R   0.737140 0.790390 0.323350 -0.497903
O31   O     O_R   0.762860 0.290390 0.676650 -0.484155
O32   O     O_R   0.237140 0.290390 0.323350 -0.496938
O33   O     O_R   0.167460 0.907030 0.670940 -0.507430
O34   O     O_R   0.832540 0.907030 0.329060 -0.475626
O35   O     O_R   0.667460 0.407030 0.670940 -0.509429
O36   O     O_R   0.332540 0.407030 0.329060 -0.477815
O37   O     O_R   0.053950 0.750220 0.675100 -0.420493
O38   O     O_R   0.946050 0.750220 0.324900 -0.410454
O39   O     O_R   0.553950 0.250220 0.675100 -0.413326
O40   O     O_R   0.446050 0.250220 0.324900 -0.412788
O41   O     O_R   0.043300 0.547370 0.827390 -0.500373
O42   O     O_R   0.956700 0.547370 0.172610 -0.513329
O43   O     O_R   0.543300 0.047370 0.827390 -0.500078
O44   O     O_R   0.456700 0.047370 0.172610 -0.513162
O45   O     O_R   0.178690 0.455820 0.821860 -0.507209
O46   O     O_R   0.821310 0.455820 0.178140 -0.502228
O47   O     O_R   0.678690 0.955820 0.821860 -0.506930
O48   O     O_R   0.321310 0.955820 0.178140 -0.502051
O49   O     O_R   0.284750 0.540170 0.828860 -0.499370
O50   O     O_R   0.715250 0.540170 0.171140 -0.477298
O51   O     O_R   0.784750 0.040170 0.828860 -0.508031
O52   O     O_R   0.215250 0.040170 0.171140 -0.477131
S1    S     S_3+6 0.046135 0.925228 0.319088 0.015730
O53   O     O_2   0.974753 0.964532 0.296628 -0.223646
O54   O     O_2   0.092119 0.031401 0.300413 -0.280916
O55   O     O_3   0.073454 0.803215 0.271978 -0.521749
H53   H     H_    0.121149 0.786411 0.288901 0.326104
S2    S     S_3+6 0.967937 0.932162 0.621554 0.026312
O56   O     O_2   0.998270 0.978292 0.689470 -0.275073
O57   O     O_2   0.925096 0.032805 0.589400 -0.323236
O58   O     O_3   0.916485 0.810466 0.638410 -0.513405
H54   H     H_    0.886072 0.835586 0.678869 0.364559
S3    S     S_3+6 0.546173 0.425179 0.319021 0.015365
O59   O     O_2   0.474779 0.464511 0.296615 -0.224534
O60   O     O_2   0.592153 0.531341 0.300313 -0.281318
O61   O     O_3   0.573444 0.303153 0.271894 -0.520929
H55   H     H_    0.621344 0.286885 0.288407 0.326732
S4    S     S_3+6 0.467803 0.431817 0.621257 0.035936
O62   O     O_2   0.497863 0.478734 0.689082 -0.235969
O63   O     O_2   0.424761 0.532252 0.589158 -0.329662
O64   O     O_3   0.416320 0.310585 0.639226 -0.480919
H56   H     H_    0.398965 0.284147 0.592503 0.325816

loop_
_geom_bond_atom_site_label_1
_geom_bond_atom_site_label_2
_ccdc_geom_bond_type
C70   O46   A    
C7    C83   D    
Cr10  O34   S    
Cr10  O14   S    
Cr1   O17   S    
C6    C82   D    
C87   C91   D    
C20   H40   S    
Cr9   O17   S    
C35   C36   A    
C62   H18   S    
C6    H26   S    
C43   C51   D    
S4    O62   D    
Cr7   O31   S    
Cr8   O52   S    
C57   C62   D    
C72   O52   A    
C32   H43   S    
Cr11  O11   S    
C12   C23   A    
C14   S2    S    
C59   C64   D    
C50   C54   S    
Cr11  O39   S    
C60   C63   D    
Cr3   O3    S    
C32   C36   A    
C14   C21   A    
C49   H49   S    
Cr8   O32   S    
C46   O34   A    
C15   C19   A    
Cr9   O33   S    
C2    O26   A    
Cr6   O18   S    
C49   C53   S    
C9    C22   A    
Cr12  O12   S    
Cr5   O29   S    
Cr3   O47   S    
C80   O44   A    
C29   C33   A    
C11   C24   A    
C78   O14   A    
S1    O55   S    
C54   H6    S    
S1    O53   D    
C75   O7    A    
Cr2   O22   S    
C79   O15   A    
Cr3   O19   S    
C9    C66   S    
C3    O23   A    
C82   H34   S    
C43   H11   S    
C46   C82   S    
C1    O21   A    
C92   H4    S    
C39   C55   D    
C88   C92   D    
Cr9   O37   S    
C40   C56   D    
S3    O59   D    
Cr8   O20   S    
C73   O5    A    
C23   C24   A    
C29   H42   S    
Cr9   O13   S    
C8    C92   S    
C39   C75   S    
Cr1   O45   S    
Cr7   O27   S    
C72   O48   A    
C37   C53   D    
C69   O49   A    
C44   C52   D    
C1    C88   S    
C5    H25   S    
Cr10  O10   S    
C21   C22   A    
C3    C86   S    
Cr11  O15   S    
C61   C62   S    
C35   H47   S    
C4    O24   A    
C67   O39   A    
Cr10  O38   S    
C41   C49   D    
Cr6   O6    S    
C86   H30   S    
C9    C26   A    
Cr4   O48   S    
C65   O37   A    
C10   C21   A    
C25   C29   A    
C69   O45   A    
C12   C67   S    
C79   O43   A    
C30   C34   A    
C12   C27   A    
C27   C31   A    
Cr5   O25   S    
C13   S1    S    
C18   H38   S    
Cr5   O17   S    
C88   H32   S    
C65   O1    A    
C86   C90   D    
C59   C79   S    
C57   H22   S    
C74   O6    A    
Cr1   O21   S    
S2    O56   D    
C36   H48   S    
C4    C85   S    
C25   C26   A    
C64   H20   S    
C4    O28   A    
C48   C84   S    
C53   H5    S    
Cr7   O51   S    
Cr2   O42   S    
Cr6   O26   S    
C71   O47   A    
C42   H10   S    
Cr8   O8    S    
C76   O8    A    
C8    H28   S    
C87   H31   S    
S3    O60   D    
C5    C81   D    
O64   H56   S    
C38   C54   D    
C28   C32   A    
C16   C20   A    
C7    C91   S    
Cr11  O19   S    
C17   C18   A    
Cr12  O40   S    
Cr7   O19   S    
C2    C87   S    
C68   O40   A    
C46   O30   A    
Cr1   O1    S    
Cr12  O20   S    
C66   O2    A    
C90   H2    S    
Cr2   O18   S    
C41   C72   S    
Cr2   O46   S    
C31   H44   S    
C50   H50   S    
C10   C25   A    
Cr3   O23   S    
C15   C24   A    
C40   H16   S    
C73   O9    A    
C42   C50   D    
C26   C30   A    
C16   C23   A    
C85   C89   D    
C83   H35   S    
Cr7   O7    S    
C16   S4    S    
Cr11  O35   S    
C80   O16   A    
C52   H52   S    
C15   S3    S    
C68   O4    A    
S4    O64   S    
Cr12  O16   S    
C74   O10   A    
C11   C68   S    
C30   H41   S    
C67   O3    A    
C38   C74   S    
C10   C65   S    
C45   O33   A    
Cr4   O44   S    
C77   O13   A    
C37   C73   S    
C60   C80   S    
C1    O25   A    
Cr4   O20   S    
C55   H7    S    
C8    C84   D    
C7    H27   S    
C14   C18   A    
C60   H23   S    
C45   C81   S    
C61   H17   S    
C41   H9    S    
C47   C83   S    
S2    O58   S    
S4    O63   D    
Cr2   O2    S    
C63   H19   S    
C48   O32   A    
Cr10  O18   S    
C70   O50   A    
C43   C70   S    
C78   O42   A    
C19   C20   A    
Cr5   O5    S    
C13   C17   A    
C3    O27   A    
Cr4   O24   S    
C57   C77   S    
Cr4   O4    S    
C59   H24   S    
S2    O57   D    
Cr6   O30   S    
C6    C90   S    
C51   H51   S    
Cr9   O9    S    
S3    O61   S    
C45   O29   A    
C77   O41   A    
C11   C28   A    
C58   C61   D    
C39   H15   S    
Cr1   O41   S    
C31   C35   A    
C71   O51   A    
C42   C71   S    
S1    O54   D    
C33   H45   S    
C33   C34   A    
C13   C22   A    
C76   O12   A    
C51   C55   S    
C34   H46   S    
C47   O35   A    
O61   H55   S    
Cr8   O28   S    
C17   H37   S    
C19   H39   S    
C48   O36   A    
O58   H54   S    
C58   C78   S    
C63   C64   S    
C38   H14   S    
C40   C76   S    
C37   H13   S    
O55   H53   S    
C44   H12   S    
C58   H21   S    
Cr3   O43   S    
C89   H1    S    
C84   H36   S    
C81   H33   S    
C44   C69   S    
Cr6   O50   S    
C75   O11   A    
C2    O22   A    
Cr5   O49   S    
C66   O38   A    
C47   O31   A    
C56   H8    S    
C5    C89   S    
C52   C56   S    
C85   H29   S    
C27   C28   A    
C91   H3    S    
Cr12  O36   S    
