data_mof_unit_58655.cif
_audit_creation_date              2012-12-11T17:10:39-0500
_audit_creation_method            fapswitch 2.2
_symmetry_space_group_name_H-M    P1
_symmetry_Int_Tables_number       1
_space_group_crystal_system       triclinic
_cell_length_a                    14.779757
_cell_length_b                    14.876714
_cell_length_c                    14.861223
_cell_angle_alpha                 109.451972
_cell_angle_beta                  109.783888
_cell_angle_gamma                 109.04182
_cell_volume                      2519.53242804

loop_
_atom_site_label
_atom_site_type_symbol
_atom_type_description
_atom_site_fract_x
_atom_site_fract_y
_atom_site_fract_z
_atom_type_partial_charge
C1    C     C_R   0.186297 0.279612 0.257119 -0.141611
C2    C     C_R   0.403163 0.494367 0.194211 -0.142581
C3    C     C_R   0.563920 0.815159 0.591136 -0.127596
C4    C     C_R   0.526753 0.433322 0.747689 -0.139200
C5    C     C_R   0.723337 0.478346 0.408980 -0.093144
C6    C     C_R   0.548329 0.824811 0.497728 0.070626
C7    C     C_R   0.827025 0.557752 0.501911 0.064285
C8    C     C_R   0.429742 0.428597 0.129366 0.091626
C9    C     C_R   0.803044 0.804938 0.866329 0.090348
C10   C     C_R   0.094305 0.608912 0.185937 -0.066484
C11   C     C_R   0.095526 0.628517 0.285001 -0.148970
C12   C     C_R   0.452760 0.450427 0.778085 0.090254
C13   C     C_R   0.019204 0.546848 0.290114 -0.003366
C14   C     C_R   0.940171 0.443195 0.192864 -0.065214
C15   C     C_R   0.939692 0.425924 0.093602 -0.175855
C16   C     C_R   0.504680 0.200758 0.407960 -0.121387
C17   C     C_R   0.016300 0.508032 0.090403 -0.128901
C18   C     C_R   0.929369 0.574259 0.401559 -0.163198
C19   C     C_R   0.931087 0.609696 0.502191 0.036276
C20   C     C_R   0.034703 0.676753 0.600675 0.031699
C21   C     C_R   0.125977 0.671143 0.596828 -0.242084
C22   C     C_R   0.116421 0.608797 0.495860 0.058597
C23   C     C_R   0.565566 0.196835 0.498510 0.067848
C24   C     C_R   0.022254 0.575076 0.397097 0.098137
C25   C     C_R   0.002410 0.824460 0.701670 -0.144231
C26   C     C_R   0.020961 0.904047 0.799231 -0.096413
C27   C     C_R   0.088344 0.917986 0.900696 -0.085160
C28   C     C_R   0.290712 0.597646 0.589509 -0.137336
C29   C     C_R   0.135870 0.851184 0.904789 -0.114976
C30   C     C_R   0.117693 0.771465 0.807430 -0.177726
C31   C     C_R   0.051082 0.757626 0.704721 0.112281
C32   C     C_R   0.460067 0.352217 0.883502 0.151864
C33   C     C_R   0.409306 0.401074 0.834675 0.030684
C34   C     C_R   0.197463 0.570399 0.496944 0.082086
C35   C     C_R   0.326817 0.414108 0.854935 -0.306300
C36   C     C_R   0.315776 0.403652 0.942154 0.185436
C37   C     C_R   0.393832 0.386856 0.011906 -0.019791
C38   C     C_R   0.452787 0.345682 0.971105 0.108954
C39   C     C_3   0.569737 0.368789 0.027810 -0.465952
C40   C     C_R   0.595573 0.289971 0.590775 -0.131447
C41   C     C_3   0.577737 0.375975 0.931916 -0.489459
C42   C     C_R   0.549153 0.925838 0.394213 0.159647
C43   C     C_R   0.593520 0.925583 0.493683 0.033135
C44   C     C_R   0.667086 0.027482 0.591631 -0.199327
C45   C     C_R   0.474526 0.721052 0.406812 -0.148142
C46   C     C_R   0.670751 0.122960 0.592335 -0.188333
C47   C     C_R   0.601725 0.115974 0.494796 0.034835
C48   C     C_R   0.553842 0.020111 0.394826 0.148667
C49   C     C_3   0.441501 0.957940 0.294321 -0.488786
C50   C     C_3   0.435762 0.854954 0.293981 -0.510198
C51   C     C_R   0.971719 0.080509 0.110999 0.178871
C52   C     C_R   0.199609 0.504838 0.407222 -0.118277
C53   C     C_R   0.065870 0.076495 0.169376 -0.050646
C54   C     C_R   0.054269 0.972137 0.150442 -0.098760
C55   C     C_R   0.961208 0.877933 0.052944 -0.275078
C56   C     C_R   0.815275 0.567284 0.593063 -0.133266
C57   C     C_R   0.879930 0.888719 0.981309 0.015328
C58   C     C_R   0.879843 0.987818 0.019309 0.161031
C59   C     C_3   0.855940 0.048181 0.959734 -0.515023
C60   C     C_3   0.957539 0.150050 0.059435 -0.506999
C61   C     C_R   0.435774 0.527339 0.751777 -0.121820
C62   C     C_R   0.275938 0.184761 0.248824 -0.093059
C63   C     C_R   0.173159 0.175807 0.227166 0.114056
C64   C     C_2   0.860668 0.350280 0.192167 0.933396
C65   C     C_3   0.152433 0.326324 0.955548 -0.952925
C66   C     C_2   0.138027 0.959795 0.227371 0.981064
C67   C     C_R   0.491905 0.400130 0.194746 -0.172498
C68   C     C_R   0.707793 0.800348 0.802240 -0.164589
C69   C     C_R   0.802141 0.711068 0.804838 -0.123028
H1    H     H_    0.124497 0.303310 0.254887 0.119572
H2    H     H_    0.153649 0.672298 0.183129 0.141114
H3    H     H_    0.156009 0.707933 0.358138 0.125642
H4    H     H_    0.555075 0.375895 0.751436 0.110333
H5    H     H_    0.881217 0.347750 0.018388 0.157699
H6    H     H_    0.854240 0.539908 0.325315 0.105807
H7    H     H_    0.203548 0.714136 0.673002 0.121212
H8    H     H_    0.951136 0.815811 0.623825 0.116595
H9    H     H_    0.983630 0.955424 0.796240 0.109439
H10   H     H_    0.103729 0.980630 0.976108 0.114348
H11   H     H_    0.187282 0.861562 0.983540 0.129739
H12   H     H_    0.877829 0.617291 0.678858 0.119817
H13   H     H_    0.155019 0.720309 0.812273 0.111046
H14   H     H_    0.277738 0.440949 0.809884 0.135467
H15   H     H_    0.485294 0.153634 0.324341 0.094538
H16   H     H_    0.625386 0.448597 0.106290 0.193745
H17   H     H_    0.574244 0.297292 0.032713 0.212671
H18   H     H_    0.637756 0.459906 0.956111 0.197590
H19   H     H_    0.587102 0.308674 0.882040 0.200011
H20   H     H_    0.710270 0.032347 0.669668 0.128312
H21   H     H_    0.716441 0.197818 0.670913 0.126056
H22   H     H_    0.379383 0.975311 0.310812 0.217778
H23   H     H_    0.510413 0.334978 0.167014 0.108442
H24   H     H_    0.444885 0.962428 0.222242 0.187038
H25   H     H_    0.370381 0.814735 0.310688 0.201896
H26   H     H_    0.324018 0.658430 0.673751 0.085397
H27   H     H_    0.435066 0.799851 0.221288 0.189474
H28   H     H_    0.956043 0.798543 0.029891 0.171070
H29   H     H_    0.864454 0.023455 0.884983 0.193476
H30   H     H_    0.778328 0.050329 0.947448 0.206221
H31   H     H_    0.024294 0.183322 0.041460 0.198540
H32   H     H_    0.938240 0.211066 0.103378 0.208339
H33   H     H_    0.657055 0.321730 0.674831 0.085046
H34   H     H_    0.672149 0.849019 0.829920 0.104497
H35   H     H_    0.148898 0.477128 0.321740 0.109955
H36   H     H_    0.382055 0.559179 0.763212 0.096269
H37   H     H_    0.296563 0.120008 0.233761 0.093841
H38   H     H_    0.447532 0.696811 0.321500 0.108765
H39   H     H_    0.716685 0.207050 0.102726 0.317997
H40   H     H_    0.199038 0.455242 0.924590 0.165583
H41   H     H_    0.096230 0.348716 0.979735 0.247745
H42   H     H_    0.192562 0.299785 0.011364 0.258759
H43   H     H_    0.102627 0.257055 0.869211 0.258524
H44   H     H_    0.258569 0.023106 0.383056 0.316360
H45   H     H_    0.856205 0.680865 0.835160 0.097369
H46   H     H_    0.344304 0.520752 0.167180 0.126422
H47   H     H_    0.616627 0.879572 0.676297 0.095746
H48   H     H_    0.701024 0.448480 0.323550 0.099627
H49   H     H_    0.015501 0.493121 0.013627 0.114554
N1    N     N_R   0.291070 0.347930 0.293870 -0.045193
N2    N     N_R   0.497240 0.291100 0.443210 -0.032165
N3    N     N_R   0.347890 0.554050 0.556810 -0.037680
N4    N     N_R   0.554050 0.347900 0.556830 -0.036035
N5    N     N_R   0.291070 0.497250 0.443190 -0.042021
N6    N     N_R   0.497240 0.554030 0.706140 -0.040916
N7    N     N_R   0.347890 0.291110 0.293870 -0.046251
N8    N     N_R   0.445950 0.652100 0.443170 -0.041067
N9    N     N_2   0.234144 0.420102 0.964214 -0.117746
N10   N     N_R   0.708930 0.502750 0.556810 -0.045741
N11   N     N_R   0.502760 0.445970 0.293860 -0.040896
N12   N     N_R   0.652110 0.708890 0.706130 -0.039368
N13   N     N_R   0.708930 0.652070 0.706130 -0.043009
N14   N     N_R   0.445950 0.502780 0.293850 -0.041868
N15   N     N_R   0.502760 0.708900 0.556790 -0.040663
N16   N     N_R   0.652110 0.445950 0.443190 -0.046165
N17   N     N_R   0.554050 0.497220 0.706150 -0.042148
Ni1   Ni    Ni4+2 0.369690 0.500010 0.369700 0.214357
Ni2   Ni    Ni4+2 0.630310 0.499990 0.630300 0.213884
Ni3   Ni    Ni4+2 0.500000 0.369720 0.369720 0.215568
Ni4   Ni    Ni4+2 0.500000 0.630280 0.630280 0.211734
O1    O     O_2   0.880757 0.344842 0.276456 -0.645596
O2    O     O_R   0.763631 0.266394 0.093351 -0.826722
O3    O     O_2   0.145990 0.877171 0.194573 -0.685429
O4    O     O_R   0.205541 0.041175 0.338629 -0.796241

loop_
_geom_bond_atom_site_label_1
_geom_bond_atom_site_label_2
_ccdc_geom_bond_type
C25   C31   A    
C18   H6    S    
C6    C45   A    
C27   C29   A    
C53   C63   S    
C59   H30   S    
N6    Ni4   S    
C35   C36   A    
C68   H34   S    
N10   Ni2   S    
C3    C6    A    
C56   H12   S    
C39   C41   S    
C53   C54   A    
C21   H7    S    
C26   C27   A    
C26   H9    S    
C28   H26   S    
C25   H8    S    
C65   N9    S    
C36   C37   A    
C37   C38   A    
C9    C69   A    
C27   H10   S    
C3    H47   S    
C16   N2    A    
C30   C31   A    
C52   N5    A    
C64   O2    S    
C10   C17   A    
C23   C40   A    
C16   H15   S    
C15   C17   A    
C18   C19   A    
C1    N1    A    
C65   H42   S    
C13   C14   A    
C46   C47   A    
H40   N9    S    
N11   Ni3   S    
C19   C20   A    
N8    N15   A    
N2    N4    A    
C46   H21   S    
C2    N14   A    
C32   C41   S    
C32   C38   A    
C4    C12   A    
C61   H36   S    
C9    C57   S    
N14   Ni1   S    
N11   N14   A    
C10   H2    S    
N8    Ni1   S    
C59   C60   S    
C21   C22   A    
C67   N11   A    
C7    C56   A    
C49   H22   S    
C41   H18   S    
N12   Ni4   S    
C1    C63   A    
H39   O2    S    
C44   C46   A    
C5    N16   A    
C22   C34   S    
C69   H45   S    
C23   C47   S    
C5    C7    A    
C35   H14   S    
C28   N3    A    
C50   H25   S    
C66   O4    S    
C58   C59   S    
H44   O4    S    
C13   C24   S    
C5    H48   S    
C3    N15   A    
C30   H13   S    
C43   C44   A    
C65   H43   S    
C29   C30   A    
N13   Ni2   S    
N10   N16   A    
C2    H46   S    
C47   C48   A    
C45   N8    A    
C69   N13   A    
C14   C64   S    
C55   H28   S    
C62   C63   A    
C51   C58   A    
C42   C48   A    
C68   N12   A    
C4    H4    S    
C17   H49   S    
C42   C50   S    
C4    N17   A    
C62   H37   S    
N1    N7    A    
C48   C49   S    
N15   Ni4   S    
C16   C23   A    
C7    C19   S    
C6    C43   S    
C61   N6    A    
C18   C24   A    
C36   N9    S    
N2    Ni3   S    
C42   C43   A    
C39   H16   S    
C60   H32   S    
C64   O1    D    
N17   Ni2   S    
C41   H19   S    
C54   C55   A    
C52   H35   S    
N6    N17   A    
C28   C34   A    
C11   H3    S    
C2    C8    A    
N1    Ni1   S    
N4    Ni2   S    
C60   H31   S    
N16   Ni3   S    
C62   N7    A    
C66   O3    D    
N7    Ni3   S    
C40   N4    A    
C34   C52   A    
C1    H1    S    
N5    Ni1   S    
C49   H24   S    
C32   C33   A    
N3    Ni4   S    
C55   C57   A    
N12   N13   A    
C25   C26   A    
C9    C68   A    
C12   C61   A    
C11   C13   A    
C50   H27   S    
C57   C58   A    
C38   C39   S    
C29   H11   S    
C67   H23   S    
C33   C35   A    
C22   C24   A    
C56   N10   A    
C65   H41   S    
N3    N5    A    
C10   C11   A    
C40   H33   S    
C15   H5    S    
C20   C21   A    
C8    C67   A    
C49   C50   S    
C8    C37   S    
C59   H29   S    
C14   C15   A    
C51   C60   S    
C39   H17   S    
C51   C53   A    
C12   C33   S    
C54   C66   S    
C44   H20   S    
C45   H38   S    
C20   C31   S    
