data_mof_unit_59183.cif
_audit_creation_date              2012-10-26T18:45:45-0400
_audit_creation_method            fapswitch 2.2
_symmetry_space_group_name_H-M    P1
_symmetry_Int_Tables_number       1
_space_group_crystal_system       triclinic
_cell_length_a                    17.789815
_cell_length_b                    16.482392
_cell_length_c                    15.04303
_cell_angle_alpha                 89.696758
_cell_angle_beta                  93.101116
_cell_angle_gamma                 89.723846
_cell_volume                      4404.31924947

loop_
_atom_site_label
_atom_site_type_symbol
_atom_type_description
_atom_site_fract_x
_atom_site_fract_y
_atom_site_fract_z
_atom_type_partial_charge
C1    C     C_R   0.355563 0.500026 0.506687 0.525580
C2    C     C_R   0.230032 0.427940 0.502154 -0.050760
C3    C     C_3   0.444174 0.277029 0.280108 -0.136645
C4    C     C_3   0.348775 0.738212 0.344312 -0.134127
C5    C     C_3   0.554703 0.273894 0.720217 -0.138898
C6    C     C_R   0.233241 0.574106 0.530694 -0.028755
C7    C     C_R   0.769946 0.426729 0.482788 -0.063495
C8    C     C_R   0.726778 0.499785 0.477758 -0.109535
C9    C     C_R   0.272168 0.500386 0.514673 -0.116320
C10   C     C_R   0.885075 0.505719 0.482341 0.013531
C11   C     C_R   0.114210 0.507127 0.492835 0.007006
C12   C     C_1   0.965838 0.507661 0.485812 0.049213
C13   C     C_1   0.033392 0.508138 0.488934 0.048015
C14   C     C_R   0.537179 0.828920 0.568791 -0.156909
C15   C     C_R   0.644211 0.499778 0.492089 0.529690
C16   C     C_R   0.463528 0.170858 0.430964 -0.151798
C17   C     C_R   0.463568 0.830196 0.431363 -0.157975
C18   C     C_R   0.536289 0.169841 0.569222 -0.147801
C19   C     C_R   0.541091 0.742542 0.565128 0.403503
C20   C     C_R   0.464160 0.257219 0.431039 0.399736
C21   C     C_R   0.459158 0.743804 0.434944 0.402258
C22   C     C_R   0.535627 0.256186 0.569122 0.406428
C23   C     C_R   0.500435 0.873400 0.500104 -0.065988
C24   C     C_R   0.499952 0.126524 0.500090 -0.069174
C25   C     C_1   0.500348 0.962779 0.500162 -0.029635
C26   C     C_R   0.361482 0.472805 0.028037 -0.018468
C27   C     C_1   0.500156 0.037155 0.500105 -0.034069
C28   C     C_R   0.494429 0.499965 0.328328 0.538843
C29   C     C_R   0.506544 0.499476 0.671478 0.543527
C30   C     C_R   0.576959 0.496378 0.821702 -0.045230
C31   C     C_R   0.425688 0.502994 0.177038 -0.045296
C32   C     C_R   0.508728 0.496176 0.768406 -0.007106
C33   C     C_R   0.493212 0.497639 0.231274 -0.009936
C34   C     C_R   0.440390 0.483795 0.806825 -0.154450
C35   C     C_R   0.561174 0.480503 0.193415 -0.156618
C36   C     C_R   0.436835 0.480120 0.898596 -0.005407
C37   C     C_R   0.640272 0.465692 0.972111 -0.017970
C38   C     C_R   0.565048 0.476965 0.101509 -0.004699
C39   C     C_R   0.503499 0.480153 0.953307 0.029558
C40   C     C_R   0.498665 0.480415 0.046509 0.029440
C41   C     C_R   0.574726 0.480387 0.914928 -0.005771
C42   C     C_R   0.427564 0.484815 0.084647 -0.007061
C43   C     C_R   0.367116 0.473231 0.935827 -0.141560
C44   C     C_R   0.634511 0.466672 0.064413 -0.141474
C45   C     C_R   0.647989 0.523502 0.783535 0.053204
C46   C     C_R   0.684732 0.475278 0.722486 -0.080419
C47   C     C_R   0.757956 0.494257 0.700303 -0.100353
C48   C     C_R   0.843264 0.577854 0.470998 0.225069
C49   C     C_R   0.793945 0.562700 0.736017 -0.107873
C50   C     C_R   0.756908 0.612421 0.794612 -0.137879
C51   C     C_R   0.684022 0.593311 0.817878 -0.071043
C52   C     C_R   0.356623 0.539293 0.211589 0.059556
C53   C     C_R   0.315171 0.498226 0.274345 -0.070849
C54   C     C_R   0.242426 0.524659 0.290823 -0.104798
C55   C     C_R   0.211245 0.592658 0.246872 -0.117396
C56   C     C_R   0.253322 0.635724 0.187028 -0.138172
C57   C     C_R   0.326024 0.609753 0.170117 -0.071904
C58   C     C_R   0.287664 0.448822 0.061229 0.046414
C59   C     C_R   0.151711 0.432639 0.484429 0.231574
C60   C     C_R   0.222018 0.492977 0.036189 -0.084128
C61   C     C_R   0.152534 0.469330 0.066801 -0.101807
C62   C     C_R   0.147848 0.400830 0.121343 -0.106314
C63   C     C_R   0.212471 0.355232 0.144376 -0.118167
C64   C     C_R   0.281990 0.378609 0.113740 -0.086186
C65   C     C_R   0.713303 0.437720 0.940004 0.046059
C66   C     C_R   0.779921 0.480127 0.962629 -0.089347
C67   C     C_R   0.848844 0.452312 0.933825 -0.107112
C68   C     C_R   0.851942 0.381381 0.883618 -0.099114
C69   C     C_R   0.786251 0.337638 0.862996 -0.114653
C70   C     C_R   0.154441 0.578127 0.514970 0.228876
C71   C     C_R   0.717266 0.365198 0.891814 -0.089929
C72   C     C_3   0.905160 0.680862 0.543539 -0.139473
C73   C     C_3   0.093959 0.359198 0.373307 -0.128828
C74   C     C_3   0.091775 0.685919 0.449616 -0.142073
C75   C     C_3   0.901058 0.330663 0.402449 -0.101417
C76   C     C_R   0.722307 0.644078 0.417770 0.102831
C77   C     C_R   0.725690 0.722308 0.454255 -0.041495
C78   C     C_R   0.684295 0.786127 0.413761 -0.124233
C79   C     C_R   0.639601 0.772622 0.336105 -0.105428
C80   C     C_R   0.636986 0.695495 0.298175 -0.089136
C81   C     C_R   0.849022 0.430454 0.483261 0.220720
C82   C     C_R   0.678632 0.631809 0.338322 -0.064744
C83   C     C_R   0.264014 0.346915 0.522133 0.112110
C84   C     C_R   0.292337 0.329483 0.609296 -0.059399
C85   C     C_R   0.320061 0.252078 0.631414 -0.114332
C86   C     C_R   0.318602 0.191123 0.567222 -0.111299
C87   C     C_R   0.290899 0.207993 0.480346 -0.096241
C88   C     C_R   0.264903 0.285885 0.457355 -0.007938
C89   C     C_R   0.272738 0.642600 0.577321 0.106733
C90   C     C_R   0.270886 0.721637 0.542026 -0.041093
C91   C     C_R   0.311278 0.783897 0.585331 -0.122634
C92   C     C_R   0.764131 0.574133 0.460386 -0.030689
C93   C     C_R   0.353238 0.767992 0.664731 -0.103130
C94   C     C_R   0.353888 0.690087 0.701702 -0.091541
C95   C     C_R   0.313299 0.627950 0.658658 -0.065232
C96   C     C_R   0.735142 0.345074 0.480539 0.094441
C97   C     C_R   0.695369 0.318837 0.402681 -0.072272
C98   C     C_R   0.671273 0.238477 0.395248 -0.119495
C99   C     C_R   0.687224 0.183674 0.464956 -0.111700
C100  C     C_R   0.725344 0.209671 0.543290 -0.095744
C101  C     C_R   0.749234 0.290094 0.551249 -0.017365
C102  C     C_3   0.652127 0.732400 0.654585 -0.133613
Cu1   Cu    Cu3+1 0.500000 0.580420 0.500000 1.075017
Cu2   Cu    Cu3+1 0.500000 0.419580 0.500000 1.041091
H1    H     H_    0.389311 0.478807 0.764727 0.088101
H2    H     H_    0.787992 0.454436 0.657874 0.115064
H3    H     H_    0.850869 0.576528 0.719217 0.102927
H4    H     H_    0.784871 0.665304 0.822682 0.092344
H5    H     H_    0.656781 0.631046 0.865448 0.104451
H6    H     H_    0.336776 0.442925 0.305587 0.139007
H7    H     H_    0.208888 0.490867 0.335081 0.098689
H8    H     H_    0.154412 0.611680 0.258860 0.095410
H9    H     H_    0.229369 0.688583 0.152995 0.094575
H10   H     H_    0.357063 0.642090 0.121192 0.104141
H11   H     H_    0.224957 0.546443 0.994383 0.097541
H12   H     H_    0.611771 0.472061 0.235908 0.086045
H13   H     H_    0.102369 0.504308 0.048516 0.097257
H14   H     H_    0.094107 0.382848 0.145371 0.090427
H15   H     H_    0.208716 0.301730 0.185899 0.092564
H16   H     H_    0.331308 0.342056 0.130747 0.090153
H17   H     H_    0.778197 0.535285 0.001293 0.096530
H18   H     H_    0.899828 0.485843 0.950273 0.098481
H19   H     H_    0.905289 0.360086 0.861120 0.111383
H20   H     H_    0.788767 0.282333 0.824777 0.101005
H21   H     H_    0.667012 0.330160 0.876664 0.089365
H22   H     H_    0.956514 0.648228 0.569407 0.159417
H23   H     H_    0.316703 0.466258 0.892642 0.106853
H24   H     H_    0.861345 0.677582 0.593574 0.085672
H25   H     H_    0.920295 0.745622 0.535875 0.138511
H26   H     H_    0.069027 0.299221 0.357112 0.126372
H27   H     H_    0.144667 0.365434 0.333965 0.088776
H28   H     H_    0.052542 0.406748 0.351381 0.107364
H29   H     H_    0.040250 0.656135 0.421048 0.154371
H30   H     H_    0.135846 0.685531 0.399796 0.083638
H31   H     H_    0.077156 0.750214 0.462019 0.139319
H32   H     H_    0.923288 0.377948 0.357959 0.093285
H33   H     H_    0.847512 0.306531 0.372265 0.112450
H34   H     H_    0.684598 0.457346 0.107803 0.103836
H35   H     H_    0.941899 0.279621 0.406766 0.150227
H36   H     H_    0.759203 0.734005 0.514594 0.101482
H37   H     H_    0.686410 0.845970 0.443047 0.100551
H38   H     H_    0.607152 0.821930 0.305278 0.108126
H39   H     H_    0.602715 0.684971 0.237710 0.116534
H40   H     H_    0.676847 0.572644 0.307881 0.074896
H41   H     H_    0.292291 0.375727 0.660223 0.086107
H42   H     H_    0.341907 0.239127 0.698565 0.095647
H43   H     H_    0.339599 0.131029 0.584530 0.111950
H44   H     H_    0.290722 0.160988 0.430367 0.095995
H45   H     H_    0.564197 0.861362 0.624111 0.101422
H46   H     H_    0.246175 0.298275 0.389178 0.101768
H47   H     H_    0.239441 0.735044 0.480419 0.098154
H48   H     H_    0.310534 0.844374 0.556893 0.100532
H49   H     H_    0.384962 0.816079 0.697735 0.108430
H50   H     H_    0.385874 0.677746 0.763604 0.115208
H51   H     H_    0.313538 0.568091 0.688172 0.074399
H52   H     H_    0.684853 0.360122 0.347076 0.086515
H53   H     H_    0.641202 0.218369 0.334965 0.093732
H54   H     H_    0.669245 0.121233 0.458701 0.112169
H55   H     H_    0.736889 0.167308 0.597577 0.096041
H56   H     H_    0.433216 0.138450 0.378007 0.099791
H57   H     H_    0.780298 0.308951 0.611439 0.112271
H58   H     H_    0.670232 0.782732 0.611342 0.068578
H59   H     H_    0.695543 0.684542 0.650505 0.156049
H60   H     H_    0.651746 0.754225 0.724204 0.116245
H61   H     H_    0.432316 0.328265 0.233539 0.138506
H62   H     H_    0.505440 0.263184 0.277623 0.103760
H63   H     H_    0.409864 0.224690 0.256005 0.092418
H64   H     H_    0.330124 0.786908 0.389070 0.069088
H65   H     H_    0.304280 0.691791 0.344524 0.159222
H66   H     H_    0.352012 0.763173 0.275987 0.117432
H67   H     H_    0.436730 0.863754 0.376157 0.100070
H68   H     H_    0.566870 0.324023 0.767416 0.134970
H69   H     H_    0.493314 0.261113 0.722278 0.107088
H70   H     H_    0.588588 0.220559 0.744028 0.093690
H71   H     H_    0.566714 0.136613 0.622098 0.101715
H72   H     H_    0.658930 0.420439 0.696660 0.154933
N1    N     N_R   0.500000 0.701220 0.500000 -0.189024
N2    N     N_R   0.500000 0.298780 0.500000 -0.189022
O1    O     O_R   0.391260 0.567930 0.500000 -0.470836
O2    O     O_3   0.111210 0.362562 0.466065 -0.539825
O3    O     O_3   0.116493 0.649669 0.531503 -0.573271
O4    O     O_3   0.891887 0.360001 0.489181 -0.548960
O5    O     O_3   0.581479 0.697831 0.630012 -0.524573
O6    O     O_3   0.423393 0.300589 0.365594 -0.546289
O7    O     O_3   0.417870 0.700221 0.370768 -0.525024
O8    O     O_3   0.575857 0.298486 0.634980 -0.546263
O9    O     O_R   0.608740 0.432070 0.500000 -0.480906
O10   O     O_R   0.608740 0.567930 0.500000 -0.472745
O11   O     O_R   0.391260 0.432070 0.500000 -0.480708
O12   O     O_R   0.499990 0.567920 0.370260 -0.455144
O13   O     O_R   0.500010 0.432080 0.629740 -0.478823
O14   O     O_R   0.500010 0.567920 0.629740 -0.452463
O15   O     O_R   0.499990 0.432080 0.370260 -0.478425
O16   O     O_3   0.879613 0.650999 0.459363 -0.577832

loop_
_geom_bond_atom_site_label_1
_geom_bond_atom_site_label_2
_ccdc_geom_bond_type
C53   H6    S    
C14   C23   A    
C77   C78   A    
C55   C56   A    
C73   H27   S    
C89   C95   A    
C93   C94   A    
C31   C42   A    
C55   H8    S    
C16   H56   S    
C11   C13   S    
C5    H70   S    
C54   C55   A    
C30   C45   S    
C86   C87   A    
C77   H36   S    
C31   C52   S    
C22   N2    A    
C86   H43   S    
C6    C9    A    
C97   C98   A    
C11   C70   A    
C3    H63   S    
C7    C8    A    
C49   H3    S    
C74   O3    S    
C85   C86   A    
C52   C53   A    
C7    C96   S    
C3    H61   S    
C17   C23   A    
C4    H66   S    
C72   H24   S    
C18   C24   A    
C102  O5    S    
C81   O4    S    
C59   O2    S    
C38   C40   A    
C29   C32   S    
C102  H60   S    
C72   O16   S    
C91   H48   S    
C79   H38   S    
C45   C51   A    
C58   C60   A    
C74   H29   S    
C56   C57   A    
C97   H52   S    
C69   C71   A    
C46   C47   A    
C73   O2    S    
C84   C85   A    
C84   H41   S    
C99   C100  A    
C102  H59   S    
C37   C65   S    
Cu2   O15   S    
C24   C27   S    
C30   C41   A    
C8    C92   A    
C3    O6    S    
C19   N1    A    
C34   C36   A    
C94   H50   S    
C20   O6    S    
C18   H71   S    
C47   H2    S    
C21   N1    A    
C66   C67   A    
C73   H28   S    
C51   H5    S    
C96   C101  A    
C74   H31   S    
C50   H4    S    
C2    C83   S    
C61   C62   A    
C5    H69   S    
C5    O8    S    
C11   C59   A    
C68   H19   S    
C26   C43   A    
C28   O15   A    
C58   C64   A    
Cu2   N2    S    
C29   O14   A    
C87   H44   S    
C61   H13   S    
C67   C68   A    
C72   H25   S    
C35   C38   A    
C1    C9    S    
C76   C77   A    
C47   C49   A    
C75   H33   S    
C78   H37   S    
C19   O5    S    
C39   C40   A    
C75   H32   S    
C68   C69   A    
C20   N2    A    
C69   H20   S    
C65   C71   A    
Cu2   O13   S    
C15   O9    A    
C17   C21   A    
C4    H64   S    
C72   H22   S    
C60   C61   A    
Cu1   N1    S    
C32   C34   A    
C4    O7    S    
C22   O8    S    
C38   C44   A    
C62   C63   A    
C91   C93   A    
C63   H15   S    
C3    H62   S    
C70   O3    S    
C40   C42   A    
C83   C84   A    
C78   C79   A    
C80   C82   A    
C16   C20   A    
C80   H39   S    
C96   C97   A    
C29   O13   A    
C50   C51   A    
C66   H17   S    
C35   H12   S    
Cu1   O12   S    
C85   H42   S    
C21   O7    S    
C26   C58   S    
C10   C12   S    
C76   C92   S    
C82   H40   S    
C7    C81   A    
C28   C33   S    
C49   C50   A    
C8    C15   S    
C10   C48   A    
C46   H72   S    
C79   C80   A    
C43   H23   S    
C67   H18   S    
C98   H53   S    
C102  H58   S    
C26   C42   A    
C75   O4    S    
C6    C70   A    
Cu2   O9    S    
C73   H26   S    
C31   C33   A    
C44   H34   S    
C48   O16   S    
C18   C22   A    
C34   H1    S    
C88   H46   S    
C14   C19   A    
C36   C39   A    
Cu1   O10   S    
C90   H47   S    
C36   C43   A    
C28   O12   A    
C17   H67   S    
C53   C54   A    
C57   H10   S    
C25   C27   T    
C6    C89   S    
C15   O10   A    
C10   C81   A    
C64   H16   S    
C37   C44   A    
C93   H49   S    
C65   C66   A    
C75   H35   S    
C30   C32   A    
C1    O1    A    
C100  H55   S    
C90   C91   A    
C2    C59   A    
Cu1   O1    S    
C76   C82   A    
Cu2   O11   S    
C74   H30   S    
C14   H45   S    
C101  H57   S    
C100  C101  A    
C33   C35   A    
C5    H68   S    
C54   H7    S    
C83   C88   A    
C95   H51   S    
C23   C25   S    
C37   C41   A    
C94   C95   A    
C62   H14   S    
C52   C57   A    
C63   C64   A    
C45   C46   A    
C12   C13   T    
C39   C41   A    
C87   C88   A    
C16   C24   A    
C98   C99   A    
C48   C92   A    
C99   H54   S    
Cu1   Cu2   S    
C71   H21   S    
C60   H11   S    
Cu1   O14   S    
C89   C90   A    
C2    C9    A    
C4    H65   S    
C56   H9    S    
C1    O11   A    
