data_mof_unit_13069.cif
_audit_creation_date              2012-12-11T14:36:07-0500
_audit_creation_method            fapswitch 2.2
_symmetry_space_group_name_H-M    P1
_symmetry_Int_Tables_number       1
_space_group_crystal_system       triclinic
_cell_length_a                    14.494143
_cell_length_b                    16.165365
_cell_length_c                    6.915894
_cell_angle_alpha                 90.051432
_cell_angle_beta                  81.007179
_cell_angle_gamma                 89.937438
_cell_volume                      1600.49534113

loop_
_atom_site_label
_atom_site_type_symbol
_atom_type_description
_atom_site_fract_x
_atom_site_fract_y
_atom_site_fract_z
_atom_type_partial_charge
O1    O     O_R   0.337460 0.413110 0.524760 -0.545354
O2    O     O_R   0.662540 0.913110 0.475240 -0.546863
O3    O     O_R   0.348690 0.587910 0.191230 -0.547594
O4    O     O_R   0.651310 0.087910 0.808770 -0.524021
O5    O     O_R   0.166530 0.586890 0.082470 -0.542430
O6    O     O_R   0.833470 0.086890 0.917530 -0.536629
C1    C     C_R   0.372326 0.615223 0.354367 0.780339
C2    C     C_R   0.626887 0.114556 0.646341 0.805783
O7    O     O_R   0.348700 0.413830 0.191250 -0.549405
O8    O     O_R   0.651300 0.913830 0.808750 -0.557748
O9    O     O_R   0.166530 0.411570 0.082490 -0.546458
O10   O     O_R   0.833470 0.911570 0.917510 -0.547021
C3    C     C_R   0.370147 0.385097 0.353359 0.741960
C4    C     C_R   0.630100 0.885487 0.646402 0.745214
O11   O     O_R   0.337460 0.588430 0.524740 -0.530552
O12   O     O_R   0.662540 0.088430 0.475260 -0.537534
O13   O     O_3   0.192230 0.499460 0.407330 -0.361762
O14   O     O_3   0.807770 0.999460 0.592670 -0.357783
V1    V     V_3+5 0.263080 0.500100 0.108540 1.501797
V2    V     V_3+5 0.736920 0.000100 0.891460 1.506052
O15   O     O_R   0.155290 0.412090 0.756570 -0.537137
O16   O     O_R   0.844710 0.912090 0.243430 -0.532209
C5    C     C_R   0.130028 0.385138 0.934437 0.687433
C6    C     C_R   0.869367 0.884660 0.065500 0.691869
O17   O     O_R   0.155290 0.586170 0.756550 -0.526088
O18   O     O_R   0.844710 0.086170 0.243450 -0.536745
C7    C     C_R   0.133457 0.616030 0.932054 0.710808
C8    C     C_R   0.866642 0.115951 0.067853 0.706564
V3    V     V_3+5 0.240910 0.499900 0.616030 1.545558
V4    V     V_3+5 0.759090 0.999900 0.383970 1.539762
O19   O     O_3   0.311760 0.500540 0.867100 -0.359577
O20   O     O_3   0.688240 0.000540 0.132900 -0.372690
C9    C     C_3   0.072412 0.735710 0.155343 -0.329334
C10   C     C_3   0.932473 0.231529 0.835499 -0.299718
H1    H     H_    0.050314 0.694437 0.282996 0.162487
H2    H     H_    0.949613 0.185444 0.715732 0.162373
C11   C     C_3   0.010205 0.814231 0.178246 -0.256563
C12   C     C_3   0.002816 0.303986 0.797534 -0.290527
H3    H     H_    0.949091 0.610644 0.107160 0.125996
H4    H     H_    0.054700 0.116643 0.903313 0.110147
C13   C     C_3   0.959787 0.656180 0.985237 -0.152246
C14   C     C_3   0.039027 0.158374 0.031691 -0.146398
C15   C     C_3   0.078461 0.750741 0.785895 -0.206183
C16   C     C_3   0.914740 0.255298 0.204412 -0.195256
C17   C     C_3   0.063446 0.688073 0.962428 -0.051960
C18   C     C_3   0.935707 0.188745 0.037452 -0.069401
C19   C     C_3   0.941442 0.814661 0.026609 0.000171
C20   C     C_3   0.057417 0.315489 0.971935 -0.002070
C21   C     C_3   0.890026 0.729672 0.045682 -0.405591
C22   C     C_3   0.109015 0.232506 0.995233 -0.394779
C23   C     C_3   0.999175 0.818515 0.813684 -0.185784
C24   C     C_3   0.985761 0.329745 0.165403 -0.164706
H5    H     H_    0.949285 0.800253 0.713763 0.142133
H6    H     H_    0.027809 0.328500 0.287501 0.125484
H7    H     H_    0.831428 0.730229 0.959524 0.173583
H8    H     H_    0.151521 0.238787 0.115143 0.169435
C25   C     C_2   0.443387 0.681390 0.349471 -0.356374
C26   C     C_2   0.558260 0.182781 0.652141 -0.326538
C27   C     C_2   0.472763 0.711960 0.513123 0.048008
C28   C     C_2   0.515691 0.202859 0.496709 0.009562
H9    H     H_    0.537934 0.794900 0.804721 0.135365
H10   H     H_    0.454230 0.286707 0.198127 0.159075
C29   C     C_2   0.564073 0.817319 0.658640 -0.288769
C30   C     C_2   0.433318 0.313714 0.341663 -0.311644
C31   C     C_2   0.538240 0.782460 0.498039 -0.190147
C32   C     C_2   0.460472 0.280373 0.502476 -0.189017
H11   H     H_    0.471350 0.707390 0.207534 0.131341
H12   H     H_    0.547815 0.221694 0.781961 0.161607
C33   C     C_2   0.939237 0.611003 0.803059 0.761513
O21   O     O_2   0.969376 0.541006 0.768647 -0.539008
O22   O     O_R   0.888058 0.649134 0.672224 -0.679941
H13   H     H_    0.881267 0.612782 0.555737 0.312187
C34   C     C_2   0.054175 0.108594 0.210456 0.791268
O23   O     O_2   0.051318 0.033130 0.205046 -0.529830
O24   O     O_R   0.072060 0.148274 0.380610 -0.690304
H14   H     H_    0.081086 0.107922 0.488239 0.293472
H15   H     H_    0.565637 0.806053 0.353275 0.152366
H16   H     H_    0.440946 0.310445 0.643661 0.159141
C35   C     C_2   0.438358 0.680288 0.712320 0.817043
O25   O     O_2   0.470578 0.616642 0.770091 -0.553791
O26   O     O_R   0.371605 0.726205 0.834431 -0.669652
H17   H     H_    0.352982 0.700851 0.967864 0.292403
C36   C     C_2   0.517326 0.145844 0.327357 0.801584
O27   O     O_2   0.555753 0.166667 0.164791 -0.570593
O28   O     O_R   0.477668 0.067193 0.356903 -0.663231
H18   H     H_    0.484122 0.033489 0.231790 0.292826
H19   H     H_    0.146008 0.752349 0.163001 0.201744
H20   H     H_    0.861380 0.254005 0.823552 0.223077
H21   H     H_    0.054898 0.870131 0.161107 0.252789
H22   H     H_    0.965724 0.361716 0.769150 0.225615
H23   H     H_    0.970867 0.815574 0.329745 0.166560
H24   H     H_    0.052604 0.290736 0.661450 0.160230
H25   H     H_    0.856557 0.720915 0.200543 0.149166
H26   H     H_    0.159856 0.220131 0.860119 0.139067
H27   H     H_    0.069116 0.715587 0.651684 0.111375
H28   H     H_    0.929858 0.225328 0.340599 0.131034
C37   C     C_2   0.177319 0.784955 0.743076 0.810618
O29   O     O_2   0.224797 0.771545 0.583774 -0.563437
O30   O     O_R   0.213501 0.833313 0.881138 -0.634474
H29   H     H_    0.276377 0.858391 0.827677 0.334721
C38   C     C_2   0.811890 0.278997 0.254943 0.787545
O31   O     O_2   0.774573 0.278843 0.426342 -0.565474
O32   O     O_R   0.759274 0.299610 0.108972 -0.638915
H30   H     H_    0.691888 0.313117 0.163532 0.318662
C39   C     C_2   0.031961 0.904427 0.744559 0.760540
O33   O     O_2   0.007535 0.933213 0.597062 -0.551433
O34   O     O_R   0.090988 0.950073 0.844770 -0.633760
H31   H     H_    0.117717 0.000181 0.768014 0.289786
C40   C     C_2   0.939611 0.414364 0.176582 0.765071
O35   O     O_2   0.957461 0.464520 0.297976 -0.562909
O36   O     O_R   0.875039 0.434453 0.053779 -0.627467
H32   H     H_    0.844253 0.490121 0.086325 0.301511

loop_
_geom_bond_atom_site_label_1
_geom_bond_atom_site_label_2
_ccdc_geom_bond_type
C29   C31   D    
C38   O31   D    
C9    C17   S    
C34   O23   D    
O36   H32   S    
O4    C2    A    
V1    O19   S    
C37   O29   D    
C19   C21   S    
O28   H18   S    
C39   O34   S    
O9    V1    S    
O3    C1    A    
C40   O36   S    
C28   C36   S    
C25   C27   D    
O12   V4    S    
C12   H24   S    
O13   V3    S    
C33   O22   S    
C14   C18   S    
H9    C29   S    
O7    C3    A    
H10   C30   S    
C2    C26   S    
O5    C7    A    
O7    V1    S    
O6    C8    A    
C36   O27   D    
C24   H6    S    
C15   H27   S    
O34   H31   S    
O3    V1    S    
C10   C18   S    
C11   C19   S    
C22   H8    S    
C12   C20   S    
C16   C24   S    
H4    C14   S    
C28   C32   S    
C38   O32   S    
C34   O24   S    
C25   H11   S    
C13   C21   S    
C37   O30   S    
C16   C18   S    
O11   V3    S    
O17   V3    S    
C32   H16   S    
C31   H15   S    
C11   H23   S    
H3    C13   S    
O8    C4    A    
C27   C35   S    
C35   O26   S    
C22   H26   S    
C19   C23   S    
C1    O11   A    
C21   H7    S    
O15   V3    S    
O26   H17   S    
C23   H5    S    
C30   C32   D    
O24   H14   S    
C16   H28   S    
O30   H29   S    
C23   C39   S    
C8    C18   S    
O10   V2    S    
O1    V3    S    
C10   H20   S    
C20   C22   S    
C15   C17   S    
C14   C22   S    
O14   V4    S    
C26   H12   S    
C36   O28   S    
O18   V4    S    
O15   C5    A    
O16   C6    A    
O1    C3    A    
O13   V1    S    
C13   C33   S    
V2    O20   S    
O10   C6    A    
C14   C34   S    
C5    C20   S    
O16   V4    S    
C10   C12   S    
C6    C19   S    
C15   C37   S    
C16   C38   S    
O5    V1    S    
O17   C7    A    
O6    V2    S    
C39   O33   D    
C12   H22   S    
O18   C8    A    
C11   H21   S    
O2    V4    S    
C9    H19   S    
O22   H13   S    
V3    O19   S    
C40   O35   D    
C27   C31   S    
V4    O20   S    
C7    C17   S    
C3    C30   S    
O8    V2    S    
C24   C40   S    
C15   C23   S    
C4    C29   S    
O9    C5    A    
C9    H1    S    
C10   H2    S    
O14   V2    S    
C33   O21   D    
O2    C4    A    
C9    C11   S    
C35   O25   D    
O4    V2    S    
C20   C24   S    
C2    O12   A    
O32   H30   S    
C13   C17   S    
C21   H25   S    
C26   C28   D    
C1    C25   S    
