data_mof_unit_47653.cif
_audit_creation_date              2012-12-10T17:40:57-0500
_audit_creation_method            fapswitch 2.2
_symmetry_space_group_name_H-M    P1
_symmetry_Int_Tables_number       1
_space_group_crystal_system       triclinic
_cell_length_a                    14.901283
_cell_length_b                    15.260919
_cell_length_c                    9.904212
_cell_angle_alpha                 91.034543
_cell_angle_beta                  89.159993
_cell_angle_gamma                 90.679472
_cell_volume                      2251.52926221

loop_
_atom_site_label
_atom_site_type_symbol
_atom_type_description
_atom_site_fract_x
_atom_site_fract_y
_atom_site_fract_z
_atom_type_partial_charge
C1    C     C_R   0.381694 0.878925 0.499690 0.854780
C2    C     C_R   0.384984 0.124730 0.502403 0.855681
C3    C     C_R   0.881696 0.378923 0.499688 0.854782
C4    C     C_R   0.884992 0.624736 0.502401 0.855689
C5    C     C_R   0.296400 0.230424 0.385715 -0.233842
C6    C     C_R   0.232147 0.830174 0.462264 -0.232624
C7    C     C_R   0.796416 0.730438 0.385707 -0.233811
C8    C     C_R   0.732152 0.330169 0.462223 -0.232585
C9    C     C_R   0.725465 0.786341 0.382757 -0.220722
C10   C     C_R   0.667473 0.265887 0.461126 -0.217453
C11   C     C_R   0.225451 0.286329 0.382759 -0.220718
C12   C     C_R   0.167469 0.765891 0.461163 -0.217477
C13   C     C_R   0.676431 0.803768 0.500884 -0.103455
C14   C     C_R   0.689541 0.181981 0.500359 -0.070936
C15   C     C_R   0.176413 0.303755 0.500880 -0.103442
C16   C     C_R   0.189542 0.681981 0.500361 -0.070915
C17   C     C_R   0.335895 0.994995 0.143280 -0.180527
C18   C     C_R   0.835894 0.495013 0.143280 -0.180530
C19   C     C_R   0.254219 0.991754 0.075547 0.187330
C20   C     C_R   0.754216 0.491799 0.075546 0.187328
C21   C     C_R   0.255005 0.994462 0.935122 -0.236524
C22   C     C_R   0.755004 0.494511 0.935121 -0.236539
C23   C     C_R   0.335967 0.998210 0.863512 -0.186072
C24   C     C_R   0.835967 0.498234 0.863511 -0.186038
C25   C     C_R   0.419112 0.998880 0.929411 0.153742
C26   C     C_R   0.919112 0.498891 0.929410 0.153748
C27   C     C_R   0.419112 0.998239 0.073842 0.123692
C28   C     C_R   0.919111 0.498249 0.073842 0.123673
C29   C     C_R   0.577351 0.001711 0.069844 -0.130321
C30   C     C_R   0.077351 0.501703 0.069844 -0.130308
C31   C     C_R   0.619854 0.119432 0.500138 0.869102
C32   C     C_R   0.615112 0.875567 0.499410 0.848224
C33   C     C_R   0.119855 0.619431 0.500138 0.869079
C34   C     C_R   0.115107 0.375565 0.499409 0.848228
C35   C     C_R   0.577319 0.001498 0.926640 -0.127591
C36   C     C_R   0.077319 0.501490 0.926640 -0.127614
C37   C     C_R   0.316939 0.210008 0.762031 -0.211941
C38   C     C_R   0.433154 0.701451 0.560264 -0.234848
C39   C     C_R   0.816997 0.710053 0.762015 -0.211907
C40   C     C_R   0.933152 0.201445 0.560278 -0.234872
C41   C     C_R   0.263768 0.220247 0.878124 -0.198042
C42   C     C_R   0.454785 0.616446 0.596812 -0.175790
C43   C     C_R   0.763840 0.720291 0.878121 -0.198038
C44   C     C_R   0.954776 0.116446 0.596866 -0.175764
C45   C     C_R   0.674078 0.743720 0.867282 0.222516
C46   C     C_R   0.887787 0.051621 0.605180 0.237375
C47   C     C_R   0.174011 0.243691 0.867262 0.222552
C48   C     C_R   0.387798 0.551617 0.605106 0.237405
C49   C     C_R   0.641640 0.765395 0.740720 -0.198337
C50   C     C_R   0.799329 0.072757 0.573805 -0.236337
C51   C     C_R   0.141593 0.265371 0.740697 -0.198411
C52   C     C_R   0.299337 0.572752 0.573752 -0.236279
C53   C     C_R   0.698127 0.763705 0.624215 0.046329
C54   C     C_R   0.776972 0.158830 0.536735 0.058254
C55   C     C_R   0.198092 0.263680 0.624206 0.046374
C56   C     C_R   0.276976 0.658829 0.536714 0.058231
C57   C     C_R   0.281056 0.222915 0.632027 0.101380
C58   C     C_R   0.343826 0.723833 0.532725 0.100440
C59   C     C_R   0.781095 0.722947 0.632021 0.101358
C60   C     C_R   0.843824 0.223830 0.532735 0.100438
C61   C     C_R   0.323572 0.196815 0.508726 -0.108595
C62   C     C_R   0.318927 0.809362 0.498423 -0.063738
C63   C     C_R   0.823596 0.696834 0.508718 -0.108563
C64   C     C_R   0.818928 0.309359 0.498415 -0.063761
H1    H     H_    0.330016 0.213693 0.291106 0.172936
H2    H     H_    0.214613 0.896429 0.436359 0.139662
H3    H     H_    0.830023 0.713698 0.291094 0.172919
H4    H     H_    0.714621 0.396422 0.436288 0.139660
H5    H     H_    0.192700 0.992681 0.880049 0.147034
H6    H     H_    0.692700 0.492740 0.880047 0.146996
H7    H     H_    0.330605 0.000431 0.756623 0.220543
H8    H     H_    0.830607 0.500441 0.756622 0.220546
H9    H     H_    0.640489 0.002365 0.871379 0.151447
H10   H     H_    0.140488 0.502349 0.871380 0.151456
H11   H     H_    0.386680 0.195110 0.776968 0.182997
H12   H     H_    0.486651 0.749149 0.551718 0.130764
H13   H     H_    0.886742 0.695159 0.776928 0.182979
H14   H     H_    0.986650 0.249138 0.551703 0.130753
H15   H     H_    0.292280 0.207931 0.975892 0.141678
H16   H     H_    0.523812 0.601237 0.618904 0.149351
H17   H     H_    0.792366 0.707980 0.975882 0.141668
H18   H     H_    0.023803 0.101237 0.618974 0.149373
H19   H     H_    0.572009 0.783498 0.735687 0.173793
H20   H     H_    0.748699 0.021411 0.577459 0.144613
H21   H     H_    0.071966 0.283490 0.735654 0.173782
H22   H     H_    0.248712 0.521402 0.577393 0.144616
H23   H     H_    0.709585 0.816373 0.287924 0.160500
H24   H     H_    0.599818 0.281626 0.431859 0.144258
H25   H     H_    0.209580 0.316367 0.287929 0.160503
H26   H     H_    0.099810 0.781632 0.431919 0.144270
H27   H     H_    0.640537 0.002789 0.122282 0.147671
H28   H     H_    0.140537 0.502774 0.122282 0.147672
H29   H     H_    0.331561 0.994542 0.250116 0.218377
H30   H     H_    0.831562 0.494545 0.250115 0.218389
N1    N     N_R   0.498810 0.000000 0.142780 -0.112265
N2    N     N_R   0.998810 0.500000 0.142780 -0.112268
N3    N     N_R   0.498740 1.000000 0.857170 -0.118040
N4    N     N_R   0.998740 0.500000 0.857170 -0.118043
O1    O     O_R   0.408390 0.908380 0.614690 -0.636167
O2    O     O_R   0.408390 0.091620 0.614690 -0.649520
O3    O     O_R   0.908390 0.408380 0.614690 -0.636162
O4    O     O_R   0.908390 0.591620 0.614690 -0.649518
O5    O     O_R   0.408370 0.908380 0.385360 -0.632587
O6    O     O_R   0.408370 0.091620 0.385360 -0.638515
O7    O     O_R   0.908370 0.408380 0.385360 -0.632596
O8    O     O_R   0.908370 0.591620 0.385360 -0.638511
O9    O     O_R   0.591620 0.091610 0.614640 -0.618373
O10   O     O_R   0.591620 0.908390 0.614640 -0.634360
O11   O     O_R   0.091620 0.591610 0.614640 -0.618372
O12   O     O_R   0.091620 0.408390 0.614640 -0.634350
O13   O     O_R   0.591610 0.091610 0.385310 -0.609593
O14   O     O_R   0.591610 0.908390 0.385310 -0.615244
O15   O     O_R   0.091610 0.591610 0.385310 -0.609591
O16   O     O_R   0.091610 0.408390 0.385310 -0.615257
Zn1   Zn    Zn3+2 0.500010 1.000000 0.653130 0.918296
Zn2   Zn    Zn3+2 0.000010 0.500000 0.653130 0.918298
Zn3   Zn    Zn3+2 0.499980 1.000000 0.346870 0.931199
Zn4   Zn    Zn3+2 0.999980 0.500000 0.346870 0.931191
C65   C     C_3   0.613834 0.750408 0.990416 -0.421013
C66   C     C_3   0.539951 0.680288 0.987014 -0.857788
H31   H     H_    0.493289 0.691842 0.902915 0.257733
H32   H     H_    0.569577 0.614282 0.973542 0.261498
H33   H     H_    0.501089 0.682385 0.083524 0.260739
H34   H     H_    0.653235 0.743312 0.083579 0.193214
H35   H     H_    0.582824 0.816166 0.995629 0.216581
C67   C     C_3   0.910394 0.960231 0.647913 -0.425153
C68   C     C_3   0.960009 0.910234 0.535554 -0.864817
H36   H     H_    0.918522 0.906345 0.443281 0.268393
H37   H     H_    0.025166 0.942897 0.511417 0.252983
H38   H     H_    0.973192 0.842599 0.569032 0.245929
H39   H     H_    0.952490 0.963756 0.739633 0.199530
H40   H     H_    0.848338 0.922789 0.674661 0.213287
C69   C     C_3   0.113753 0.250404 0.990375 -0.420988
C70   C     C_3   0.039896 0.180254 0.987008 -0.857693
H41   H     H_    0.993323 0.191655 0.902713 0.257715
H42   H     H_    0.069570 0.114234 0.973860 0.261510
H43   H     H_    0.000921 0.182479 0.083421 0.260724
H44   H     H_    0.153146 0.243355 0.083565 0.193188
H45   H     H_    0.082717 0.316157 0.995518 0.216581
C71   C     C_3   0.410413 0.460218 0.647774 -0.425239
C72   C     C_3   0.459885 0.410214 0.535289 -0.864827
H46   H     H_    0.418294 0.406335 0.443127 0.268418
H47   H     H_    0.525021 0.442866 0.510987 0.253005
H48   H     H_    0.473086 0.342577 0.568730 0.245942
H49   H     H_    0.452611 0.463721 0.739381 0.199539
H50   H     H_    0.348372 0.422797 0.674672 0.213287
C73   C     C_3   0.166667 0.980258 0.152875 -0.422694
C74   C     C_3   0.150589 0.053829 0.256944 -0.875816
H51   H     H_    0.198176 0.049725 0.341669 0.247242
H52   H     H_    0.158678 0.118577 0.209498 0.278268
H53   H     H_    0.081341 0.048149 0.299127 0.257128
H54   H     H_    0.109139 0.977692 0.082723 0.202622
H55   H     H_    0.167279 0.916538 0.205158 0.210421
C75   C     C_3   0.666667 0.480310 0.152867 -0.422532
C76   C     C_3   0.650614 0.553841 0.257024 -0.875717
H56   H     H_    0.698181 0.549655 0.341766 0.247174
H57   H     H_    0.658757 0.618618 0.209670 0.278252
H58   H     H_    0.581354 0.548180 0.299169 0.257081
H59   H     H_    0.609129 0.477807 0.082712 0.202611
H60   H     H_    0.667240 0.416561 0.205080 0.210359

loop_
_geom_bond_atom_site_label_1
_geom_bond_atom_site_label_2
_ccdc_geom_bond_type
C58   C62   A    
C42   H16   S    
C67   C68   S    
C40   C60   A    
C76   H57   S    
C13   C32   S    
C27   N1    A    
C73   C74   S    
C74   H53   S    
C14   C31   S    
C1    C62   S    
C51   H21   S    
C70   H43   S    
C16   C56   A    
C53   C59   A    
C50   H20   S    
C54   C60   A    
C3    C64   S    
N1    Zn3   S    
C4    C63   S    
C10   H24   S    
C50   C54   A    
C6    H2    S    
C20   C75   S    
C39   H13   S    
O10   Zn1   S    
N2    Zn4   S    
C19   C21   A    
C24   C26   A    
C5    C11   A    
C44   H18   S    
C72   H47   S    
O1    Zn1   S    
O14   Zn3   S    
C17   H29   S    
C9    C13   A    
C30   N2    A    
O11   Zn2   S    
C38   C58   A    
C11   C15   A    
C47   C51   A    
C12   C16   A    
C66   H32   S    
C4    O4    A    
C45   C49   A    
N3    Zn1   S    
C1    O5    A    
C15   C34   S    
C18   C20   A    
C2    C61   S    
C3    O3    A    
C37   H11   S    
C2    O2    A    
C69   H44   S    
O8    Zn4   S    
C76   H58   S    
C1    O1    A    
O5    Zn3   S    
O2    Zn1   S    
C26   C28   A    
C44   C46   A    
C60   C64   A    
C13   C53   A    
C39   C43   A    
C59   C63   A    
C48   C71   S    
C17   C27   A    
C23   H7    S    
C49   H19   S    
C18   C28   A    
C74   H51   S    
C30   H28   S    
C10   C14   A    
C72   H48   S    
C71   H50   S    
C29   N1    A    
C38   H12   S    
C65   H34   S    
C4    O8    A    
C3    O7    A    
C21   H5    S    
C15   C55   A    
C68   H37   S    
C75   H60   S    
C16   C33   S    
C11   H25   S    
N4    Zn2   S    
C2    O6    A    
C39   C59   A    
C41   C47   A    
C5    C61   A    
C42   C48   A    
C71   C72   S    
C43   C45   A    
C7    C63   A    
C75   C76   S    
O16   Zn4   S    
C36   H10   S    
C8    C64   A    
C65   H35   S    
C40   H14   S    
C5    H1    S    
C14   C54   A    
C26   N4    A    
C69   H45   S    
C55   C57   A    
C69   C70   S    
C18   H30   S    
C22   C24   A    
O7    Zn4   S    
C34   O16   A    
C20   C22   A    
C40   C44   A    
C68   H36   S    
O12   Zn2   S    
C29   H27   S    
C66   H31   S    
C24   H8    S    
O6    Zn3   S    
C25   N3    A    
C7    C9    A    
C46   C50   A    
C35   H9    S    
C32   O14   A    
C43   H17   S    
C31   O9    A    
C46   C67   S    
C74   H52   S    
C71   H49   S    
C12   H26   S    
C70   H42   S    
C65   C66   S    
C66   H33   S    
C57   C61   A    
C70   H41   S    
C30   C36   A    
C25   C27   A    
C29   C35   A    
C33   O15   A    
O13   Zn3   S    
C28   N2    A    
C6    C62   A    
C8    H4    S    
C21   C23   A    
C73   H54   S    
C68   H38   S    
C75   H59   S    
C72   H46   S    
C9    H23   S    
C6    C12   A    
C45   C65   S    
C67   H39   S    
C49   C53   A    
C52   H22   S    
C17   C19   A    
C56   C58   A    
O9    Zn1   S    
C51   C55   A    
C23   C25   A    
C37   C41   A    
C73   H55   S    
C19   C73   S    
O4    Zn2   S    
C67   H40   S    
C47   C69   S    
C7    H3    S    
O15   Zn4   S    
C38   C42   A    
C48   C52   A    
C33   O11   A    
C8    C10   A    
C32   O10   A    
C41   H15   S    
C76   H56   S    
O3    Zn2   S    
C31   O13   A    
C36   N4    A    
C34   O12   A    
C35   N3    A    
C22   H6    S    
C37   C57   A    
C52   C56   A    
