data_mof_unit_42628.cif
_audit_creation_date              2012-12-11T14:00:00-0500
_audit_creation_method            fapswitch 2.2
_symmetry_space_group_name_H-M    P1
_symmetry_Int_Tables_number       1
_space_group_crystal_system       triclinic
_cell_length_a                    11.261922
_cell_length_b                    11.194592
_cell_length_c                    18.644788
_cell_angle_alpha                 90.085983
_cell_angle_beta                  89.405408
_cell_angle_gamma                 120.237535
_cell_volume                      2030.65875701

loop_
_atom_site_label
_atom_site_type_symbol
_atom_type_description
_atom_site_fract_x
_atom_site_fract_y
_atom_site_fract_z
_atom_type_partial_charge
C1    C     C_R   0.538756 0.481254 0.850225 0.593889
C2    C     C_R   0.482289 0.538731 0.349002 0.635491
C3    C     C_R   0.056443 0.516746 0.349270 0.600759
C4    C     C_R   0.454119 0.933764 0.353055 0.620455
C5    C     C_2   0.870080 0.421604 0.562604 -0.159113
C6    C     C_2   0.575817 0.448078 0.562250 -0.170551
C7    C     C_2   0.494479 0.970458 0.588709 -0.127192
C8    C     C_2   0.471825 0.965607 0.428869 -0.054898
C9    C     C_2   0.509111 0.486706 0.414675 -0.115995
C10   C     C_2   0.978370 0.488517 0.415701 -0.106619
C11   C     C_2   0.895638 0.358775 0.439937 -0.058505
C12   C     C_R   0.520613 0.061697 0.852677 0.582424
C13   C     C_2   0.637633 0.541600 0.440105 -0.037848
C14   C     C_2   0.394106 0.866314 0.478165 -0.046227
C15   C     C_2   0.380909 0.913274 0.549238 -0.058561
C16   C     C_2   0.655580 0.557108 0.518500 -0.079371
C17   C     C_2   0.888895 0.335853 0.518380 0.000674
C18   C     C_2   0.001056 0.508077 0.922952 -0.133708
C19   C     C_2   0.479363 0.511930 0.912017 -0.122665
C20   C     C_2   0.500255 0.991502 0.921783 -0.131342
C21   C     C_2   0.509665 0.006654 0.077632 -0.120120
C22   C     C_2   0.467587 0.531916 0.065541 -0.132077
C23   C     C_R   0.936054 0.458718 0.853269 0.591400
C24   C     C_2   0.990498 0.502191 0.079584 -0.111275
C25   C     C_2   0.005982 0.612078 0.040634 -0.022514
C26   C     C_2   0.359142 0.433223 0.027811 -0.030752
C27   C     C_2   0.604233 0.991740 0.038610 -0.031207
C28   C     C_2   0.608794 0.002183 0.958998 -0.027022
C29   C     C_2   0.375674 0.410666 0.951092 -0.020688
C30   C     C_2   0.982362 0.600073 0.962412 -0.024643
C31   C     C_2   0.828018 0.237465 0.390222 0.596422
C32   C     C_2   0.761056 0.605548 0.391431 0.582221
C33   C     C_2   0.326236 0.713397 0.465532 0.557603
C34   C     C_R   0.454807 0.574652 0.137652 0.543893
C35   C     C_2   0.245850 0.894833 0.572240 0.615234
C36   C     C_2   0.751144 0.699501 0.544860 0.699860
C37   C     C_2   0.928347 0.234871 0.543764 0.688868
C38   C     C_2   0.044481 0.748423 0.073602 0.661300
C39   C     C_2   0.223717 0.333982 0.060989 0.658866
C40   C     C_2   0.709597 0.968573 0.073879 0.651978
C41   C     C_2   0.735821 0.022468 0.921703 0.660196
C42   C     C_2   0.277541 0.272882 0.919849 0.659519
C43   C     C_2   0.941772 0.696098 0.930104 0.664275
C44   C     C_R   0.062041 0.521261 0.147489 0.572925
C45   C     C_R   0.459449 0.937928 0.147149 0.570580
C46   C     C_R   0.585149 0.449769 0.640732 0.544461
C47   C     C_R   0.518906 0.058896 0.650187 0.567619
C48   C     C_R   0.864352 0.414190 0.641146 0.558517
Cr1   Cr    Cr6+3 0.464030 0.233680 0.750360 1.100610
Cr2   Cr    Cr6+3 0.766320 0.230350 0.750360 1.096567
Cr3   Cr    Cr6+3 0.769650 0.535970 0.750360 1.097537
Cr4   Cr    Cr6+3 0.233680 0.464030 0.249640 1.133650
Cr5   Cr    Cr6+3 0.230350 0.766320 0.249640 1.101114
Cr6   Cr    Cr6+3 0.535970 0.769650 0.249640 1.155284
H1    H     H_    0.016705 0.575685 0.452111 0.165456
H2    H     H_    0.401114 0.955374 0.947557 0.142817
H3    H     H_    0.536895 0.617183 0.931679 0.141083
H4    H     H_    0.044669 0.450923 0.947014 0.160075
H5    H     H_    0.792302 0.342072 0.312673 0.322518
H6    H     H_    0.960934 0.749788 0.376790 0.355743
H7    H     H_    0.253393 0.655229 0.568255 0.328328
H8    H     H_    0.106815 0.849502 0.652006 0.367833
H9    H     H_    0.639641 0.776871 0.502101 0.309550
H10   H     H_    0.878977 0.062762 0.600646 0.371083
H11   H     H_    0.004822 0.852364 0.149680 0.338745
H12   H     H_    0.420622 0.430497 0.450099 0.142310
H13   H     H_    0.117350 0.175836 0.130194 0.339311
H14   H     H_    0.853246 0.026900 0.150571 0.334307
H15   H     H_    0.817577 0.960210 0.843592 0.331823
H16   H     H_    0.143129 0.166916 0.841418 0.337905
H17   H     H_    0.981739 0.843585 0.856244 0.334406
H18   H     H_    0.522325 0.074251 0.443523 0.085948
H19   H     H_    0.583102 0.965620 0.568803 0.171733
H20   H     H_    0.504580 0.348699 0.538666 0.107001
H21   H     H_    0.852656 0.499449 0.539084 0.121170
H22   H     H_    0.944299 0.400240 0.055730 0.162170
H23   H     H_    0.569200 0.589938 0.041465 0.166108
H24   H     H_    0.448397 0.045044 0.053116 0.145766
O1    O     O_R   0.434100 0.092480 0.829780 -0.469787
O2    O     O_R   0.362730 0.477510 0.175360 -0.467562
O3    O     O_R   0.114780 0.637270 0.175360 -0.487157
O4    O     O_R   0.522490 0.885220 0.175360 -0.493508
O5    O     O_R   0.432250 0.092620 0.670380 -0.475301
O6    O     O_R   0.907380 0.339630 0.670380 -0.454942
O7    O     O_R   0.660370 0.567750 0.670380 -0.472889
O8    O     O_R   0.092620 0.432250 0.329620 -0.448773
O9    O     O_R   0.339630 0.907380 0.329620 -0.498193
O10   O     O_R   0.567750 0.660370 0.329620 -0.456737
O11   O     O_R   0.475790 0.362860 0.676880 -0.468030
O12   O     O_R   0.907520 0.341620 0.829780 -0.464620
O13   O     O_R   0.637140 0.112930 0.676880 -0.488150
O14   O     O_R   0.887070 0.524210 0.676880 -0.470379
O15   O     O_R   0.362860 0.475790 0.323120 -0.460042
O16   O     O_R   0.112930 0.637140 0.323120 -0.484106
O17   O     O_R   0.524210 0.887070 0.323120 -0.433714
O18   O     O_3   0.666667 0.333333 0.749450 -0.348793
O19   O     O_3   0.333333 0.666667 0.250550 -0.296120
O20   O     O_2   0.806542 0.124108 0.409613 -0.429833
O21   O     O_R   0.784372 0.249277 0.321939 -0.647497
O22   O     O_2   0.752784 0.561833 0.330412 -0.514707
O23   O     O_R   0.658380 0.565900 0.829780 -0.476950
O24   O     O_R   0.886608 0.714066 0.415299 -0.641994
O25   O     O_2   0.337311 0.670259 0.407519 -0.458643
O26   O     O_R   0.253345 0.615683 0.519525 -0.659655
O27   O     O_2   0.170130 0.900856 0.527658 -0.441240
O28   O     O_R   0.201425 0.861839 0.643554 -0.649140
O29   O     O_2   0.854543 0.724054 0.577330 -0.427800
O30   O     O_R   0.727878 0.808086 0.529321 -0.622069
O31   O     O_2   0.037407 0.246709 0.523482 -0.428035
O32   O     O_R   0.839713 0.123738 0.587564 -0.662100
O33   O     O_2   0.137342 0.855063 0.047125 -0.476799
O34   O     O_R   0.092480 0.434100 0.170220 -0.486373
O35   O     O_R   0.970434 0.754208 0.132905 -0.629043
O36   O     O_2   0.118722 0.322468 0.036002 -0.510649
O37   O     O_R   0.215445 0.242100 0.114250 -0.621674
O38   O     O_2   0.731496 0.878343 0.051953 -0.472584
O39   O     O_R   0.785239 0.052514 0.131114 -0.637360
O40   O     O_2   0.849090 0.112069 0.941982 -0.453481
O41   O     O_R   0.724719 0.937144 0.864202 -0.662271
O42   O     O_2   0.256726 0.166830 0.949856 -0.450319
O43   O     O_R   0.207582 0.265657 0.856973 -0.649085
O44   O     O_2   0.845754 0.704087 0.955952 -0.472101
O45   O     O_R   0.341620 0.907520 0.170220 -0.484898
O46   O     O_R   0.017841 0.781560 0.872602 -0.640818
O47   O     O_R   0.565900 0.658380 0.170220 -0.456947
O48   O     O_R   0.477510 0.362730 0.824640 -0.472112
O49   O     O_R   0.637270 0.114780 0.824640 -0.477520
O50   O     O_R   0.885220 0.522490 0.824640 -0.471985

loop_
_geom_bond_atom_site_label_1
_geom_bond_atom_site_label_2
_ccdc_geom_bond_type
C29   C42   S    
C36   O30   S    
C33   O26   S    
H5    O21   S    
C28   C41   S    
C13   C32   S    
C45   O4    A    
C4    C8    S    
C42   O42   D    
Cr3   O7    S    
C14   C33   S    
Cr2   O6    S    
C7    H19   S    
C46   O11   A    
C45   O45   A    
Cr1   O48   S    
Cr3   O50   S    
C25   C38   S    
C26   C39   S    
C5    C17   D    
Cr4   O34   S    
C12   O1    A    
Cr4   O19   S    
Cr5   O3    S    
C31   O20   D    
C9    C13   D    
C9    H12   S    
H13   O37   S    
C34   O2    A    
C18   H4    S    
C21   H24   S    
Cr6   O19   S    
C2    O10   A    
C18   C30   D    
C31   O21   S    
C41   O40   D    
C37   O31   D    
C20   H2    S    
Cr3   O18   S    
C46   O7    A    
C7    C15   D    
C40   O39   S    
C21   C27   D    
C11   C31   S    
C3    O8    A    
C47   O13   A    
H6    O24   S    
C15   C35   S    
Cr6   O47   S    
Cr2   O12   S    
C6    H20   S    
C21   C45   S    
C22   C34   S    
C5    C48   S    
C8    H18   S    
C1    C19   S    
C18   C23   S    
H17   O46   S    
H7    O26   S    
C1    O48   A    
C44   O3    A    
Cr5   O45   S    
C12   O49   A    
C38   O35   S    
C24   H22   S    
C20   C28   D    
Cr5   O19   S    
H15   O41   S    
C19   H3    S    
C32   O22   D    
C4    O9    A    
C41   O41   S    
C7    C47   S    
C5    H21   S    
C35   O27   D    
H14   O39   S    
C4    O17   A    
H10   O32   S    
C27   C40   S    
C39   O36   D    
C12   C20   S    
C37   O32   S    
C23   O12   A    
Cr4   O15   S    
Cr5   O9    S    
C17   C37   S    
C24   C25   D    
C10   H1    S    
C43   O44   D    
Cr6   O17   S    
Cr3   O14   S    
C44   O34   A    
C39   O37   S    
C22   C26   D    
C24   C44   S    
C32   O24   S    
C30   C43   S    
C19   C29   D    
C1    O23   A    
Cr6   O4    S    
Cr1   O1    S    
C25   C30   S    
C11   C17   S    
C8    C14   D    
C6    C46   S    
Cr5   O16   S    
C33   O25   D    
H11   O35   S    
C2    O15   A    
C22   H23   S    
Cr1   O11   S    
H8    O28   S    
Cr3   O23   S    
Cr1   O5    S    
Cr4   O8    S    
C38   O33   D    
C35   O28   S    
C16   C36   S    
Cr6   O10   S    
H16   O43   S    
Cr2   O18   S    
C40   O38   D    
C34   O47   A    
C3    O16   A    
Cr1   O18   S    
C10   C11   D    
C6    C16   D    
C47   O5    A    
C48   O6    A    
Cr2   O13   S    
C26   C29   S    
C48   O14   A    
C13   C16   S    
C27   C28   S    
C3    C10   S    
C14   C15   S    
Cr2   O49   S    
H9    O30   S    
Cr4   O2    S    
C2    C9    S    
C43   O46   S    
C42   O43   S    
C23   O50   A    
C36   O29   D    
