data_mof_unit_46125.cif
_audit_creation_date              2012-12-10T21:07:45-0500
_audit_creation_method            fapswitch 2.2
_symmetry_space_group_name_H-M    P1
_symmetry_Int_Tables_number       1
_space_group_crystal_system       triclinic
_cell_length_a                    8.71419
_cell_length_b                    17.44958
_cell_length_c                    16.967969
_cell_angle_alpha                 92.161219
_cell_angle_beta                  98.493464
_cell_angle_gamma                 92.826141
_cell_volume                      2546.0857341

loop_
_atom_site_label
_atom_site_type_symbol
_atom_type_description
_atom_site_fract_x
_atom_site_fract_y
_atom_site_fract_z
_atom_type_partial_charge
Br1   Br    Br    0.945321 0.395796 0.402997 -0.272679
Br2   Br    Br    0.776401 0.600307 0.327413 -0.289353
Br3   Br    Br    0.053374 0.566267 0.629450 -0.229176
Br4   Br    Br    0.234845 0.732012 0.565715 -0.208999
Br5   Br    Br    0.510014 0.261526 0.326220 -0.189234
Br6   Br    Br    0.846058 0.700031 0.496078 -0.264770
Br7   Br    Br    0.743799 0.318030 0.658704 -0.271698
Br8   Br    Br    0.264085 0.375824 0.865028 -0.181842
Br9   Br    Br    0.807129 0.583796 0.139880 -0.221793
Br10  Br    Br    0.257732 0.380177 0.670503 -0.258061
C1    C     C_R   0.516622 0.354003 0.499930 0.994859
C2    C     C_R   0.380144 0.464193 0.236807 0.244585
C3    C     C_R   0.631822 0.533155 0.842293 0.247466
C4    C     C_R   0.378582 0.470888 0.151895 0.248157
C5    C     C_R   0.524107 0.487143 0.876011 -0.214130
C6    C     C_R   0.513571 0.498151 0.123332 -0.196025
C7    C     C_1   0.526856 0.488722 0.963959 0.246552
C8    C     C_1   0.525464 0.492908 0.036508 0.236633
C9    C     C_R   0.200755 0.496879 0.479966 0.954842
C10   C     C_R   0.798417 0.499454 0.520902 0.940084
C11   C     C_2   0.037000 0.481072 0.473795 0.031667
C12   C     C_R   0.501605 0.646957 0.501809 1.000000
C13   C     C_2   0.962436 0.507580 0.532590 0.064486
C14   C     C_R   0.466918 0.856149 0.557687 0.304883
C15   C     C_R   0.534607 0.144406 0.441426 0.340295
C16   C     C_R   0.427112 0.777173 0.542911 0.213599
C17   C     C_R   0.529439 0.223736 0.432854 0.204559
C18   C     C_R   0.529489 0.730364 0.509122 -0.293032
C19   C     C_R   0.563616 0.273785 0.501437 -0.328867
C20   C     C_R   0.670876 0.762347 0.492053 0.214077
C21   C     C_R   0.649396 0.246932 0.571948 0.188160
C22   C     C_R   0.693723 0.841764 0.489303 0.274353
C23   C     C_1   0.613978 0.969243 0.524434 0.254722
C24   C     C_R   0.678408 0.168507 0.576952 0.370593
C25   C     C_R   0.593511 0.888182 0.524791 -0.283210
C26   C     C_R   0.611523 0.117580 0.513298 -0.266678
C27   C     C_1   0.618619 0.037265 0.520912 0.311004
C28   C     C_R   0.409271 0.443939 0.823073 0.177999
C29   C     C_R   0.632840 0.533416 0.179011 0.183125
C30   C     C_R   0.405105 0.447740 0.739048 0.310441
C31   C     C_R   0.620824 0.536979 0.261924 0.320573
C32   C     C_R   0.602272 0.548219 0.759675 0.394416
H1    H     H_    0.564973 0.923790 0.714969 0.370595
H2    H     H_    0.341004 0.963068 0.352772 0.407008
H3    H     H_    0.972095 0.923190 0.562129 0.384262
H4    H     H_    0.782189 0.143886 0.790281 0.412163
H5    H     H_    0.768873 0.748405 0.786056 0.395109
H6    H     H_    0.122443 0.521626 0.273752 0.363833
H7    H     H_    0.045801 0.593632 0.879229 0.410749
H8    H     H_    0.967382 0.416719 0.083011 0.416760
N1    N     N_R   0.500040 0.500030 0.707230 -0.204872
N2    N     N_R   0.499960 0.499970 0.292770 -0.199946
O1    O     O_R   0.500000 0.389130 0.566570 -0.582919
O2    O     O_2   0.257598 0.872987 0.663574 -0.177178
O3    O     O_3   0.503978 0.964168 0.687747 -0.466858
O4    O     O_2   0.319823 0.116036 0.308338 -0.158151
O5    O     O_2   0.567204 0.053847 0.314473 -0.199816
O6    O     O_3   0.361816 0.001288 0.398249 -0.515153
O7    O     O_2   0.891095 0.828053 0.381709 -0.152966
O8    O     O_2   0.820600 0.958045 0.412503 -0.233554
O9    O     O_3   0.007754 0.892029 0.519003 -0.411689
O10   O     O_2   0.822249 0.051666 0.659187 -0.285106
O11   O     O_2   0.950441 0.179694 0.675732 -0.183267
O12   O     O_R   0.500000 0.610870 0.433430 -0.604086
O13   O     O_3   0.705506 0.154453 0.743331 -0.443420
O14   O     O_2   0.755798 0.638967 0.668360 -0.229039
O15   O     O_2   0.507748 0.680584 0.702905 -0.271126
O16   O     O_3   0.748384 0.698231 0.809041 -0.443398
O17   O     O_2   0.165495 0.345409 0.204796 -0.147079
O18   O     O_2   0.255215 0.372527 0.343129 -0.205292
O19   O     O_3   0.073960 0.468807 0.269585 -0.436182
O20   O     O_2   0.796110 0.630831 0.952873 -0.183197
O21   O     O_2   0.865129 0.496579 0.952715 -0.238820
O22   O     O_3   0.948699 0.580335 0.841971 -0.438330
O23   O     O_R   0.499990 0.389100 0.433480 -0.552435
O24   O     O_2   0.206367 0.501187 0.010623 -0.252407
O25   O     O_2   0.218534 0.367063 0.046926 -0.200415
O26   O     O_3   0.040435 0.456111 0.113722 -0.419580
O27   O     O_R   0.500010 0.610900 0.566520 -0.530788
O28   O     O_R   0.271750 0.500010 0.550980 -0.590148
O29   O     O_R   0.728250 0.499990 0.449020 -0.587232
O30   O     O_R   0.271740 0.499980 0.417890 -0.582650
O31   O     O_R   0.728260 0.500020 0.582110 -0.567439
O32   O     O_2   0.284325 0.974270 0.569652 -0.173558
S1    S     S_3+6 0.369612 0.916250 0.619895 0.143525
S2    S     S_3+6 0.444768 0.078932 0.362154 0.138532
S3    S     S_3+6 0.853557 0.881435 0.446942 0.146990
S4    S     S_3+6 0.795130 0.135957 0.664006 0.138823
S5    S     S_3+6 0.654618 0.642342 0.732383 0.129530
S6    S     S_3+6 0.219883 0.409694 0.265378 0.181289
S7    S     S_3+6 0.813436 0.561156 0.900805 0.151593
S8    S     S_3+6 0.209340 0.448101 0.078485 0.144571
Zn1   Zn    Zn3+2 0.500010 0.500020 0.588860 1.131675
Zn2   Zn    Zn3+2 0.499990 0.499980 0.411140 1.098504

loop_
_geom_bond_atom_site_label_1
_geom_bond_atom_site_label_2
_ccdc_geom_bond_type
C28   C30   A    
O25   S8    D    
Br1   C11   S    
O30   Zn2   S    
O11   S4    D    
C17   C19   A    
Br3   C13   S    
O15   S5    D    
C29   C31   A    
C2    S6    S    
C26   C27   S    
C9    C11   S    
C14   C16   A    
C12   O27   A    
O27   Zn1   S    
Br2   C31   S    
O31   Zn1   S    
O6    S2    S    
Br9   C29   S    
O5    S2    D    
Br10  C30   S    
O9    S3    S    
Br5   C17   S    
O24   S8    D    
H2    O6    S    
N2    Zn2   S    
C9    O30   A    
C14   S1    S    
C31   N2    A    
C1    O1    A    
C32   N1    A    
C12   C18   S    
C10   O29   A    
C3    S7    S    
O18   S6    D    
Br8   C28   S    
H8    O26   S    
C3    C32   A    
C2    N2    A    
O8    S3    D    
O16   S5    S    
O14   S5    D    
C11   C13   D    
C14   C25   A    
Br7   C21   S    
O1    Zn1   S    
C22   C25   A    
O32   S1    D    
O21   S7    D    
H4    O13   S    
O20   S7    D    
C6    C29   A    
O26   S8    S    
C22   S3    S    
O10   S4    D    
C23   C27   T    
O22   S7    S    
O3    S1    S    
C5    C28   A    
O4    S2    D    
C10   C13   S    
C7    C8    T    
C21   C24   A    
C24   S4    S    
C4    S8    S    
N1    Zn1   S    
H1    O3    S    
Br6   C20   S    
C2    C4    A    
C3    C5    A    
C4    C6    A    
H6    O19   S    
O17   S6    D    
H5    O16   S    
O13   S4    S    
C5    C7    S    
O2    S1    D    
Br4   C16   S    
C15   C17   A    
C30   N1    A    
C16   C18   A    
C32   S5    S    
C18   C20   A    
O12   Zn2   S    
C19   C21   A    
C1    O23   A    
C20   C22   A    
O29   Zn2   S    
O19   S6    S    
H3    O9    S    
C15   S2    S    
C23   C25   S    
C24   C26   A    
C9    O28   A    
O7    S3    D    
C15   C26   A    
C12   O12   A    
C1    C19   S    
C6    C8    S    
C10   O31   A    
H7    O22   S    
O28   Zn1   S    
O23   Zn2   S    
