data_mof_unit_32123.cif
_audit_creation_date              2012-12-11T15:52:15-0500
_audit_creation_method            fapswitch 2.2
_symmetry_space_group_name_H-M    P1
_symmetry_Int_Tables_number       1
_space_group_crystal_system       triclinic
_cell_length_a                    10.972034
_cell_length_b                    10.97764
_cell_length_c                    18.812427
_cell_angle_alpha                 90.058227
_cell_angle_beta                  89.925163
_cell_angle_gamma                 119.946185
_cell_volume                      1963.38935362

loop_
_atom_site_label
_atom_site_type_symbol
_atom_type_description
_atom_site_fract_x
_atom_site_fract_y
_atom_site_fract_z
_atom_type_partial_charge
C1    C     C_R   0.519749 0.458368 0.147480 0.534556
C2    C     C_R   0.541604 0.061269 0.147494 0.535319
C3    C     C_R   0.938750 0.480225 0.147491 0.535820
C4    C     C_R   0.451725 0.523162 0.855493 0.544337
C5    C     C_R   0.071268 0.548244 0.855477 0.543092
C6    C     C_R   0.476794 0.928607 0.855515 0.543948
C7    C     C_3   0.745017 0.028061 0.539295 -0.278642
C8    C     C_3   0.968989 0.717708 0.548144 -0.270994
C9    C     C_3   0.286548 0.256465 0.540159 -0.278970
C10   C     C_3   0.963721 0.716742 0.467918 -0.265784
C11   C     C_3   0.752965 0.037456 0.459216 -0.268149
C12   C     C_3   0.290754 0.246495 0.460327 -0.268952
C13   C     C_R   0.516888 0.458472 0.352801 0.548103
C14   C     C_R   0.541719 0.059042 0.353023 0.546844
C15   C     C_R   0.936004 0.480192 0.354729 0.545300
C16   C     C_R   0.453096 0.522817 0.643652 0.548034
C17   C     C_R   0.060923 0.541826 0.646478 0.553331
C18   C     C_R   0.478744 0.933416 0.644438 0.546149
C19   C     C_R   0.485304 0.955334 0.931331 0.018788
C20   C     C_R   0.044169 0.529924 0.931257 0.018970
C21   C     C_R   0.470034 0.514444 0.931283 0.018418
C22   C     C_R   0.008155 0.502474 0.079059 0.010771
C23   C     C_R   0.494574 0.991835 0.079109 0.010940
C24   C     C_R   0.497391 0.505351 0.079075 0.011057
C25   C     C_R   0.398611 0.997522 0.963915 -0.001149
C26   C     C_R   0.001791 0.401025 0.963622 -0.000702
C27   C     C_R   0.598891 0.600892 0.963723 -0.000973
C28   C     C_R   0.981926 0.386954 0.036383 0.005609
C29   C     C_R   0.404746 0.017625 0.036662 0.005905
C30   C     C_R   0.612910 0.594837 0.036464 0.005963
C31   C     C_R   0.562252 0.925312 0.048143 -0.160760
C32   C     C_R   0.074838 0.636603 0.048262 -0.160623
C33   C     C_R   0.363246 0.437856 0.048253 -0.160497
C34   C     C_R   0.091178 0.650001 0.974695 -0.146910
C35   C     C_R   0.558926 0.908692 0.974585 -0.146783
C36   C     C_R   0.349896 0.441089 0.974702 -0.146905
C37   C     C_3   0.387183 0.124815 0.949197 -0.282521
C38   C     C_3   0.874155 0.262702 0.948870 -0.282518
C39   C     C_3   0.737489 0.611886 0.948851 -0.282323
C40   C     C_3   0.851093 0.247295 0.028514 -0.242503
C41   C     C_3   0.395248 0.148178 0.028822 -0.242356
C42   C     C_3   0.752836 0.603956 0.028462 -0.242541
C43   C     C_R   0.488464 0.965266 0.569264 0.019645
C44   C     C_R   0.994898 0.496430 0.577632 0.014405
C45   C     C_R   0.473032 0.515976 0.567988 0.019674
C46   C     C_R   0.971396 0.492221 0.429318 0.022492
C47   C     C_R   0.499413 0.986531 0.420770 0.018104
C48   C     C_R   0.484548 0.501289 0.419944 0.017483
C49   C     C_R   0.589286 0.951778 0.530564 0.042140
C50   C     C_R   0.935005 0.567489 0.544347 0.017221
C51   C     C_R   0.360620 0.411649 0.530033 0.035132
C52   C     C_R   0.925731 0.566197 0.471707 0.048134
C53   C     C_R   0.594879 0.960844 0.458031 0.027689
C54   C     C_R   0.364901 0.404142 0.457621 0.022152
C55   C     C_R   0.381758 0.973283 0.457400 -0.170735
C56   C     C_R   0.011580 0.403629 0.462489 -0.174881
C57   C     C_R   0.584513 0.622894 0.455433 -0.154778
C58   C     C_R   0.022069 0.404752 0.536597 -0.165120
C59   C     C_R   0.377936 0.966002 0.531863 -0.164952
C60   C     C_R   0.579775 0.629540 0.529830 -0.152497
Cr1   Cr    Cr6+3 0.769160 0.541570 0.250690 1.006798
Cr2   Cr    Cr6+3 0.458430 0.227590 0.250690 1.003305
Cr3   Cr    Cr6+3 0.772410 0.230840 0.250690 1.004242
Cr4   Cr    Cr6+3 0.541570 0.769160 0.749310 1.009994
Cr5   Cr    Cr6+3 0.227590 0.458430 0.749310 1.009080
Cr6   Cr    Cr6+3 0.230840 0.772410 0.749310 1.007487
H1    H     H_    0.628812 0.899198 0.079491 0.134389
H2    H     H_    0.101268 0.729194 0.079781 0.134532
H3    H     H_    0.270628 0.371536 0.079717 0.134576
H4    H     H_    0.135802 0.753930 0.951748 0.148238
H5    H     H_    0.618446 0.864230 0.951490 0.148264
H6    H     H_    0.245957 0.381771 0.951740 0.148262
H7    H     H_    0.785379 0.961433 0.561557 0.131537
H8    H     H_    0.075111 0.791163 0.568613 0.162569
H9    H     H_    0.178379 0.213285 0.561521 0.133557
H10   H     H_    0.878446 0.731322 0.446376 0.139208
H11   H     H_    0.800576 0.147108 0.440200 0.175111
H12   H     H_    0.359806 0.205571 0.442988 0.171404
H13   H     H_    0.784889 0.131532 0.565913 0.142011
H14   H     H_    0.883208 0.728193 0.573448 0.126538
H15   H     H_    0.352582 0.221087 0.568194 0.138469
H16   H     H_    0.067951 0.783633 0.442710 0.134626
H17   H     H_    0.796704 0.975007 0.434969 0.122606
H18   H     H_    0.185008 0.196750 0.435198 0.127422
O1    O     O_R   0.911480 0.572650 0.170990 -0.529257
O2    O     O_R   0.427350 0.338830 0.170990 -0.529448
O3    O     O_R   0.661170 0.088520 0.170990 -0.529279
O4    O     O_R   0.572650 0.911480 0.829010 -0.528662
O5    O     O_R   0.338830 0.427350 0.829010 -0.528018
O6    O     O_R   0.088520 0.661170 0.829010 -0.528805
O7    O     O_R   0.640340 0.528970 0.175680 -0.501895
O8    O     O_R   0.471030 0.111370 0.175680 -0.501117
O9    O     O_R   0.888630 0.359660 0.175680 -0.500683
O10   O     O_R   0.528970 0.640340 0.824320 -0.500753
O11   O     O_R   0.111370 0.471030 0.824320 -0.501697
O12   O     O_R   0.359660 0.888630 0.824320 -0.500831
O13   O     O_R   0.909980 0.572450 0.331530 -0.518037
O14   O     O_R   0.427550 0.337530 0.331530 -0.524795
O15   O     O_R   0.662470 0.090020 0.331530 -0.524537
O16   O     O_R   0.572450 0.909980 0.668470 -0.518973
O17   O     O_R   0.337530 0.427550 0.668470 -0.519241
O18   O     O_R   0.090020 0.662470 0.668470 -0.524082
O19   O     O_R   0.638950 0.528780 0.324500 -0.503558
O20   O     O_R   0.471220 0.110170 0.324500 -0.508356
O21   O     O_R   0.889830 0.361050 0.324500 -0.508689
O22   O     O_R   0.528780 0.638950 0.675500 -0.506957
O23   O     O_R   0.110170 0.471220 0.675500 -0.508636
O24   O     O_R   0.361050 0.889830 0.675500 -0.507014
O25   O     O_3   0.666667 0.333333 0.250560 -0.245938
O26   O     O_3   0.333333 0.666667 0.749440 -0.252289
H19   H     H_    0.283248 0.097734 0.926388 0.141883
H20   H     H_    0.900896 0.185723 0.925770 0.142036
H21   H     H_    0.814343 0.715637 0.925923 0.141993
H22   H     H_    0.755259 0.249845 0.045361 0.145913
H23   H     H_    0.493486 0.244140 0.045393 0.146294
H24   H     H_    0.750545 0.505699 0.045076 0.145948
H25   H     H_    0.479786 0.207755 0.920049 0.130891
H26   H     H_    0.791194 0.272761 0.919975 0.130511
H27   H     H_    0.727741 0.519157 0.919738 0.130782
H28   H     H_    0.863113 0.160532 0.051330 0.147695
H29   H     H_    0.296506 0.136063 0.051914 0.147673
H30   H     H_    0.839441 0.702612 0.051426 0.147686
H31   H     H_    0.300289 0.981551 0.429360 0.114915
H32   H     H_    0.038532 0.337359 0.431360 0.121853
H33   H     H_    0.670489 0.706595 0.426483 0.116759
H34   H     H_    0.063555 0.343923 0.560879 0.139608
H35   H     H_    0.292827 0.967070 0.560084 0.117961
H36   H     H_    0.660783 0.720042 0.557357 0.125915

loop_
_geom_bond_atom_site_label_1
_geom_bond_atom_site_label_2
_ccdc_geom_bond_type
C45   C60   A    
C55   C59   A    
C43   C59   A    
C3    O1    A    
Cr6   O18   S    
C9    C51   S    
Cr5   O17   S    
C10   C52   S    
C48   C57   A    
C7    H7    S    
C5    C20   S    
C56   H32   S    
C48   C54   A    
C6    C19   S    
Cr2   O2    S    
C7    H13   S    
C22   C32   A    
C23   C29   A    
Cr6   O12   S    
Cr1   O19   S    
C41   H23   S    
C17   O23   A    
C57   H33   S    
C49   C53   A    
C45   C51   A    
C59   H35   S    
C46   C52   A    
C33   C36   A    
C6    O4    A    
C12   H18   S    
C41   H29   S    
C13   O14   A    
Cr3   O15   S    
C11   H11   S    
C25   C37   S    
Cr2   O14   S    
C10   H10   S    
C40   H22   S    
C44   C58   A    
C39   H21   S    
Cr2   O8    S    
C50   C52   A    
C13   O19   A    
C34   H4    S    
C5    O6    A    
C11   C53   S    
C33   H3    S    
C47   C53   A    
Cr3   O3    S    
C21   C27   A    
Cr1   O25   S    
C1    O7    A    
C22   C28   A    
C27   C30   A    
C18   O16   A    
C15   O13   A    
Cr4   O26   S    
C5    O11   A    
C7    C11   S    
C39   C42   S    
Cr2   O20   S    
Cr5   O23   S    
C25   C29   A    
C55   H31   S    
Cr5   O11   S    
C14   O15   A    
C7    C49   S    
Cr6   O6    S    
C27   C39   S    
C21   C36   A    
C43   C49   A    
C57   C60   A    
C11   H17   S    
C10   H16   S    
C12   H12   S    
C23   C31   A    
Cr3   O25   S    
Cr5   O5    S    
C17   O18   A    
C14   O20   A    
C60   H36   S    
C8    H8    S    
Cr1   O13   S    
C2    O3    A    
C3    O9    A    
Cr6   O26   S    
C2    O8    A    
Cr1   O1    S    
C4    O10   A    
C42   H24   S    
C40   H28   S    
C58   H34   S    
C6    O12   A    
C31   C35   A    
C24   C30   A    
Cr3   O21   S    
C38   H20   S    
C8    C50   S    
C42   H30   S    
C47   C55   A    
C4    O5    A    
C44   C50   A    
C1    O2    A    
C9    H15   S    
C29   C41   S    
C26   C38   S    
Cr6   O24   S    
C16   C45   S    
C13   C48   S    
Cr4   O22   S    
C14   C47   S    
C16   O22   A    
Cr3   O9    S    
C26   C28   A    
C24   C33   A    
C32   H2    S    
C51   C54   A    
C15   O21   A    
C17   C44   S    
Cr4   O10   S    
C19   C35   A    
C18   C43   S    
C38   C40   S    
C4    C21   S    
Cr2   O25   S    
C20   C26   A    
C39   H27   S    
C56   C58   A    
C37   C41   S    
C19   C25   A    
C9    C12   S    
C18   O24   A    
Cr5   O26   S    
C37   H19   S    
C31   H1    S    
C35   H5    S    
C20   C34   A    
C38   H26   S    
Cr1   O7    S    
C16   O17   A    
Cr4   O16   S    
C37   H25   S    
C1    C24   S    
C8    C10   S    
C46   C56   A    
C2    C23   S    
C8    H14   S    
C28   C40   S    
C30   C42   S    
C3    C22   S    
C9    H9    S    
C15   C46   S    
Cr4   O4    S    
C12   C54   S    
C36   H6    S    
C32   C34   A    
