data_mof_unit_35658.cif
_audit_creation_date              2012-12-10T16:48:39-0500
_audit_creation_method            fapswitch 2.2
_symmetry_space_group_name_H-M    P1
_symmetry_Int_Tables_number       1
_space_group_crystal_system       triclinic
_cell_length_a                    7.840193
_cell_length_b                    8.565042
_cell_length_c                    10.818689
_cell_angle_alpha                 88.694809
_cell_angle_beta                  99.679165
_cell_angle_gamma                 93.530066
_cell_volume                      714.734423086

loop_
_atom_site_label
_atom_site_type_symbol
_atom_type_description
_atom_site_fract_x
_atom_site_fract_y
_atom_site_fract_z
_atom_type_partial_charge
C1    C     C_R   0.544461 0.794386 0.496887 0.962376
C2    C     C_2   0.432359 0.041863 0.504801 -0.361977
C3    C     C_2   0.226774 0.614594 0.077517 0.506523
C4    C     C_2   0.773226 0.385406 0.922484 0.506482
C5    C     C_2   0.986127 0.314817 0.425477 0.715171
C6    C     C_2   0.013885 0.685203 0.574495 0.715140
C7    C     C_R   0.455539 0.205614 0.503112 0.962395
C8    C     C_R   0.573982 0.492148 0.735638 0.846750
C9    C     C_R   0.426017 0.507852 0.264362 0.846778
C10   C     C_2   0.619180 0.474155 0.870355 -0.224549
C11   C     C_2   0.380819 0.525845 0.129645 -0.224544
C12   C     C_2   0.506719 0.527727 0.937207 -0.122389
C13   C     C_2   0.493280 0.472272 0.062793 -0.122407
C14   C     C_2   0.567640 0.958136 0.495198 -0.361996
H1    H     H_    0.586647 0.391611 0.107449 0.219846
H2    H     H_    0.413352 0.608388 0.892551 0.219865
H3    H     H_    0.695515 0.009213 0.486090 0.171182
H4    H     H_    0.304485 0.990787 0.513909 0.171191
H5    H     H_    0.175602 0.693363 0.137509 0.070431
H6    H     H_    0.824398 0.306638 0.862492 0.070448
H7    H     H_    0.002098 0.215703 0.489825 -0.026960
H8    H     H_    0.997754 0.784255 0.510095 -0.026891
N1    N     N_2   0.940600 0.458860 0.467170 -0.179585
N2    N     N_2   0.059400 0.541140 0.532830 -0.179530
O1    O     O_R   0.391630 0.738350 0.508060 -0.640323
O2    O     O_2   0.849697 0.404929 0.029441 -0.512521
O3    O     O_2   0.998632 0.299083 0.315642 -0.561457
O4    O     O_2   0.001570 0.701028 0.684355 -0.561486
O5    O     O_R   0.608370 0.261650 0.491940 -0.640345
O6    O     O_R   0.674540 0.711990 0.487010 -0.642247
O7    O     O_R   0.325460 0.288010 0.512990 -0.642196
O8    O     O_R   0.411370 0.508250 0.688780 -0.598665
O9    O     O_R   0.588630 0.491750 0.311220 -0.598715
O10   O     O_R   0.694270 0.481880 0.667740 -0.600603
O11   O     O_R   0.305730 0.518120 0.332260 -0.600532
O12   O     O_2   0.150303 0.595071 0.970559 -0.512503
Zn1   Zn    Zn3+2 0.311100 0.517600 0.514050 0.978957
Zn2   Zn    Zn3+2 0.688900 0.482400 0.485950 0.978884

loop_
_geom_bond_atom_site_label_1
_geom_bond_atom_site_label_2
_ccdc_geom_bond_type
O5    Zn2   S    
C4    O2    D    
N1    N2    D    
C3    H5    S    
C7    O5    A    
C2    H4    S    
N1    Zn2   S    
C9    C11   S    
C2    C7    S    
C5    N1    S    
C6    N2    S    
N2    Zn1   S    
C5    H7    S    
C8    O10   A    
O8    Zn1   S    
C1    O1    A    
C11   C13   D    
C14   H3    S    
C8    O8    A    
C10   C12   D    
C3    O12   D    
C9    O9    A    
C1    O6    A    
O11   Zn1   S    
C13   H1    S    
C2    C14   D    
C7    O7    A    
C4    C10   S    
C6    H8    S    
C12   H2    S    
C3    C11   S    
C12   C13   S    
O6    Zn2   S    
C8    C10   S    
C9    O11   A    
O10   Zn2   S    
O9    Zn2   S    
C1    C14   S    
O1    Zn1   S    
C5    O3    D    
C6    O4    D    
O7    Zn1   S    
C4    H6    S    
