data_mof_unit_47468.cif
_audit_creation_date              2012-12-10T19:10:04-0500
_audit_creation_method            fapswitch 2.2
_symmetry_space_group_name_H-M    P1
_symmetry_Int_Tables_number       1
_space_group_crystal_system       triclinic
_cell_length_a                    10.961961
_cell_length_b                    10.762704
_cell_length_c                    9.637956
_cell_angle_alpha                 90.642986
_cell_angle_beta                  90.638885
_cell_angle_gamma                 90.446541
_cell_volume                      1136.91139784

loop_
_atom_site_label
_atom_site_type_symbol
_atom_type_description
_atom_site_fract_x
_atom_site_fract_y
_atom_site_fract_z
_atom_type_partial_charge
C1    C     C_R   0.498212 0.262966 0.499266 0.854986
C2    C     C_R   0.203092 0.616810 0.983177 0.582631
C3    C     C_R   0.934773 0.476272 0.379235 0.531334
C4    C     C_R   0.872394 0.496456 0.503485 -0.152516
C5    C     C_R   0.941686 0.519345 0.625477 -0.038816
C6    C     C_R   0.067809 0.513720 0.621336 -0.247670
C7    C     C_R   0.128792 0.504799 0.496117 -0.173410
C8    C     C_R   0.060144 0.496342 0.371933 -0.075995
C9    C     C_R   0.886209 0.674142 0.805907 -0.219676
C10   C     C_R   0.858817 0.702983 0.943890 0.461128
C11   C     C_R   0.829441 0.605657 0.033969 -0.144613
C12   C     C_R   0.262624 0.502817 0.498809 0.822869
C13   C     C_R   0.824387 0.482555 0.984686 -0.159066
C14   C     C_R   0.857947 0.454413 0.849776 -0.168190
C15   C     C_R   0.889827 0.550007 0.760511 0.107983
C16   C     C_R   0.566030 0.066178 0.592798 -0.171990
C17   C     C_R   0.493060 0.129655 0.498842 -0.152999
C18   C     C_R   0.409969 0.062971 0.412922 0.485091
C19   C     C_R   0.414206 0.931951 0.412777 -0.330931
C20   C     C_R   0.494934 0.870287 0.502413 -0.076097
C21   C     C_R   0.565167 0.938536 0.597602 -0.090613
C22   C     C_3   0.698842 0.932275 0.632839 0.395245
C23   C     C_R   0.500557 0.737136 0.500581 0.856449
C24   C     C_3   0.700218 0.074046 0.627728 0.315606
C25   C     C_R   0.557245 0.591949 0.074873 0.247910
C26   C     C_R   0.452130 0.403433 0.072319 -0.080192
C27   C     C_R   0.451956 0.403494 0.924077 -0.067376
C28   C     C_R   0.558683 0.591330 0.928993 0.290290
C29   C     C_3   0.539576 0.728255 0.925135 -0.484477
C30   C     C_3   0.536189 0.728300 0.082653 -0.477059
C31   C     C_R   0.737801 0.498292 0.501145 0.867942
C32   C     C_R   0.197142 0.698742 0.097815 -0.273527
C33   C     C_R   0.150019 0.658351 0.223145 -0.226841
C34   C     C_R   0.110835 0.534868 0.237838 0.202961
C35   C     C_R   0.119707 0.451803 0.125853 -0.141274
C36   C     C_R   0.167102 0.492393 0.000119 -0.227070
Cu1   Cu    Cu3+1 0.499990 0.499980 0.640670 0.980631
Cu2   Cu    Cu3+1 0.500010 0.500020 0.359330 0.985358
H1    H     H_    0.801120 0.626277 0.138759 0.188017
H2    H     H_    0.790951 0.408218 0.048485 0.220006
H3    H     H_    0.858714 0.358456 0.814565 0.152522
H4    H     H_    0.357365 0.878363 0.341235 0.148968
H5    H     H_    0.718309 0.896701 0.737870 0.071609
H6    H     H_    0.714959 0.116338 0.732427 0.060551
H7    H     H_    0.409822 0.326691 0.125506 0.179313
H8    H     H_    0.229225 0.793705 0.091280 0.123960
H9    H     H_    0.409365 0.326820 0.868078 0.138525
H10   H     H_    0.620042 0.777576 0.884954 0.209188
H11   H     H_    0.453036 0.755664 0.875592 0.250299
H12   H     H_    0.614274 0.779251 0.131773 0.223878
H13   H     H_    0.445545 0.752117 0.124799 0.214878
H14   H     H_    0.144574 0.723374 0.309483 0.132011
H15   H     H_    0.091167 0.355847 0.136257 0.153577
H16   H     H_    0.176148 0.426143 0.915765 0.135912
H17   H     H_    0.118355 0.522001 0.716858 0.219653
H18   H     H_    0.907397 0.748219 0.734738 0.179189
N1    N     N_R   0.500790 0.500930 0.147930 -0.189730
N2    N     N_R   0.500790 0.500890 0.852020 -0.166466
O1    O     O_R   0.500000 0.319640 0.618810 -0.603050
O2    O     O_R   0.500010 0.319680 0.381230 -0.567586
O3    O     O_R   0.319640 0.499990 0.618790 -0.551241
O4    O     O_R   0.319650 0.500030 0.381210 -0.574480
O5    O     O_R   0.499990 0.680320 0.618770 -0.580920
O6    O     O_R   0.500000 0.680360 0.381190 -0.592995
O7    O     O_R   0.680350 0.499970 0.618790 -0.587060
O8    O     O_R   0.680360 0.500010 0.381210 -0.535324
O9    O     O_3   0.252975 0.651149 0.857460 -0.585389
C37   C     C_3   0.209738 0.767859 0.813566 -0.378036
H19   H     H_    0.260890 0.844985 0.865543 0.158905
H20   H     H_    0.110534 0.778801 0.830696 0.167565
H21   H     H_    0.225312 0.775618 0.700423 0.198324
O10   O     O_3   0.334986 0.127294 0.321952 -0.585268
C38   C     C_3   0.212672 0.086819 0.332983 -0.340414
H22   H     H_    0.152704 0.159016 0.288264 0.189621
H23   H     H_    0.184910 0.074172 0.442878 0.169040
H24   H     H_    0.196836 0.000041 0.271715 0.155977
F1    F     F_    0.766133 0.873905 0.530570 -0.679092
O11   O     O_3   0.782674 0.126881 0.530338 -0.563854
C39   C     C_3   0.752885 0.107371 0.388355 -0.139049
H25   H     H_    0.696332 0.023484 0.365816 0.189636
H26   H     H_    0.839030 0.096699 0.330320 0.164626
H27   H     H_    0.706685 0.190631 0.347136 0.160106
F2    F     F_    0.874070 0.437738 0.264582 -0.723013
O12   O     O_3   0.840705 0.826006 0.981245 -0.612925
C40   C     C_3   0.924006 0.862257 0.086631 -0.340440
H28   H     H_    0.018090 0.864821 0.045750 0.165631
H29   H     H_    0.918408 0.802597 0.179781 0.181547
H30   H     H_    0.901764 0.958174 0.120461 0.185286

loop_
_geom_bond_atom_site_label_1
_geom_bond_atom_site_label_2
_ccdc_geom_bond_type
C31   O8    A    
C30   H13   S    
C16   C21   A    
C35   H15   S    
C38   H22   S    
C35   C36   A    
C6    H17   S    
C7    C8    A    
C29   H11   S    
C40   H28   S    
C33   H14   S    
C26   C27   A    
Cu1   Cu2   S    
C28   C29   S    
C18   C19   A    
C1    O1    A    
C5    C6    A    
C2    C36   A    
C2    C32   A    
C34   C35   A    
C13   H2    S    
C26   H7    S    
Cu2   O8    S    
C16   C17   A    
Cu1   O7    S    
C9    C10   A    
Cu1   N2    S    
C19   H4    S    
C23   O5    A    
C30   H12   S    
C16   C24   S    
C21   C22   S    
C38   H23   S    
C25   N1    A    
Cu1   O5    S    
C33   C34   A    
Cu2   O6    S    
C40   H29   S    
C18   O10   S    
C7    C12   S    
C29   H10   S    
O9    C37   S    
O12   C40   S    
C2    O9    S    
C1    O2    A    
C39   H26   S    
O11   C39   S    
C37   H19   S    
C25   C28   A    
C29   C30   S    
Cu2   N1    S    
C12   O4    A    
C22   H5    S    
C20   C23   S    
C17   C18   A    
C9    H18   S    
C8    C34   S    
C11   H1    S    
Cu1   O1    S    
C14   H3    S    
Cu2   O2    S    
C24   O11   S    
C23   O6    A    
C3    C8    A    
C3    F2    S    
C24   H6    S    
C38   H24   S    
C22   C24   S    
C3    C4    A    
C40   H30   S    
C27   H9    S    
C25   C30   S    
C31   O7    A    
C32   H8    S    
C22   F1    S    
O10   C38   S    
C27   N2    A    
C39   H27   S    
Cu1   O3    S    
C6    C7    A    
C28   N2    A    
C1    C17   S    
C32   C33   A    
C19   C20   A    
C9    C15   A    
C12   O3    A    
C11   C13   A    
C37   H21   S    
C10   O12   S    
C26   N1    A    
C5    C15   S    
C4    C31   S    
C36   H16   S    
C10   C11   A    
C39   H25   S    
C4    C5    A    
C20   C21   A    
C37   H20   S    
C14   C15   A    
C13   C14   A    
Cu2   O4    S    
