data_mof_unit_59376.cif
_audit_creation_date              2013-03-05T15:46:23-0500
_audit_creation_method            fapswitch 2.2
_symmetry_space_group_name_H-M    P1
_symmetry_Int_Tables_number       1
_space_group_crystal_system       triclinic
_cell_length_a                    11.05544
_cell_length_b                    11.107108
_cell_length_c                    18.678809
_cell_angle_alpha                 89.887862
_cell_angle_beta                  90.542269
_cell_angle_gamma                 59.505001
_cell_volume                      1976.22371163

loop_
_atom_site_label
_atom_site_type_symbol
_atom_site_description
_atom_site_fract_x
_atom_site_fract_y
_atom_site_fract_z
_atom_type_partial_charge
O1    O     O_R   0.748800 0.497470 0.428000 -0.461792
O2    O     O_R   0.476420 0.724060 0.429470 -0.436691
C1    C     C_R   0.353832 0.781778 0.400518 0.548151
O3    O     O_R   0.264580 0.744340 0.416750 -0.551503
O4    O     O_R   0.309380 0.472470 0.418200 -0.493046
C2    C     C_R   0.407810 0.373007 0.380725 0.564047
O5    O     O_R   0.501710 0.260430 0.414300 -0.435253
O6    O     O_R   0.728090 0.305600 0.428960 -0.518579
C3    C     C_R   0.775948 0.379557 0.403260 0.596957
O7    O     O_R   0.738760 0.495930 0.588610 -0.498397
O8    O     O_R   0.467110 0.722640 0.578360 -0.491463
C4    C     C_R   0.346926 0.764492 0.605345 0.545494
O9    O     O_R   0.254530 0.742800 0.577360 -0.479066
O10   O     O_R   0.300070 0.471040 0.567100 -0.440274
C5    C     C_R   0.366227 0.349037 0.593496 0.576406
O11   O     O_R   0.491670 0.258900 0.574910 -0.512227
O12   O     O_R   0.718780 0.304180 0.577850 -0.501643
C6    C     C_R   0.766322 0.374435 0.609363 0.544420
Cr1   Cr    Cr6+3 0.601770 0.606860 0.505860 1.135019
Cr2   Cr    Cr6+3 0.291380 0.601660 0.495070 1.113673
Cr3   Cr    Cr6+3 0.606880 0.291510 0.499120 1.096425
O13   O     O_3   0.500010 0.500010 0.500020 -0.325092
C7    C     C_R   0.812259 0.923308 0.066615 -0.019452
C8    C     C_R   0.765655 0.060322 0.044426 -0.064849
C9    C     C_R   0.672852 0.172437 0.086971 -0.045939
C10   C     C_R   0.627345 0.147510 0.152585 0.063030
H1    H     H_    0.609197 0.213384 0.291243 0.171771
C11   C     C_R   0.375385 0.346204 0.152758 0.029714
C12   C     C_R   0.510380 0.278280 0.263171 -0.111763
C13   C     C_R   0.504003 0.261279 0.189350 -0.032258
C14   C     C_R   0.099626 0.682273 0.324475 -0.025330
C15   C     C_R   0.965731 0.780313 0.349135 0.136363
C16   C     C_R   0.682549 0.009569 0.176473 -0.053039
C17   C     C_R   0.769786 0.898444 0.132512 -0.024710
C18   C     C_R   0.269622 0.462379 0.186820 0.214630
C19   C     C_R   0.264823 0.464179 0.262026 -0.041221
C20   C     C_R   0.852262 0.765442 0.328397 -0.032012
C21   C     C_R   0.874418 0.646787 0.292558 0.362143
C22   C     C_R   0.011861 0.540978 0.277969 -0.001892
C23   C     C_R   0.126287 0.557905 0.294175 -0.014706
C24   C     C_R   0.389390 0.370178 0.301723 0.002930
H2    H     H_    0.801096 0.793576 0.149340 0.200325
H3    H     H_    0.880450 0.836631 0.032670 0.169566
H4    H     H_    0.796782 0.079557 0.992969 0.141318
H5    H     H_    0.629870 0.277910 0.066818 0.152586
H6    H     H_    0.181415 0.705081 0.319766 0.155730
H7    H     H_    0.651170 0.987895 0.227116 0.140451
H8    H     H_    0.748082 0.850760 0.335262 0.202436
H9    H     H_    0.029368 0.456413 0.244299 0.145538
C25   C     C_R   0.949759 0.284707 0.307449 0.364314
C26   C     C_R   0.977286 0.270915 0.234970 -0.093906
H10   H     H_    0.085451 0.218351 0.217883 0.098179
C27   C     C_R   0.867643 0.333723 0.184447 0.019169
C28   C     C_R   0.726822 0.413013 0.205939 0.224720
C29   C     C_R   0.700550 0.418927 0.279249 -0.104700
H11   H     H_    0.593759 0.477523 0.298309 0.127099
C30   C     C_R   0.811445 0.357209 0.329125 0.051685
C31   C     C_R   0.418262 0.902176 0.303669 0.252924
C32   C     C_R   0.402694 0.928747 0.228977 -0.109764
H12   H     H_    0.477127 0.946005 0.200759 0.143094
C33   C     C_R   0.287390 0.938226 0.191337 -0.025233
C34   C     C_R   0.175894 0.944317 0.232636 0.181384
C35   C     C_R   0.192021 0.926786 0.305739 -0.108988
H13   H     H_    0.106442 0.937560 0.336288 0.205255
C36   C     C_R   0.321337 0.876170 0.338151 0.011735
C37   C     C_R   0.401489 0.199875 0.693603 -0.144816
H14   H     H_    0.479293 0.110830 0.663743 0.190097
C38   C     C_R   0.409135 0.191625 0.766706 0.181368
C39   C     C_R   0.310597 0.306781 0.808330 -0.051932
C40   C     C_R   0.213910 0.430630 0.774066 -0.146498
H15   H     H_    0.143978 0.520094 0.805264 0.224371
C41   C     C_R   0.209337 0.440470 0.699550 0.172639
C42   C     C_R   0.313208 0.326348 0.659943 -0.031142
C43   C     C_R   0.855016 0.424378 0.716147 -0.109868
H16   H     H_    0.871206 0.498522 0.686146 0.220338
C44   C     C_R   0.842280 0.440358 0.788793 0.171586
C45   C     C_R   0.831401 0.337711 0.830633 -0.016654
C46   C     C_R   0.806209 0.240938 0.796105 -0.087215
H17   H     H_    0.794685 0.164878 0.826887 0.227997
C47   C     C_R   0.797218 0.241569 0.721708 -0.101040
H18   H     H_    0.767845 0.172824 0.695830 0.192084
C48   C     C_R   0.820702 0.334847 0.681717 -0.040130
C49   C     C_R   0.194455 0.883565 0.706541 -0.056503
H19   H     H_    0.103092 0.929094 0.671383 0.177434
C50   C     C_R   0.176505 0.901290 0.779436 0.386866
C51   C     C_R   0.293900 0.843926 0.825843 0.032030
C52   C     C_R   0.427686 0.757313 0.799462 -0.128012
H20   H     H_    0.516842 0.707768 0.835739 0.191202
C53   C     C_R   0.445844 0.738122 0.726157 -0.106313
H21   H     H_    0.549892 0.668152 0.705984 0.182320
C54   C     C_R   0.329308 0.804511 0.679501 -0.038741
O14   O     O_R   0.186690 0.923650 0.086970 -0.407751
O15   O     O_R   0.957250 0.194250 0.084630 -0.523815
C55   C     C_R   0.910265 0.316051 0.111086 0.569725
O16   O     O_R   0.934970 0.407490 0.085330 -0.453831
O17   O     O_R   0.203780 0.365190 0.067090 -0.452300
C56   C     C_R   0.332767 0.296977 0.089256 0.528859
O18   O     O_R   0.417600 0.174890 0.067840 -0.546604
O19   O     O_R   0.375320 0.946260 0.070860 -0.481238
C57   C     C_R   0.270968 0.961166 0.112525 0.561136
O20   O     O_R   0.160600 0.919630 0.926660 -0.437530
O21   O     O_R   0.933060 0.190520 0.936020 -0.501664
C58   C     C_R   0.881958 0.312311 0.904705 0.550379
O22   O     O_R   0.908880 0.403460 0.925020 -0.446431
O23   O     O_R   0.179600 0.361450 0.918490 -0.468330
C59   C     C_R   0.295848 0.286115 0.884394 0.549660
O24   O     O_R   0.391510 0.170860 0.907530 -0.464636
O25   O     O_R   0.351130 0.942530 0.922260 -0.465509
C60   C     C_R   0.274852 0.893574 0.898570 0.588837
Cr4   Cr    Cr6+3 0.062440 0.063090 0.008210 1.100603
Cr5   Cr    Cr6+3 0.062880 0.375170 0.998920 1.150031
Cr6   Cr    Cr6+3 0.374700 0.061720 0.992470 1.096153
O26   O     O_3   0.166667 0.166667 0.999870 -0.334900
F1    F     F_    0.762568 0.640542 0.267262 -0.648040
F2    F     F_    0.057168 0.232611 0.355866 -0.622691
N1    N     N_R   0.612227 0.492725 0.156207 0.077218
O27   O     O_R   0.635218 0.514579 0.090280 -0.322660
O28   O     O_R   0.483601 0.559884 0.179239 -0.336610
N2    N     N_R   0.496347 0.948651 0.345132 0.067556
O29   O     O_R   0.558280 0.888816 0.405901 -0.305109
O30   O     O_R   0.478783 0.071199 0.329915 -0.367897
N3    N     N_R   0.048034 0.960066 0.202954 0.081005
O31   O     O_R   0.929046 0.047677 0.232050 -0.400761
O32   O     O_R   0.054570 0.853805 0.170846 -0.261839
N4    N     N_R   0.525154 0.067972 0.796918 0.115238
O33   O     O_R   0.650578 0.051308 0.794328 -0.318428
O34   O     O_R   0.512116 0.960000 0.808847 -0.275816
N5    N     N_R   0.100502 0.565621 0.665466 0.097508
O35   O     O_R   0.039830 0.557144 0.607200 -0.310407
O36   O     O_R   0.046337 0.684919 0.698159 -0.280396
N6    N     N_R   0.825371 0.569611 0.816279 0.088598
O37   O     O_R   0.732902 0.685763 0.785577 -0.288851
O38   O     O_R   0.927854 0.570993 0.849940 -0.286674
N7    N     N_R   0.946956 0.894374 0.393090 -0.222548
O39   O     O_R   0.822485 0.995585 0.409961 -0.000346
O40   O     O_R   0.822272 0.995775 0.409988 -0.000346
F3    F     F_    0.044345 0.976734 0.804392 -0.615542
N8    N     N_R   0.169458 0.577548 0.143376 0.115029
O41   O     O_R   0.040527 0.605339 0.138895 -0.364063
O42   O     O_R   0.216211 0.622837 0.092433 -0.249334

loop_
_geom_bond_atom_site_label_1
_geom_bond_atom_site_label_2
_geom_bond_distance
_ccdc_geom_bond_type
C11   C56   1.476921 S    
C37   C38   1.367320 A    
C29   H11   1.083146 S    
C35   C36   1.375880 A    
O15   C55   1.280043 A    
C50   F3    1.351323 S    
H1    C12   1.084647 S    
O24   Cr6   2.061060 S    
C4    C54   1.440066 S    
C18   C19   1.406069 A    
C17   H2    1.078249 S    
C52   H20   1.081161 S    
N5    O35   1.301523 A    
C56   O18   1.263690 A    
O4    Cr2   1.970765 S    
C50   C51   1.406790 A    
O25   C60   1.289141 A    
O8    Cr1   1.950863 S    
C12   C13   1.398096 A    
C43   C44   1.368149 A    
C41   N5    1.438697 S    
C39   C40   1.391303 A    
C18   N8    1.436080 S    
C21   C22   1.400346 A    
C21   F1    1.353978 S    
C44   N6    1.446327 S    
C46   C47   1.392011 A    
C59   O24   1.248648 A    
O20   C60   1.263568 A    
C5    O11   1.283530 A    
C7    H3    1.082604 S    
N1    O27   1.306662 A    
C25   F2    1.357583 S    
C31   C36   1.404617 A    
O21   C58   1.306233 A    
C14   C23   1.381429 A    
O19   C57   1.337040 A    
C11   C18   1.386723 A    
O6    C3    1.276530 A    
C14   H6    1.059903 S    
C28   N1    1.444956 S    
C7    C8    1.396749 A    
C40   H15   1.075079 S    
C53   C54   1.405380 A    
C49   C50   1.377898 A    
O15   Cr4   1.957642 S    
C41   C42   1.419560 A    
C37   H14   1.084873 S    
O23   Cr5   1.945086 S    
C32   H12   1.076852 S    
Cr3   O13   1.995705 S    
C19   C24   1.433452 A    
C1    C36   1.479996 S    
C43   C48   1.388220 A    
Cr6   O26   1.988251 S    
C16   C17   1.392356 A    
N3    O31   1.299675 A    
N2    O30   1.304011 A    
O17   Cr5   1.961325 S    
O1    Cr1   2.068992 S    
C32   C33   1.406023 A    
C43   H16   1.083487 S    
C26   H10   1.082629 S    
O10   Cr2   1.942350 S    
C19   C23   1.480443 S    
Cr1   O13   2.009793 S    
O1    C3    1.274718 A    
C8    C9    1.399092 A    
C47   C48   1.404419 A    
C22   C23   1.400592 A    
C46   H17   1.081320 S    
C38   C39   1.425821 A    
N7    O40   1.304671 A    
C25   C26   1.382097 A    
C9    C10   1.408395 A    
C45   C46   1.397145 A    
C37   C42   1.383692 A    
C2    C24   1.490292 S    
O12   Cr3   1.963648 S    
O25   Cr6   1.972513 S    
N5    O36   1.300789 A    
C26   C27   1.401458 A    
C20   C21   1.387068 A    
C10   C16   1.400758 A    
C49   H19   1.083946 S    
O7    Cr1   2.062821 S    
N2    O29   1.311270 A    
C7    C17   1.397508 A    
O17   C56   1.292289 A    
C51   C60   1.443722 S    
C34   C35   1.375997 A    
O12   C6    1.282130 A    
C55   O16   1.272648 A    
Cr5   O26   1.995659 S    
C15   C20   1.397257 A    
C44   C45   1.436161 A    
C20   H8    1.066080 S    
O20   Cr4   2.079128 S    
Cr4   O26   2.005893 S    
C2    O5    1.304486 A    
N8    O42   1.302678 A    
C5    C42   1.452587 S    
Cr2   O13   1.988910 S    
C10   C13   1.483272 S    
C29   C30   1.401361 A    
N4    O33   1.303894 A    
C16   H7    1.078518 S    
O21   Cr4   1.941331 S    
C33   C57   1.487109 S    
N3    O32   1.294205 A    
C1    O3    1.288432 A    
C9    H5    1.081576 S    
C34   N3    1.438720 S    
O14   C57   1.286861 A    
O5    Cr3   2.087054 S    
O2    Cr1   1.943034 S    
C28   C29   1.397261 A    
O9    Cr2   2.087878 S    
C12   C24   1.408902 A    
C27   C55   1.434459 S    
C51   C52   1.388327 A    
C25   C30   1.383427 A    
C14   C15   1.402871 A    
C47   H18   1.082710 S    
N6    O38   1.297479 A    
O6    Cr3   1.944963 S    
O22   Cr5   2.076930 S    
C39   C59   1.462537 S    
C22   H9    1.065532 S    
O11   Cr3   2.063482 S    
C27   C28   1.407892 A    
N7    O39   1.302394 A    
C49   C54   1.391452 A    
O23   C59   1.297529 A    
O18   Cr6   2.094346 S    
C52   C53   1.386907 A    
O2    C1    1.281848 A    
C31   C32   1.416140 A    
O16   Cr5   2.064926 S    
C15   N7    1.436169 S    
O14   Cr4   2.059967 S    
O4    C2    1.300742 A    
O7    C6    1.281609 A    
C8    H4    1.080734 S    
O19   Cr6   1.942209 S    
C11   C13   1.413007 A    
C31   N2    1.432718 S    
C6    C48   1.447519 S    
N1    O28   1.303799 A    
C3    C30   1.430360 S    
C33   C34   1.432697 A    
C45   C58   1.459464 S    
N8    O41   1.298112 A    
C35   H13   1.063310 S    
O3    Cr2   2.060479 S    
C4    O9    1.270780 A    
C58   O22   1.250093 A    
N4    O34   1.297554 A    
O10   C5    1.264507 A    
C40   C41   1.394383 A    
C53   H21   1.082217 S    
C38   N4    1.430136 S    
N6    O37   1.298374 A    
O8    C4    1.273691 A    
