data_mof_unit_32559.cif
_audit_creation_date              2012-12-10T16:42:57-0500
_audit_creation_method            fapswitch 2.2
_symmetry_space_group_name_H-M    P1
_symmetry_Int_Tables_number       1
_space_group_crystal_system       triclinic
_cell_length_a                    7.463013
_cell_length_b                    8.683884
_cell_length_c                    12.970334
_cell_angle_alpha                 88.070353
_cell_angle_beta                  79.226867
_cell_angle_gamma                 102.74364
_cell_volume                      802.959305854

loop_
_atom_site_label
_atom_site_type_symbol
_atom_type_description
_atom_site_fract_x
_atom_site_fract_y
_atom_site_fract_z
_atom_type_partial_charge
C1    C     C_R   0.452849 0.199734 0.503205 0.888139
C2    C     C_R   0.547151 0.800266 0.496795 0.888138
C3    C     C_R   0.466450 0.495767 0.701382 0.803284
C4    C     C_R   0.533550 0.504233 0.298617 0.803284
C5    C     C_R   0.553072 0.508303 0.184969 -0.045428
C6    C     C_R   0.446928 0.491696 0.815031 -0.045428
C7    C     C_R   0.249562 0.452767 0.988844 -0.222188
C8    C     C_R   0.750438 0.547233 0.011156 -0.222188
C9    C     C_R   0.267949 0.457553 0.880300 -0.194545
C10   C     C_R   0.732051 0.542447 0.119700 -0.194545
C11   C     C_R   0.607486 0.521328 0.858778 -0.268662
C12   C     C_R   0.392514 0.478672 0.141221 -0.268662
C13   C     C_R   0.590177 0.517272 0.967241 0.178544
C14   C     C_R   0.409823 0.482728 0.032759 0.178544
C15   C     C_2   0.426267 0.031915 0.504731 -0.370205
C16   C     C_2   0.573733 0.968085 0.495269 -0.370205
Cu1   Cu    Cu3+1 0.686350 0.517570 0.488220 0.948191
Cu2   Cu    Cu3+1 0.313650 0.482430 0.511780 0.948191
H1    H     H_    0.254055 0.452068 0.191306 0.155616
H2    H     H_    0.745945 0.547932 0.808694 0.155616
H3    H     H_    0.110715 0.425437 0.038286 0.139203
H4    H     H_    0.889285 0.574563 0.961714 0.139203
H5    H     H_    0.934021 0.376528 0.583108 0.223421
H6    H     H_    0.065979 0.623472 0.416892 0.223421
H7    H     H_    0.284045 0.960510 0.513647 0.179725
H8    H     H_    0.715955 0.039490 0.486353 0.179725
N1    N     N_2   0.033570 0.455950 0.529530 -0.219886
N2    N     N_2   0.966430 0.544050 0.470470 -0.219886
O1    O     O_R   0.621060 0.286250 0.492350 -0.582577
O2    O     O_R   0.378940 0.713750 0.507650 -0.582577
O3    O     O_R   0.306310 0.256580 0.512240 -0.585868
O4    O     O_R   0.693690 0.743420 0.487760 -0.585867
O5    O     O_R   0.631800 0.512400 0.642670 -0.593695
O6    O     O_R   0.368200 0.487600 0.357330 -0.593695
O7    O     O_R   0.317060 0.482730 0.662570 -0.590318
O8    O     O_R   0.682940 0.517270 0.337430 -0.590318
H9    H     H_    0.857904 0.566298 0.152353 0.157249
H10   H     H_    0.142096 0.433702 0.847647 0.157249

loop_
_geom_bond_atom_site_label_1
_geom_bond_atom_site_label_2
_ccdc_geom_bond_type
C8    H4    S    
C4    O8    A    
C8    C13   A    
C1    C15   S    
Cu1   O8    S    
H5    N1    S    
Cu1   O1    S    
Cu2   O7    S    
C3    O7    A    
C2    O2    A    
C3    C6    S    
C6    C9    A    
C1    O1    A    
Cu1   Cu2   S    
C5    C10   A    
C13   C14   A    
C11   C13   A    
C6    C11   A    
Cu1   O5    S    
C10   H9    S    
Cu2   O2    S    
C12   H1    S    
C2    O4    A    
C9    H10   S    
C12   C14   A    
Cu2   O6    S    
C16   H8    S    
C4    O6    A    
C11   H2    S    
C15   H7    S    
C3    O5    A    
C15   C16   D    
C1    O3    A    
C2    C16   S    
C5    C12   A    
C8    C10   A    
N1    N2    D    
C7    C9    A    
Cu1   O4    S    
Cu2   O3    S    
C7    H3    S    
Cu1   N2    S    
C7    C14   A    
Cu2   N1    S    
H6    N2    S    
C4    C5    S    
