data_mof_unit_63470.cif
_audit_creation_date              2012-12-10T16:57:04-0500
_audit_creation_method            fapswitch 2.2
_symmetry_space_group_name_H-M    P1
_symmetry_Int_Tables_number       1
_space_group_crystal_system       triclinic
_cell_length_a                    20.866229
_cell_length_b                    15.974012
_cell_length_c                    13.182264
_cell_angle_alpha                 89.857885
_cell_angle_beta                  90.608773
_cell_angle_gamma                 89.979133
_cell_volume                      4393.61599663

loop_
_atom_site_label
_atom_site_type_symbol
_atom_type_description
_atom_site_fract_x
_atom_site_fract_y
_atom_site_fract_z
_atom_type_partial_charge
C1    C     C_R   0.620986 0.840359 0.469041 0.862721
C2    C     C_2   0.992365 0.536244 0.945692 0.259018
C3    C     C_R   0.379608 0.159985 0.530997 0.846884
C4    C     C_R   0.379540 0.840138 0.531004 0.850093
C5    C     C_R   0.879620 0.659999 0.531035 0.844371
C6    C     C_R   0.879538 0.340139 0.530994 0.845941
C7    C     C_R   0.529669 0.000752 0.772109 0.867712
C8    C     C_R   0.029764 0.502647 0.772385 0.867431
C9    C     C_R   0.469453 0.000423 0.229104 0.840211
C10   C     C_R   0.970628 0.499964 0.227970 0.861361
C11   C     C_2   0.330322 0.776966 0.543708 -0.287850
C12   C     C_R   0.620962 0.159751 0.469000 0.863052
C13   C     C_2   0.330495 0.223273 0.543495 -0.286525
C14   C     C_2   0.830325 0.276956 0.543676 -0.284198
C15   C     C_2   0.830492 0.723263 0.543614 -0.287599
C16   C     C_2   0.278770 0.777001 0.483146 -0.152905
C17   C     C_2   0.278859 0.223258 0.483160 -0.151651
C18   C     C_2   0.778757 0.277022 0.483149 -0.152694
C19   C     C_2   0.779054 0.723621 0.482842 -0.150217
C20   C     C_2   0.670998 0.222442 0.452222 -0.333795
C21   C     C_2   0.671155 0.777906 0.452226 -0.334402
C22   C     C_2   0.171003 0.722435 0.452218 -0.335028
C23   C     C_R   0.120974 0.340348 0.469055 0.863143
C24   C     C_2   0.171067 0.277776 0.452385 -0.333947
C25   C     C_2   0.727440 0.216387 0.500626 -0.143308
C26   C     C_2   0.727633 0.784022 0.500436 -0.144489
C27   C     C_2   0.227434 0.716399 0.500662 -0.143660
C28   C     C_2   0.227563 0.283879 0.500520 -0.144177
C29   C     C_2   0.455129 0.003784 0.122250 -0.274680
C30   C     C_2   0.961024 0.499326 0.118214 -0.309275
C31   C     C_3   0.375624 0.982010 0.906667 -0.713029
C32   C     C_3   0.931404 0.650550 0.873241 -0.727436
C33   C     C_R   0.120962 0.659753 0.469004 0.861217
C34   C     C_2   0.499383 0.982599 0.054817 -0.207184
C35   C     C_2   0.003260 0.535878 0.056465 -0.236424
C36   C     C_2   0.539012 0.994331 0.882208 -0.407553
C37   C     C_2   0.039801 0.511477 0.882995 -0.367776
C38   C     C_2   0.489817 0.003788 0.947088 0.269514
H1    H     H_    0.736023 0.166169 0.554988 0.186024
H2    H     H_    0.662151 0.727226 0.399080 0.154914
H3    H     H_    0.161939 0.773233 0.398946 0.154562
H4    H     H_    0.161972 0.226975 0.399447 0.154897
H5    H     H_    0.334189 0.734024 0.607557 0.129955
H6    H     H_    0.334511 0.266269 0.607009 0.128644
H7    H     H_    0.834228 0.233944 0.607452 0.130468
H8    H     H_    0.834203 0.765707 0.607718 0.127592
H9    H     H_    0.544295 0.954493 0.080251 0.138684
H10   H     H_    0.046884 0.563599 0.087187 0.154635
H11   H     H_    0.585838 0.974790 0.910385 0.134730
H12   H     H_    0.736153 0.834055 0.554760 0.185968
H13   H     H_    0.086631 0.495600 0.914388 0.130210
H14   H     H_    0.412208 0.037825 0.099981 0.164998
H15   H     H_    0.921114 0.463528 0.087389 0.135839
H16   H     H_    0.429843 0.089350 0.866634 0.234605
H17   H     H_    0.361946 0.973955 0.825655 0.260495
H18   H     H_    0.334151 0.008779 0.947420 0.217271
H19   H     H_    0.386810 0.919496 0.939716 0.237288
H20   H     H_    0.893477 0.551509 0.953150 0.222576
H21   H     H_    0.884027 0.665713 0.838676 0.231686
H22   H     H_    0.968726 0.661257 0.815157 0.227815
H23   H     H_    0.235996 0.666215 0.555079 0.186104
H24   H     H_    0.940096 0.692981 0.938659 0.225049
H25   H     H_    0.236190 0.334074 0.554585 0.186206
H26   H     H_    0.273954 0.823118 0.422646 0.151573
H27   H     H_    0.273929 0.177094 0.423011 0.151023
H28   H     H_    0.773915 0.323188 0.422708 0.151359
H29   H     H_    0.774340 0.677857 0.422209 0.151679
H30   H     H_    0.661917 0.273268 0.398999 0.155205
N1    N     N_2   0.429573 0.038783 0.915427 -0.288518
N2    N     N_2   0.931765 0.564225 0.906855 -0.252741
O1    O     O_3   0.500000 0.000000 0.500000 -0.485438
O2    O     O_R   0.880760 0.402800 0.590320 -0.634231
O3    O     O_R   0.577210 1.000000 0.711160 -0.640961
O4    O     O_R   0.077210 0.500000 0.711160 -0.648891
O5    O     O_R   0.475030 0.069050 0.275760 -0.638949
O6    O     O_R   0.475030 0.930950 0.275760 -0.632412
O7    O     O_R   0.975030 0.569050 0.275760 -0.633468
O8    O     O_R   0.975030 0.430950 0.275760 -0.638619
O9    O     O_R   0.632300 0.097230 0.527310 -0.644086
O10   O     O_R   0.632300 0.902770 0.527310 -0.643601
O11   O     O_R   0.132300 0.597230 0.527310 -0.643982
O12   O     O_3   0.000000 0.500000 0.500000 -0.489335
O13   O     O_R   0.132300 0.402770 0.527310 -0.643602
O14   O     O_R   0.419940 0.833680 0.459580 -0.630772
O15   O     O_R   0.419940 0.166320 0.459580 -0.631834
O16   O     O_R   0.919940 0.333680 0.459580 -0.632851
O17   O     O_R   0.919940 0.666320 0.459580 -0.632607
O18   O     O_R   0.472710 0.000000 0.737340 -0.639456
O19   O     O_R   0.972710 0.500000 0.737340 -0.606263
O20   O     O_R   0.566980 0.833700 0.422750 -0.641270
O21   O     O_R   0.566980 0.166300 0.422750 -0.640496
O22   O     O_R   0.066980 0.333700 0.422750 -0.640620
O23   O     O_R   0.066980 0.666300 0.422750 -0.642813
O24   O     O_R   0.380760 0.097200 0.590320 -0.643169
O25   O     O_R   0.380760 0.902800 0.590320 -0.642541
O26   O     O_R   0.880760 0.597200 0.590320 -0.633809
Zn1   Zn    Zn3+2 0.434690 1.000000 0.602700 0.949723
Zn2   Zn    Zn3+2 0.934690 0.500000 0.602700 0.975644
Zn3   Zn    Zn3+2 0.584000 1.000000 0.565300 0.960490
Zn4   Zn    Zn3+2 0.084000 0.500000 0.565300 0.957168
Zn5   Zn    Zn3+2 0.490640 0.098690 0.416020 0.969919
Zn6   Zn    Zn3+2 0.490640 0.901310 0.416020 0.971893
Zn7   Zn    Zn3+2 0.990640 0.598690 0.416020 0.967517
Zn8   Zn    Zn3+2 0.990640 0.401310 0.416020 0.970059

loop_
_geom_bond_atom_site_label_1
_geom_bond_atom_site_label_2
_ccdc_geom_bond_type
C2    C35   S    
C21   C26   D    
C1    C21   S    
C1    O20   A    
C3    O15   A    
O14   Zn6   S    
C7    C36   S    
C14   C18   D    
C12   O21   A    
O16   Zn8   S    
O23   Zn7   S    
C10   O8    A    
C7    O3    A    
O2    Zn2   S    
C15   C19   D    
O1    Zn1   S    
C23   O13   A    
C30   C35   D    
O9    Zn3   S    
C26   H12   S    
C37   H13   S    
C22   H3    S    
C20   C25   D    
C12   O9    A    
C24   H4    S    
C19   C26   S    
O20   Zn6   S    
C27   H23   S    
O26   Zn2   S    
O12   Zn7   S    
C11   H5    S    
C15   H8    S    
C9    O6    A    
C31   H18   S    
O18   Zn1   S    
C3    C13   S    
C9    C29   S    
C16   C27   S    
O1    Zn5   S    
C38   N1    S    
O12   Zn2   S    
C18   C25   S    
O21   Zn5   S    
C35   H10   S    
C10   O7    A    
C14   H7    S    
O6    Zn6   S    
C30   H15   S    
O8    Zn8   S    
H20   N2    S    
O4    Zn4   S    
O24   Zn1   S    
O1    Zn3   S    
C29   C34   D    
C6    O2    A    
C6    C14   S    
C4    O25   A    
C11   C16   D    
C10   C30   S    
C7    O18   A    
C4    O14   A    
C23   C24   S    
C12   C20   S    
C8    O4    A    
C4    C11   S    
C19   H29   S    
O17   Zn7   S    
O1    Zn6   S    
C22   C27   D    
O10   Zn3   S    
O7    Zn7   S    
C8    C37   S    
C32   H22   S    
C5    O26   A    
O15   Zn5   S    
O3    Zn3   S    
C22   C33   S    
C34   C38   S    
C17   C28   S    
O12   Zn4   S    
C20   H30   S    
C24   C28   D    
C33   O23   A    
C32   N2    S    
O25   Zn1   S    
C8    O19   A    
O11   Zn4   S    
C18   H28   S    
C16   H26   S    
C17   H27   S    
C6    O16   A    
C13   C17   D    
O19   Zn2   S    
O13   Zn4   S    
C31   H19   S    
C36   C38   D    
C32   H24   S    
C25   H1    S    
C2    C37   D    
H16   N1    S    
C3    O24   A    
C5    C15   S    
O22   Zn8   S    
C5    O17   A    
C28   H25   S    
C31   N1    S    
O5    Zn5   S    
C1    O10   A    
O12   Zn8   S    
C23   O22   A    
C34   H9    S    
C9    O5    A    
C32   H21   S    
C31   H17   S    
C2    N2    S    
C33   O11   A    
C13   H6    S    
C36   H11   S    
C29   H14   S    
C21   H2    S    
