data_mof_unit_17653.cif
_audit_creation_date              2012-12-10T18:44:20-0500
_audit_creation_method            fapswitch 2.2
_symmetry_space_group_name_H-M    P1
_symmetry_Int_Tables_number       1
_space_group_crystal_system       triclinic
_cell_length_a                    18.186856
_cell_length_b                    18.055723
_cell_length_c                    22.128617
_cell_angle_alpha                 114.358261
_cell_angle_beta                  114.195927
_cell_angle_gamma                 90.037388
_cell_volume                      5910.89605321

loop_
_atom_site_label
_atom_site_type_symbol
_atom_type_description
_atom_site_fract_x
_atom_site_fract_y
_atom_site_fract_z
_atom_type_partial_charge
C1    C     C_R   0.349838 0.349935 0.699493 0.497330
C2    C     C_1   0.889744 0.890508 0.778703 -0.002252
C3    C     C_3   0.405736 0.628995 0.616980 -0.284831
C4    C     C_3   0.337368 0.667954 0.632375 -0.453078
C5    C     C_3   0.620820 0.411322 0.468530 -0.238138
C6    C     C_3   0.599783 0.320673 0.452353 -0.297316
C7    C     C_3   0.671111 0.277149 0.450591 -0.479357
C8    C     C_3   0.960807 0.197227 0.010565 -0.139664
C9    C     C_3   0.039341 0.802665 0.989444 -0.140107
C10   C     C_3   0.084769 0.074187 0.946834 -0.246543
C11   C     C_3   0.156190 0.147197 0.008911 -0.287766
C12   C     C_3   0.194367 0.187346 0.977112 -0.474386
C13   C     C_3   0.078819 0.988987 0.024490 -0.012926
C14   C     C_3   0.915381 0.925709 0.053201 -0.246350
C15   C     C_3   0.843946 0.852709 0.991135 -0.287911
C16   C     C_3   0.805757 0.812597 0.022950 -0.474660
C17   C     C_3   0.832205 0.021654 0.941114 -0.246639
C18   C     C_3   0.801525 0.065299 0.999495 -0.295186
C19   C     C_3   0.722082 0.093895 0.966894 -0.466178
C20   C     C_3   0.167947 0.978332 0.059031 -0.246773
C21   C     C_3   0.198803 0.934748 0.000776 -0.294904
C22   C     C_3   0.278379 0.906445 0.033587 -0.466401
C23   C     C_3   0.986456 0.567841 0.638278 -0.245734
C24   C     C_3   0.921315 0.010911 0.975536 -0.012954
C25   C     C_3   0.048124 0.545383 0.696942 -0.281082
C26   C     C_3   0.034130 0.577608 0.766058 -0.468763
C27   C     C_3   0.008687 0.429408 0.361040 -0.245394
C28   C     C_3   0.950517 0.457489 0.305029 -0.285237
C29   C     C_3   0.957920 0.418749 0.232617 -0.467138
C30   C     C_3   0.159177 0.669721 0.649976 -0.121944
C31   C     C_3   0.838714 0.331135 0.347985 -0.122858
C32   C     C_3   0.117163 0.624030 0.468972 -0.138339
C33   C     C_3   0.883862 0.368958 0.529019 -0.142264
C34   C     C_3   0.035954 0.034414 0.073343 0.001397
C35   C     C_3   0.964168 0.965482 0.926673 0.001470
C36   C     C_1   0.076417 0.075309 0.154563 -0.040448
C37   C     C_1   0.923653 0.924615 0.845448 -0.040540
C38   C     C_3   0.073683 0.543326 0.556404 0.253390
C39   C     C_3   0.925284 0.456050 0.444873 0.245263
C40   C     C_3   0.996320 0.531365 0.566623 -0.069582
C41   C     C_R   0.650162 0.650068 0.300505 0.496799
C42   C     C_3   0.002389 0.467901 0.434269 -0.078186
C43   C     C_3   0.946979 0.549710 0.499907 0.009178
C44   C     C_3   0.052327 0.449910 0.501148 0.010137
C45   C     C_R   0.150285 0.150140 0.300671 0.500060
C46   C     C_R   0.849719 0.849854 0.699331 0.499481
C47   C     C_3   0.024844 0.561013 0.489974 0.242795
C48   C     C_3   0.974664 0.438454 0.511266 0.238891
C49   C     C_3   0.578226 0.535037 0.024795 -0.007096
C50   C     C_3   0.421746 0.465066 0.975194 -0.007136
C51   C     C_3   0.541021 0.440874 0.974779 -0.143214
C52   C     C_3   0.538932 0.565995 0.568185 -0.113794
C53   C     C_3   0.458951 0.559229 0.025212 -0.143104
C54   C     C_1   0.389800 0.389993 0.778795 0.002760
C55   C     C_1   0.610191 0.610030 0.221199 0.003761
C56   C     C_3   0.501260 0.556361 0.976342 0.308460
C57   C     C_3   0.498710 0.443740 0.023644 0.308445
C58   C     C_3   0.463694 0.463333 0.926564 0.015124
C59   C     C_3   0.536279 0.536766 0.073426 0.015057
C60   C     C_1   0.423336 0.423358 0.845506 -0.033254
C61   C     C_1   0.576646 0.576704 0.154486 -0.032616
C62   C     C_3   0.076068 0.991914 0.535420 0.289067
C63   C     C_3   0.463070 0.433927 0.432893 -0.114182
C64   C     C_3   0.923845 0.008290 0.464723 0.288882
C65   C     C_3   0.007553 0.920373 0.465147 -0.164530
C66   C     C_3   0.992376 0.079838 0.534986 -0.164930
C67   C     C_3   0.948372 0.949494 0.500472 0.031455
C68   C     C_3   0.051557 0.050698 0.499658 0.031405
C69   C     C_R   0.391887 0.108648 0.499993 0.527163
C70   C     C_R   0.607804 0.891029 0.499728 0.527252
C71   C     C_3   0.017443 0.020132 0.570643 -0.032107
C72   C     C_3   0.982464 0.980079 0.429496 -0.032084
C73   C     C_3   0.528943 0.063595 0.568847 -0.042349
C74   C     C_3   0.042234 0.036055 0.977599 -0.009735
C75   C     C_3   0.470132 0.935312 0.430265 -0.041917
C76   C     C_3   0.573854 0.038737 0.519457 0.278772
C77   C     C_3   0.425151 0.960330 0.479539 0.277054
C78   C     C_3   0.549444 0.946999 0.499655 0.017730
C79   C     C_3   0.449661 0.052069 0.499495 0.018375
C80   C     C_3   0.503615 0.971546 0.548840 -0.026150
C81   C     C_3   0.495326 0.027391 0.450178 -0.024464
C82   C     C_R   0.108676 0.392010 0.500511 0.543220
C83   C     C_R   0.891159 0.607923 0.499855 0.541343
C84   C     C_R   0.108608 0.107890 0.499698 0.521661
C85   C     C_3   0.957898 0.963840 0.022423 -0.009723
C86   C     C_R   0.891373 0.892178 0.500355 0.521193
C87   C     C_R   0.391041 0.392189 0.499753 0.495064
C88   C     C_R   0.609609 0.607769 0.500707 0.496743
C89   C     C_3   0.445485 0.541070 0.516574 0.011263
C90   C     C_3   0.556395 0.458932 0.484786 0.007378
C91   C     C_3   0.460396 0.525847 0.449024 -0.137847
C92   C     C_3   0.541253 0.474112 0.552214 -0.133428
C93   C     C_3   0.553490 0.549627 0.500574 0.057640
C94   C     C_3   0.448155 0.450220 0.500520 0.059839
C95   C     C_3   0.668377 0.574757 0.056250 -0.247513
C96   C     C_3   0.999379 0.080786 0.026217 0.302302
C97   C     C_3   0.691179 0.565534 0.994460 -0.285154
C98   C     C_3   0.782351 0.601182 0.026311 -0.471697
C99   C     C_3   0.331591 0.425351 0.943740 -0.247624
C100  C     C_3   0.308779 0.434615 0.005533 -0.285003
C101  C     C_3   0.217618 0.398922 0.973680 -0.471535
C102  C     C_3   0.484454 0.306749 0.001281 -0.131759
C103  C     C_3   0.515491 0.693340 0.998670 -0.132990
C104  C     C_3   0.164924 0.914064 0.578225 -0.120518
C105  C     C_3   0.834815 0.086489 0.422669 -0.119896
C106  C     C_3   0.034978 0.041556 0.650335 -0.237229
C107  C     C_3   0.000753 0.919107 0.973803 0.302392
C108  C     C_3   0.107066 0.115697 0.706727 -0.287937
C109  C     C_3   0.124181 0.136723 0.786045 -0.473007
C110  C     C_3   0.964777 0.958785 0.349797 -0.236749
C111  C     C_3   0.892931 0.884404 0.293420 -0.287937
C112  C     C_3   0.875600 0.863580 0.214091 -0.472890
C113  C     C_3   0.668656 0.157225 0.562327 -0.133696
C114  C     C_3   0.329726 0.842120 0.436613 -0.133048
C115  C     C_3   0.557476 0.140468 0.644205 -0.245427
C116  C     C_3   0.634798 0.135652 0.705387 -0.295732
C117  C     C_3   0.673143 0.219866 0.773919 -0.467083
C118  C     C_1   0.110282 0.109450 0.221306 -0.002069
C119  C     C_3   0.441467 0.857646 0.355286 -0.245001
C120  C     C_3   0.364824 0.862252 0.293441 -0.295552
C121  C     C_3   0.325734 0.777450 0.225722 -0.466857
C122  C     C_3   0.509169 0.934982 0.601840 -0.230570
C123  C     C_3   0.451867 0.964884 0.638159 -0.291710
C124  C     C_3   0.454914 0.922898 0.686269 -0.474779
C125  C     C_3   0.488271 0.062492 0.395903 -0.231145
C126  C     C_3   0.545617 0.032646 0.359641 -0.288196
C127  C     C_3   0.527185 0.056791 0.297198 -0.477795
C128  C     C_3   0.381949 0.589624 0.533763 -0.245633
H1    H     H_    0.428103 0.548210 0.407062 0.093942
H2    H     H_    0.820809 0.566333 0.054233 0.149098
H3    H     H_    0.050707 0.843427 0.047434 0.093963
H4    H     H_    0.099127 0.792462 0.988715 0.125696
H5    H     H_    0.003374 0.741637 0.971827 0.127632
H6    H     H_    0.218905 0.141464 0.942353 0.149315
H7    H     H_    0.147585 0.211649 0.943045 0.147518
H8    H     H_    0.245792 0.239885 0.023143 0.148052
H9    H     H_    0.134066 0.195051 0.044622 0.203351
H10   H     H_    0.204663 0.125560 0.044214 0.158350
H11   H     H_    0.107464 0.025364 0.912460 0.135388
H12   H     H_    0.038765 0.095529 0.909378 0.130702
H13   H     H_    0.796793 0.596050 0.980774 0.139687
H14   H     H_    0.852535 0.788318 0.057045 0.147642
H15   H     H_    0.781209 0.858497 0.057687 0.149332
H16   H     H_    0.754336 0.760049 0.976927 0.147265
H17   H     H_    0.795482 0.874348 0.955826 0.157899
H18   H     H_    0.866062 0.804836 0.955429 0.203213
H19   H     H_    0.961390 0.904359 0.090644 0.130625
H20   H     H_    0.892707 0.974535 0.087595 0.135365
H21   H     H_    0.732904 0.139959 0.948685 0.143177
H22   H     H_    0.673515 0.040050 0.918691 0.150117
H23   H     H_    0.700274 0.123549 0.009742 0.139758
H24   H     H_    0.677655 0.498821 0.954523 0.157722
H25   H     H_    0.789017 0.021923 0.019472 0.153294
H26   H     H_    0.848734 0.119970 0.047976 0.191674
H27   H     H_    0.828733 0.057712 0.910098 0.133350
H28   H     H_    0.791487 0.959820 0.899934 0.137088
H29   H     H_    0.326797 0.960421 0.081787 0.149997
H30   H     H_    0.267664 0.860412 0.051865 0.142959
H31   H     H_    0.300336 0.876846 0.990840 0.139477
H32   H     H_    0.151736 0.879952 0.952323 0.191708
H33   H     H_    0.211206 0.978085 0.980722 0.153412
H34   H     H_    0.208593 0.040198 0.100232 0.137550
H35   H     H_    0.654314 0.598924 0.963960 0.204108
H36   H     H_    0.171385 0.942276 0.090041 0.133197
H37   H     H_    0.041570 0.646285 0.790995 0.168633
H38   H     H_    0.971325 0.549293 0.751657 0.149233
H39   H     H_    0.079842 0.560956 0.807745 0.138978
H40   H     H_    0.041956 0.476923 0.673959 0.194538
H41   H     H_    0.111922 0.573113 0.713369 0.202264
H42   H     H_    0.994728 0.636330 0.660857 0.146168
H43   H     H_    0.922517 0.544210 0.624704 0.126364
H44   H     H_    0.021785 0.437874 0.243134 0.151748
H45   H     H_    0.941517 0.349918 0.206973 0.164859
H46   H     H_    0.679499 0.641558 0.094827 0.134654
H47   H     H_    0.915257 0.439935 0.193103 0.138775
H48   H     H_    0.885748 0.439346 0.292588 0.199094
H49   H     H_    0.964883 0.526074 0.328358 0.189270
H50   H     H_    0.073299 0.447203 0.372719 0.125073
H51   H     H_    0.993553 0.360716 0.337180 0.151215
H52   H     H_    0.103421 0.687285 0.656301 0.130008
H53   H     H_    0.172345 0.699555 0.619681 0.141219
H54   H     H_    0.211446 0.695799 0.706537 0.121058
H55   H     H_    0.881684 0.302731 0.380547 0.158585
H56   H     H_    0.849233 0.320429 0.299374 0.114341
H57   H     H_    0.707588 0.544031 0.088487 0.143875
H58   H     H_    0.775351 0.297594 0.326355 0.124628
H59   H     H_    0.099147 0.598515 0.408834 0.115120
H60   H     H_    0.157646 0.586222 0.491607 0.124565
H61   H     H_    0.154357 0.687592 0.496435 0.112680
H62   H     H_    0.837898 0.397182 0.498385 0.150607
H63   H     H_    0.898395 0.400438 0.588636 0.114712
H64   H     H_    0.854835 0.303351 0.506674 0.120424
H65   H     H_    0.179131 0.433695 0.945684 0.149199
H66   H     H_    0.202358 0.332420 0.933023 0.147476
H67   H     H_    0.203165 0.404118 0.019227 0.139880
H68   H     H_    0.345670 0.401280 0.036081 0.204671
H69   H     H_    0.573545 0.452120 0.594452 0.093221
H70   H     H_    0.322263 0.501340 0.045428 0.157832
H71   H     H_    0.292385 0.456060 0.911482 0.144081
H72   H     H_    0.320471 0.358543 0.905181 0.134782
H73   H     H_    0.539900 0.294445 0.992258 0.114482
H74   H     H_    0.429609 0.291458 0.947714 0.104190
H75   H     H_    0.472821 0.264614 0.022765 0.136031
H76   H     H_    0.570348 0.708655 0.052236 0.104827
H77   H     H_    0.460047 0.705637 0.007698 0.114574
H78   H     H_    0.527097 0.735462 0.977162 0.134771
H79   H     H_    0.151982 0.862356 0.523256 0.119061
H80   H     H_    0.573721 0.392713 0.952997 0.088603
H81   H     H_    0.123223 0.900085 0.599161 0.120372
H82   H     H_    0.228877 0.918554 0.617677 0.126718
H83   H     H_    0.876683 0.101301 0.402220 0.119359
H84   H     H_    0.847419 0.137587 0.477825 0.118125
H85   H     H_    0.770897 0.082094 0.383205 0.128101
H86   H     H_    0.069702 0.154414 0.795091 0.148725
H87   H     H_    0.139146 0.082601 0.797197 0.151320
H88   H     H_    0.177447 0.189687 0.825650 0.136865
H89   H     H_    0.163483 0.101123 0.700173 0.209887
H90   H     H_    0.092703 0.170899 0.697160 0.158969
H91   H     H_    0.426253 0.607392 0.046994 0.088650
H92   H     H_    0.978667 0.056502 0.657013 0.142477
H93   H     H_    0.049210 0.986618 0.660263 0.160052
H94   H     H_    0.860228 0.917663 0.202984 0.151343
H95   H     H_    0.930130 0.846282 0.204981 0.148667
H96   H     H_    0.822534 0.810407 0.174496 0.136799
H97   H     H_    0.907672 0.829232 0.302930 0.158445
H98   H     H_    0.836486 0.898612 0.300050 0.210115
H99   H     H_    0.950171 0.013692 0.339909 0.160139
H100  H     H_    0.021133 0.944183 0.343079 0.142497
H101  H     H_    0.698991 0.190156 0.623864 0.123494
H102  H     H_    0.011951 0.854766 0.436696 0.102385
H103  H     H_    0.612150 0.180904 0.540654 0.092313
H104  H     H_    0.711589 0.173400 0.543646 0.131106
H105  H     H_    0.289905 0.827023 0.458520 0.127802
H106  H     H_    0.386359 0.817506 0.455484 0.088951
H107  H     H_    0.296043 0.809114 0.375132 0.124736
H108  H     H_    0.693284 0.266165 0.759954 0.143657
H109  H     H_    0.627992 0.242002 0.795777 0.151222
H110  H     H_    0.727682 0.214079 0.817851 0.133687
H111  H     H_    0.618477 0.090712 0.722300 0.152735
H112  H     H_    0.681247 0.114393 0.685051 0.191417
H113  H     H_    0.988013 0.145457 0.563443 0.102430
H114  H     H_    0.569311 0.196200 0.637417 0.125429
H115  H     H_    0.507069 0.147454 0.660870 0.154906
H116  H     H_    0.370772 0.753658 0.204173 0.151594
H117  H     H_    0.304607 0.732523 0.240498 0.143510
H118  H     H_    0.271741 0.783087 0.181265 0.133373
H119  H     H_    0.318508 0.885083 0.313539 0.191538
H120  H     H_    0.382204 0.905758 0.275661 0.154171
H121  H     H_    0.492022 0.849128 0.338829 0.152269
H122  H     H_    0.428792 0.802526 0.362545 0.126036
H123  H     H_    0.434640 0.854481 0.651926 0.148700
H124  H     H_    0.572019 0.620480 0.623562 0.111840
H125  H     H_    0.518472 0.937589 0.731158 0.150882
H126  H     H_    0.413113 0.945691 0.711988 0.140833
H127  H     H_    0.470330 0.033000 0.673563 0.164255
H128  H     H_    0.387407 0.950523 0.595038 0.217853
H129  H     H_    0.493119 0.866238 0.570436 0.152562
H130  H     H_    0.573756 0.951786 0.645340 0.155215
H131  H     H_    0.464303 0.024385 0.251607 0.146760
H132  H     H_    0.531494 0.124859 0.318039 0.153376
H133  H     H_    0.572336 0.038478 0.274641 0.143247
H134  H     H_    0.610691 0.060502 0.401887 0.201709
H135  H     H_    0.431531 0.379191 0.377474 0.115726
H136  H     H_    0.538221 0.964267 0.336010 0.176180
H137  H     H_    0.423347 0.044153 0.352739 0.156993
H138  H     H_    0.503280 0.131354 0.425787 0.149827
H139  H     H_    0.323187 0.715843 0.612303 0.123686
H140  H     H_    0.281702 0.618755 0.603697 0.211421
H141  H     H_    0.356466 0.697449 0.693009 0.148118
H142  H     H_    0.418197 0.581289 0.637413 0.199122
H143  H     H_    0.462312 0.678217 0.648320 0.148932
H144  H     H_    0.378367 0.639670 0.516355 0.123180
H145  H     H_    0.320654 0.547058 0.500812 0.144529
H146  H     H_    0.797659 0.667661 0.067033 0.147470
H147  H     H_    0.689160 0.281297 0.409640 0.156684
H148  H     H_    0.724323 0.306014 0.506700 0.129666
H149  H     H_    0.652807 0.210792 0.434890 0.138389
H150  H     H_    0.585842 0.317766 0.495872 0.161045
H151  H     H_    0.544446 0.286998 0.397894 0.161371
H152  H     H_    0.623317 0.413087 0.419804 0.173569
H153  H     H_    0.681861 0.442676 0.517586 0.136281
H154  H     H_    0.901035 0.207473 0.011313 0.125725
H155  H     H_    0.949412 0.156441 0.952569 0.093797
H156  H     H_    0.996799 0.258234 0.028163 0.127656
O1    O     O_3   0.250010 0.250010 0.500010 -0.442785
O2    O     O_R   0.893710 0.832180 0.664370 -0.548764
O3    O     O_R   0.332200 0.393690 0.664400 -0.527818
O4    O     O_R   0.667800 0.606310 0.335600 -0.525361
O5    O     O_R   0.229300 0.167820 0.335610 -0.542326
O6    O     O_R   0.770700 0.832180 0.664390 -0.542702
O7    O     O_R   0.358130 0.123520 0.543120 -0.518550
O8    O     O_R   0.641870 0.876480 0.456880 -0.517761
O9    O     O_R   0.080390 0.314990 0.456920 -0.535116
O10   O     O_R   0.919610 0.685010 0.543080 -0.535625
O11   O     O_R   0.185040 0.123520 0.543150 -0.488943
O12   O     O_3   0.749990 0.749990 0.499990 -0.444726
O13   O     O_R   0.814960 0.876480 0.456850 -0.488944
O14   O     O_R   0.358080 0.419590 0.543080 -0.554257
O15   O     O_R   0.641920 0.580410 0.456920 -0.551793
O16   O     O_R   0.080420 0.141920 0.456950 -0.562150
O17   O     O_R   0.919580 0.858080 0.543050 -0.561943
O18   O     O_R   0.376490 0.315000 0.456880 -0.554045
O19   O     O_R   0.623510 0.685000 0.543120 -0.551881
O20   O     O_3   0.498292 0.389321 0.054561 -0.561449
O21   O     O_3   0.501668 0.610763 0.945407 -0.562826
O22   O     O_3   0.159419 0.989762 0.574056 -0.542320
O23   O     O_R   0.376520 0.141930 0.456900 -0.569456
O24   O     O_3   0.840476 0.010369 0.426029 -0.541724
O25   O     O_3   0.655269 0.070652 0.537987 -0.554231
O26   O     O_3   0.343445 0.928597 0.460438 -0.557082
O27   O     O_3   0.004427 0.167336 0.062186 -0.572982
O28   O     O_3   0.995706 0.832558 0.937828 -0.573394
O29   O     O_3   0.153715 0.583128 0.614565 -0.567465
O30   O     O_3   0.843751 0.416566 0.389486 -0.552639
O31   O     O_3   0.046233 0.629566 0.480763 -0.562723
O32   O     O_3   0.956980 0.369476 0.521392 -0.569034
O33   O     O_R   0.623480 0.858070 0.543100 -0.568657
O34   O     O_R   0.184990 0.419580 0.543110 -0.513224
O35   O     O_R   0.815010 0.580420 0.456890 -0.507772
O36   O     O_R   0.332220 0.270690 0.664420 -0.550825
O37   O     O_R   0.667780 0.729310 0.335580 -0.551762
O38   O     O_R   0.106290 0.167820 0.335630 -0.548456
Zn1   Zn    Zn3+2 0.307090 0.219220 0.438420 0.907045
Zn2   Zn    Zn3+2 0.692910 0.780780 0.561580 0.909071
Zn3   Zn    Zn3+2 0.280820 0.192930 0.561610 0.963809
Zn4   Zn    Zn3+2 0.719180 0.807070 0.438390 0.963638
Zn5   Zn    Zn3+2 0.131340 0.219220 0.438450 0.927318
Zn6   Zn    Zn3+2 0.868660 0.780780 0.561550 0.926885
Zn7   Zn    Zn3+2 0.280790 0.368660 0.561580 0.941698
Zn8   Zn    Zn3+2 0.719210 0.631340 0.438420 0.950308

loop_
_geom_bond_atom_site_label_1
_geom_bond_atom_site_label_2
_ccdc_geom_bond_type
C45   C118  S    
C121  H116  S    
C126  C127  S    
C103  H78   S    
O14   Zn7   S    
C114  H106  S    
C3    H142  S    
C65   H102  S    
C90   C93   S    
C16   H16   S    
C34   C96   S    
C33   O32   S    
C24   C96   S    
C5    C6    S    
O3    Zn7   S    
O1    Zn7   S    
C22   H31   S    
C58   C60   S    
C87   C94   S    
C19   H22   S    
C108  C109  S    
C89   C94   S    
C110  C111  S    
C40   C43   S    
C49   C51   S    
C12   H7    S    
C51   C57   S    
C120  H119  S    
C24   C85   S    
C112  H95   S    
C117  H109  S    
C21   C22   S    
C30   H54   S    
C52   C89   S    
C42   C44   S    
C29   H47   S    
C100  H68   S    
C50   C53   S    
C17   C24   S    
C105  H85   S    
C119  H122  S    
C8    H155  S    
C117  H108  S    
C113  O25   S    
C69   O7    A    
C70   O8    A    
C102  H75   S    
C90   C92   S    
C68   C72   S    
C21   H32   S    
C92   C94   S    
C52   H124  S    
C88   O15   A    
C97   H35   S    
C123  H128  S    
C108  H89   S    
C121  H118  S    
C7    H148  S    
C57   C59   S    
C17   H27   S    
C30   O29   S    
C101  H66   S    
C113  H104  S    
C15   H17   S    
C40   C48   S    
C13   C20   S    
C125  H137  S    
C50   C57   S    
C124  H125  S    
C105  H83   S    
C95   C97   S    
C6    C7    S    
C91   H1    S    
C22   H29   S    
C124  H123  S    
C86   O13   A    
C62   C68   S    
C33   H63   S    
O18   Zn1   S    
C110  H100  S    
C97   H24   S    
O12   Zn8   S    
C102  H74   S    
C64   O24   S    
C128  H145  S    
C35   C107  S    
C96   O27   S    
C23   H43   S    
C20   C21   S    
C71   C106  S    
C63   C91   S    
C45   O5    A    
C7    H149  S    
C43   C47   S    
O37   Zn4   S    
C9    H5    S    
C43   C83   S    
C111  C112  S    
C27   H50   S    
C104  H82   S    
C97   C98   S    
C123  C124  S    
C84   O11   A    
C82   O34   A    
C4    H139  S    
C63   C94   S    
C105  H84   S    
C102  H73   S    
C76   C78   S    
C56   O21   S    
C78   C80   S    
C115  C116  S    
C3    H143  S    
O16   Zn5   S    
C104  H79   S    
C98   H146  S    
C99   C100  S    
C99   H72   S    
C19   H23   S    
C89   C91   S    
C57   O20   S    
C8    O27   S    
C18   H26   S    
O15   Zn8   S    
C12   H6    S    
O17   Zn6   S    
C128  H144  S    
O1    Zn3   S    
C25   H40   S    
C26   H39   S    
C59   C61   S    
C74   C96   S    
C109  H86   S    
C45   O38   A    
C3    C128  S    
C103  O21   S    
C25   C26   S    
C14   H19   S    
C34   C85   S    
C8    H154  S    
C122  H129  S    
C35   C74   S    
C20   H34   S    
C17   C18   S    
C73   C79   S    
C50   C58   S    
C52   C93   S    
C49   C95   S    
C75   C77   S    
C31   O30   S    
O9    Zn5   S    
C127  H131  S    
C69   C79   S    
C3    C4    S    
C120  C121  S    
O5    Zn1   S    
C53   C56   S    
C4    H141  S    
C30   H52   S    
C32   H59   S    
C81   C125  S    
C114  O26   S    
C103  H77   S    
C15   H18   S    
C113  H101  S    
C114  H107  S    
O35   Zn8   S    
C65   C72   S    
C31   H58   S    
C49   C59   S    
C77   C80   S    
C27   C42   S    
C106  C108  S    
C55   C61   T    
C121  H117  S    
C100  C101  S    
C19   H21   S    
C56   C58   S    
C62   C71   S    
C48   O32   S    
C34   C36   S    
C10   C11   S    
C44   C48   S    
C12   H8    S    
C14   C15   S    
C41   O37   A    
C120  H120  S    
C100  H70   S    
O1    Zn5   S    
C53   H91   S    
C111  H97   S    
C106  H92   S    
C26   H37   S    
C31   H56   S    
C112  H96   S    
C109  H88   S    
C80   C122  S    
C116  H111  S    
O12   Zn4   S    
C28   C29   S    
C27   H51   S    
C44   C82   S    
C119  H121  S    
O4    Zn8   S    
C8    H156  S    
C83   O10   A    
C106  H93   S    
C23   C40   S    
C20   H36   S    
C18   C19   S    
C103  H76   S    
C41   C55   S    
C65   C67   S    
O34   Zn7   S    
C114  H105  S    
C36   C118  T    
C28   H49   S    
C123  H127  S    
C108  H90   S    
C9    H3    S    
C5    H152  S    
C6    H151  S    
C101  H65   S    
C113  H103  S    
C39   C42   S    
O10   Zn6   S    
C68   C84   S    
C16   H15   S    
C14   C85   S    
C124  H126  S    
O6    Zn2   S    
C28   H48   S    
C22   H30   S    
C104  O22   S    
C33   H62   S    
C46   O2    A    
C38   C44   S    
C91   C93   S    
C115  H114  S    
C66   C71   S    
C98   H2    S    
O11   Zn3   S    
C77   C79   S    
C126  H136  S    
C51   C58   S    
O36   Zn3   S    
C66   H113  S    
C117  H110  S    
C125  C126  S    
C73   C76   S    
C87   O14   A    
C10   H11   S    
O19   Zn2   S    
C1    O3    A    
C95   H57   S    
C9    H4    S    
C67   C86   S    
O12   Zn6   S    
C111  H98   S    
C11   H10   S    
C82   O9    A    
C63   H135  S    
O2    Zn6   S    
C119  C120  S    
C4    H140  S    
C73   C115  S    
C11   H9    S    
C13   C34   S    
C38   C40   S    
C67   C71   S    
C105  O24   S    
C13   C74   S    
O7    Zn3   S    
C99   H71   S    
C17   H28   S    
C101  H67   S    
C64   C66   S    
C39   C48   S    
C89   C128  S    
C62   O22   S    
C66   C68   S    
C125  H138  S    
C70   C78   S    
C38   O29   S    
O33   Zn2   S    
C13   C107  S    
C53   C59   S    
C9    O28   S    
C54   C60   T    
C2    C46   S    
C50   C99   S    
C33   H64   S    
C5    H153  S    
C35   C37   S    
C95   H46   S    
C7    H147  S    
C110  H99   S    
C15   C16   S    
C1    O36   A    
C14   H20   S    
C116  C117  S    
C126  H134  S    
C46   O6    A    
O1    Zn1   S    
C122  H130  S    
C41   O4    A    
C5    C90   S    
C64   C72   S    
C77   O26   S    
C88   O19   A    
C104  H81   S    
O8    Zn4   S    
C72   C110  S    
C24   C35   S    
C21   H33   S    
C32   H60   S    
C47   O31   S    
C64   C67   S    
C75   C119  S    
C79   C81   S    
C51   H80   S    
C75   C81   S    
C39   C43   S    
C32   O31   S    
C127  H133  S    
C16   H14   S    
C1    C54   S    
O38   Zn5   S    
C107  O28   S    
C86   O17   A    
O23   Zn1   S    
C69   O23   A    
C38   C47   S    
C18   H25   S    
C115  H115  S    
C10   H12   S    
C98   H13   S    
C92   H69   S    
C25   H41   S    
C88   C93   S    
C26   H38   S    
C62   C65   S    
C31   H55   S    
C112  H94   S    
C70   O33   A    
C29   H45   S    
C109  H87   S    
C76   C81   S    
C11   C12   S    
C49   C56   S    
C116  H112  S    
C10   C74   S    
C2    C37   T    
C23   H42   S    
C63   C90   S    
C83   O35   A    
C30   H53   S    
C73   C80   S    
C32   H61   S    
C42   C47   S    
C23   C25   S    
C29   H44   S    
C75   C78   S    
C52   C92   S    
C102  O20   S    
C76   O25   S    
O12   Zn2   S    
C27   C28   S    
C87   O18   A    
C127  H132  S    
C122  C123  S    
C85   C107  S    
C39   O30   S    
O13   Zn4   S    
C84   O16   A    
C6    H150  S    
