data_mof_unit_56849.cif
_audit_creation_date              2012-12-11T19:27:40-0500
_audit_creation_method            fapswitch 2.2
_symmetry_space_group_name_H-M    P1
_symmetry_Int_Tables_number       1
_space_group_crystal_system       triclinic
_cell_length_a                    8.175416
_cell_length_b                    15.010835
_cell_length_c                    16.432981
_cell_angle_alpha                 111.026075
_cell_angle_beta                  97.263716
_cell_angle_gamma                 81.45525
_cell_volume                      1855.63336812

loop_
_atom_site_label
_atom_site_type_symbol
_atom_type_description
_atom_site_fract_x
_atom_site_fract_y
_atom_site_fract_z
_atom_type_partial_charge
Ba1   Ba    Ba6+2 0.364200 0.465260 0.540900 1.639565
Ba2   Ba    Ba6+2 0.825630 0.534670 0.459090 1.654257
C1    C     C_3   0.265012 0.166718 0.743966 -0.355412
C2    C     C_3   0.218690 0.257737 0.721709 0.330512
C3    C     C_3   0.020465 0.725155 0.730629 0.314286
C4    C     C_3   0.029515 0.769889 0.829866 -0.384390
C5    C     C_3   0.446046 0.764703 0.240844 0.321185
C6    C     C_3   0.458317 0.827026 0.186822 -0.374787
C7    C     C_3   0.021921 0.722485 0.233636 0.562879
C8    C     C_3   0.950136 0.823281 0.289121 -0.249191
C9    C     C_2   0.295727 0.480678 0.245032 -0.260596
C10   C     C_R   0.893817 0.529128 0.753348 -0.323686
C11   C     C_2   0.482130 0.385829 0.132067 -0.122364
C12   C     C_3   0.701721 0.324052 0.773038 0.401616
C13   C     C_2   0.451634 0.419096 0.216832 0.065194
C14   C     C_2   0.169268 0.491160 0.186673 -0.037304
C15   C     C_3   0.184091 0.435395 0.089723 -0.038961
C16   C     C_3   0.365591 0.416221 0.065932 -0.011410
C17   C     C_2   0.062031 0.473723 0.029205 -0.104213
C18   C     C_2   0.105398 0.492014 0.960704 -0.092557
C19   C     C_R   0.826954 0.569535 0.925267 -0.043276
C20   C     C_R   0.981428 0.521317 0.898065 -0.062673
C21   C     C_R   0.706872 0.599945 0.868835 0.129678
C22   C     C_R   0.741213 0.579033 0.781455 0.042649
C23   C     C_3   0.713075 0.317720 0.864265 0.230896
C24   C     C_R   0.015433 0.502434 0.811122 0.013347
C25   C     C_R   0.341004 0.819751 0.443082 -0.029603
C26   C     C_R   0.277913 0.915552 0.452573 -0.032242
C27   C     C_R   0.140079 0.105461 0.466404 -0.035020
C28   C     C_R   0.281037 0.060766 0.420239 -0.042577
C29   C     C_R   0.352325 0.969615 0.416665 -0.106822
C30   C     C_R   0.072708 0.201221 0.475945 0.034984
C31   C     C_R   0.933383 0.241658 0.523636 -0.297552
C32   C     C_R   0.122216 0.810286 0.526256 0.026523
C33   C     C_R   0.057901 0.905583 0.536642 -0.037545
C34   C     C_3   0.707946 0.232318 0.341319 0.292293
C35   C     C_R   0.133455 0.957777 0.497814 0.016240
C36   C     C_R   0.919110 0.949824 0.584182 -0.046153
C37   C     C_R   0.850360 0.041389 0.589673 -0.085718
C38   C     C_R   0.921531 0.094293 0.550998 -0.043159
C39   C     C_R   0.065625 0.052873 0.505502 0.005407
C40   C     C_R   0.853371 0.187876 0.557550 -0.000908
C41   C     C_R   0.258154 0.767459 0.476966 -0.272245
C42   C     C_3   0.757416 0.124182 0.312299 -0.420302
C43   C     C_3   0.494028 0.768370 0.658146 0.307296
C44   C     C_3   0.466601 0.877302 0.684586 -0.392396
C45   C     C_3   0.276827 0.214936 0.268388 0.335152
C46   C     C_3   0.253639 0.152556 0.171489 -0.064520
H1    H     H_    0.271132 0.246149 0.659118 0.094149
H2    H     H_    0.859278 0.103549 0.268024 0.127644
H3    H     H_    0.799864 0.102041 0.369630 0.066219
H4    H     H_    0.649845 0.085098 0.277188 0.106791
H5    H     H_    0.374584 0.738614 0.633877 0.002354
H6    H     H_    0.579857 0.740084 0.605367 0.076622
H7    H     H_    0.372698 0.907266 0.733575 0.133410
H8    H     H_    0.422387 0.898483 0.626871 0.063300
H9    H     H_    0.584975 0.908158 0.713211 0.127299
H10   H     H_    0.376678 0.175192 0.298098 -0.009499
H11   H     H_    0.312855 0.285547 0.275123 -0.001259
H12   H     H_    0.402067 0.150983 0.751141 0.151335
H13   H     H_    0.377471 0.118731 0.148039 0.060707
H14   H     H_    0.179365 0.093155 0.163493 0.094208
H15   H     H_    0.081437 0.270432 0.713505 -0.038934
H16   H     H_    0.213952 0.105126 0.690985 0.076588
H17   H     H_    0.894559 0.703109 0.706822 0.011479
H18   H     H_    0.114176 0.661076 0.712778 0.063784
H19   H     H_    0.934833 0.833233 0.850134 0.128479
H20   H     H_    0.005915 0.716868 0.858555 0.046268
H21   H     H_    0.154765 0.792751 0.855276 0.127100
H22   H     H_    0.213415 0.175614 0.806107 0.129204
H23   H     H_    0.738435 0.388065 0.914581 -0.039817
H24   H     H_    0.438808 0.689104 0.196896 0.030102
H25   H     H_    0.330332 0.792705 0.274301 -0.030724
H26   H     H_    0.579522 0.808812 0.157868 0.119967
H27   H     H_    0.356533 0.816251 0.133880 0.088704
H28   H     H_    0.447524 0.904038 0.228689 0.088158
H29   H     H_    0.127625 0.701541 0.275521 -0.115511
H30   H     H_    0.041086 0.875480 0.300963 0.040762
H31   H     H_    0.920934 0.822650 0.353036 0.116750
H32   H     H_    0.613349 0.387420 0.772349 0.039795
H33   H     H_    0.834123 0.847520 0.256410 0.115776
H34   H     H_    0.595480 0.339735 0.110691 0.085175
H35   H     H_    0.282422 0.514201 0.314668 0.074376
H36   H     H_    0.919889 0.513553 0.686406 0.081534
H37   H     H_    0.931475 0.480491 0.039171 0.110086
H38   H     H_    0.234956 0.482064 0.948372 0.104531
H39   H     H_    0.341288 0.095277 0.387195 0.078137
H40   H     H_    0.465166 0.941792 0.384026 0.090342
H41   H     H_    0.741075 0.069576 0.625339 0.118753
H42   H     H_    0.825784 0.334423 0.759505 -0.106152
H43   H     H_    0.859020 0.914291 0.616865 0.105631
H44   H     H_    0.881419 0.314341 0.530426 0.073761
H45   H     H_    0.306727 0.694209 0.469983 0.061804
H46   H     H_    0.592406 0.301078 0.876355 0.115016
H47   H     H_    0.819514 0.269791 0.368375 0.041404
H48   H     H_    0.619418 0.252897 0.392559 0.056672
O1    O     O_2   0.428380 0.595300 0.716110 -0.445706
O2    O     O_3   0.127816 0.228897 0.307353 -0.654990
O3    O     O_3   0.644656 0.240014 0.711332 -0.600165
O4    O     O_2   0.761310 0.404660 0.283830 -0.449851
O5    O     O_3   0.540390 0.428270 0.393120 -0.498446
O6    O     O_3   0.987650 0.584040 0.344420 -0.457153
O7    O     O_3   0.634671 0.255259 0.268706 -0.652382
O8    O     O_3   0.122130 0.620580 0.549200 -0.483333
O9    O     O_3   0.577110 0.640790 0.390470 -0.463068
O10   O     O_2   0.678430 0.813600 0.461702 -0.478514
O11   O     O_3   0.588607 0.768676 0.298762 -0.566428
O12   O     O_3   0.649320 0.571650 0.606870 -0.500851
O13   O     O_3   0.067580 0.379340 0.450790 -0.462613
O14   O     O_2   0.850900 0.734750 0.551740 -0.461876
O15   O     O_3   0.052562 0.793054 0.695887 -0.644602
O16   O     O_2   0.827168 0.491204 0.192853 -0.482678
O17   O     O_3   0.896902 0.660217 0.209485 -0.570410
O18   O     O_3   0.202060 0.415880 0.655570 -0.485931
O19   O     O_2   0.354130 0.505773 0.807862 -0.477648
O20   O     O_3   0.560327 0.744810 0.731475 -0.640602
O21   O     O_3   0.284263 0.335020 0.789244 -0.614128
O22   O     O_2   0.338790 0.265210 0.448200 -0.493686
O23   O     O_3   0.612600 0.359140 0.609510 -0.486714
O24   O     O_2   0.509976 0.187417 0.550707 -0.492793
P1    P     P_3+3 0.592580 0.619750 0.703570 0.984256
P2    P     P_3+3 0.156510 0.273300 0.422380 0.970894
P3    P     P_3+3 0.655053 0.241896 0.606133 0.945064
P4    P     P_3+3 0.597130 0.380170 0.296420 0.976562
P5    P     P_3+3 0.541250 0.761080 0.396942 0.967277
P6    P     P_3+3 0.214119 0.440932 0.767527 0.938119
P7    P     P_3+3 0.040346 0.741324 0.581655 0.938528
P8    P     P_3+3 0.970416 0.554498 0.231017 0.988942
N1    N     N_2   0.177086 0.207741 0.117334 -0.432323
H49   H     H_    0.251708 0.254057 0.111046 0.186599
C47   C     C_3   0.006344 0.248039 0.129978 -0.132420
H50   H     H_    0.954151 0.272147 0.074619 0.113857
H51   H     H_    0.000356 0.311119 0.191274 0.134398
H52   H     H_    0.930449 0.193708 0.132628 0.122563
N2    N     N_2   0.087368 0.723117 0.155521 -0.453586
H53   H     H_    0.157135 0.659714 0.123672 0.163865
C48   C     C_3   0.975959 0.760354 0.096455 -0.241794
H54   H     H_    0.947010 0.839307 0.126655 0.101534
H55   H     H_    0.859582 0.725806 0.079526 0.137433
H56   H     H_    0.036513 0.745732 0.035433 0.101976
N3    N     N_2   0.553133 0.652017 0.899670 -0.388043
H57   H     H_    0.529634 0.719422 0.894843 0.190821
C49   C     C_3   0.499254 0.643974 0.977157 -0.179905
H58   H     H_    0.584392 0.676669 0.034736 0.088044
H59   H     H_    0.497684 0.567303 0.968789 0.123079
H60   H     H_    0.371744 0.681027 0.988331 0.092483
O25   O     O_3   0.837186 0.245238 0.871767 -0.711634
H61   H     H_    0.944694 0.271997 0.880476 0.299314

loop_
_geom_bond_atom_site_label_1
_geom_bond_atom_site_label_2
_ccdc_geom_bond_type
C4    H21   S    
Ba2   O13   S    
C49   H60   S    
C17   C18   D    
C34   H47   S    
O12   P1    S    
C47   H52   S    
C8    H30   S    
N2    H53   S    
C5    H25   S    
O17   P8    S    
C47   H51   S    
C1    H16   S    
C48   H55   S    
C2    H15   S    
C45   O2    S    
C11   C16   S    
C34   O7    S    
C31   C40   A    
C33   C35   A    
C32   C33   A    
C27   C30   A    
O6    P8    S    
N3    C49   S    
O22   P2    D    
C36   C37   A    
O18   P6    S    
O13   P2    S    
Ba2   O6    S    
C49   H58   S    
C49   H59   S    
C6    H28   S    
C10   H36   S    
O2    P2    S    
Ba1   Ba2   S    
Ba1   O23   S    
Ba1   P2    S    
C12   H42   S    
O1    P1    D    
Ba1   O13   S    
C9    C13   S    
O25   H61   S    
C32   P7    S    
C18   H38   S    
C44   H7    S    
C21   C22   A    
C23   H23   S    
C12   H32   S    
C38   C40   A    
C7    C8    S    
O24   P3    D    
O14   P7    D    
C1    H12   S    
C42   H4    S    
C4    H20   S    
Ba2   O4    S    
C23   H46   S    
C19   C20   A    
O7    P4    S    
C40   P3    S    
C48   H56   S    
O5    P4    S    
C13   P4    S    
C30   P2    S    
C12   O3    S    
C1    H22   S    
O11   P5    S    
C3    H17   S    
O20   P1    S    
C31   H44   S    
Ba1   O1    S    
C5    H24   S    
C14   C15   S    
C3    O15   S    
Ba2   O5    S    
C9    H35   S    
C43   C44   S    
C36   H43   S    
C43   H5    S    
C6    H27   S    
C10   C24   A    
O4    P4    D    
C27   C28   A    
C14   P8    S    
C9    C14   D    
C34   H48   S    
C46   H14   S    
C45   C46   S    
O10   P5    D    
Ba2   O8    S    
C28   C29   A    
C33   C36   A    
C6    H26   S    
C15   C16   S    
C23   O25   S    
C7    H29   S    
O19   P6    D    
Ba1   O8    S    
C7    N2    S    
C42   H3    S    
C38   C39   A    
C18   C20   S    
C43   H6    S    
Ba2   P4    S    
C11   C13   D    
C44   H9    S    
O15   P7    S    
C5    O11   S    
C46   N1    S    
C34   C42   S    
Ba1   O18   S    
C15   C17   S    
C47   H50   S    
Ba1   O5    S    
C37   C38   A    
O3    P3    S    
N1    H49   S    
O21   P6    S    
C42   H2    S    
N2    C48   S    
Ba2   O14   S    
C29   H40   S    
C8    H33   S    
C27   C39   A    
C26   C29   A    
C32   C41   A    
C3    H18   S    
C17   H37   S    
C8    H31   S    
O23   P3    S    
C48   H54   S    
C10   C22   A    
Ba2   O9    S    
O9    P5    S    
C2    H1    S    
C7    O17   S    
C30   C31   A    
C19   C21   A    
C4    H19   S    
N3    H57   S    
C45   H10   S    
C25   P5    S    
C43   O20   S    
C46   H13   S    
C3    C4    S    
O8    P7    S    
C26   C35   A    
C11   H34   S    
Ba2   O12   S    
C22   P1    S    
C41   H45   S    
Ba1   O22   S    
C12   C23   S    
C35   C39   A    
C2    O21   S    
Ba1   P1    S    
O16   P8    D    
C5    C6    S    
Ba1   O12   S    
C45   H11   S    
C25   C41   A    
C20   C24   A    
C44   H8    S    
C25   C26   A    
C24   P6    S    
C21   N3    S    
C28   H39   S    
C37   H41   S    
C1    C2    S    
N1    C47   S    
