data_mof_unit_63418.cif
_audit_creation_date              2012-10-26T18:25:11-0400
_audit_creation_method            fapswitch 2.2
_symmetry_space_group_name_H-M    P1
_symmetry_Int_Tables_number       1
_space_group_crystal_system       triclinic
_cell_length_a                    21.747126
_cell_length_b                    21.741651
_cell_length_c                    21.212413
_cell_angle_alpha                 120.67815
_cell_angle_beta                  120.512241
_cell_angle_gamma                 90.308651
_cell_volume                      6942.05209763

loop_
_atom_site_label
_atom_site_type_symbol
_atom_type_description
_atom_site_fract_x
_atom_site_fract_y
_atom_site_fract_z
_atom_type_partial_charge
C1    C     C_R   0.084985 0.584669 0.669226 0.567551
C2    C     C_R   0.480387 0.732857 0.809424 0.385745
C3    C     C_R   0.510210 0.774858 0.791728 0.101274
C4    C     C_R   0.117766 0.499401 0.498540 0.545201
C5    C     C_R   0.475944 0.747372 0.701303 0.377470
C6    C     C_R   0.412896 0.679184 0.629591 -0.146068
C7    C     C_R   0.382903 0.637207 0.646797 -0.078870
C8    C     C_1   0.136876 0.636129 0.771753 0.015535
C9    C     C_1   0.179602 0.678724 0.856714 -0.008324
C10   C     C_1   0.229859 0.729057 0.957482 0.024677
C11   C     C_1   0.272122 0.771459 0.042449 0.027016
C12   C     C_R   0.974362 0.238584 0.197205 -0.157333
C13   C     C_1   0.322214 0.821753 0.143234 -0.009015
C14   C     C_1   0.364453 0.864169 0.228204 -0.006593
C15   C     C_R   0.928417 0.418204 0.694630 -0.132056
C16   C     C_R   0.915215 0.415357 0.330759 0.532777
C17   C     C_R   0.868859 0.421892 0.627599 -0.131421
C18   C     C_R   0.877205 0.488677 0.632584 0.050238
C19   C     C_R   0.945438 0.552320 0.706628 0.395778
C20   C     C_R   0.004391 0.548621 0.774206 -0.065255
C21   C     C_R   0.996140 0.481531 0.767893 -0.147652
C22   C     C_R   0.747523 0.493170 0.560915 -0.104816
C23   C     C_R   0.245303 0.435224 0.427574 0.093617
C24   C     C_R   0.686285 0.500405 0.499310 0.009553
C25   C     C_R   0.689564 0.508133 0.438975 -0.039515
C26   C     C_R   0.754764 0.508582 0.441548 -0.138638
C27   C     C_R   0.816037 0.501000 0.502950 0.065325
C28   C     C_R   0.882100 0.500639 0.501656 0.576808
C29   C     C_R   0.812720 0.493222 0.563394 0.057552
C30   C     C_R   0.574965 0.455629 0.284085 -0.096848
C31   C     C_R   0.512932 0.462333 0.222704 -0.106524
C32   C     C_R   0.502281 0.532432 0.251945 -0.116922
C33   C     C_R   0.553792 0.596182 0.342596 -0.073200
C34   C     C_R   0.312598 0.500990 0.499577 0.048247
C35   C     C_R   0.616727 0.590690 0.405194 0.132162
C36   C     C_R   0.626949 0.519076 0.375576 0.052616
C37   C     C_1   0.863498 0.364082 0.228216 -0.014415
C38   C     C_1   0.820859 0.321598 0.143246 -0.028147
C39   C     C_1   0.770622 0.271176 0.042467 0.008380
C40   C     C_R   0.023398 0.242991 0.275759 -0.061163
C41   C     C_1   0.728311 0.228702 0.957499 0.032095
C42   C     C_1   0.678089 0.178362 0.856724 0.025241
C43   C     C_1   0.635681 0.135885 0.771757 0.010247
C44   C     C_R   0.498051 0.619942 0.499850 0.605330
C45   C     C_R   0.314631 0.565723 0.570202 0.008859
C46   C     C_R   0.379881 0.500690 0.500070 0.570088
C47   C     C_R   0.501747 0.380088 0.499836 0.558455
C48   C     C_R   0.619894 0.500388 0.499790 0.569801
C49   C     C_R   0.501070 0.119762 0.501876 0.535355
C50   C     C_R   0.415486 0.915391 0.330764 0.554472
C51   C     C_R   0.500228 0.881742 0.500775 0.589154
C52   C     C_R   0.090544 0.306843 0.350933 0.418724
C53   C     C_R   0.584534 0.084594 0.669228 0.524443
C54   C     C_R   0.269717 0.496244 0.231361 0.348642
C55   C     C_R   0.337925 0.558173 0.289928 -0.035655
C56   C     C_R   0.249288 0.563605 0.567285 -0.069766
C57   C     C_R   0.355458 0.623785 0.371221 -0.028699
C58   C     C_R   0.302327 0.628226 0.390926 -0.055974
C59   C     C_R   0.234412 0.566041 0.332612 0.332417
C60   C     C_R   0.218309 0.499919 0.253110 -0.030897
C61   C     C_R   0.431483 0.752895 0.438552 0.354469
C62   C     C_R   0.500097 0.815518 0.501551 -0.047982
C63   C     C_R   0.567516 0.814175 0.564336 -0.068800
C64   C     C_R   0.108290 0.367129 0.347967 0.028097
C65   C     C_R   0.565496 0.749683 0.563218 0.411935
C66   C     C_R   0.497317 0.686369 0.499207 -0.017332
C67   C     C_R   0.183137 0.498688 0.496666 0.023009
C68   C     C_R   0.429550 0.687712 0.436242 -0.072551
C69   C     C_R   0.697684 0.881006 0.622406 -0.031252
C70   C     C_R   0.766820 0.943176 0.689640 -0.095188
C71   C     C_R   0.778794 0.004671 0.769300 -0.091436
C72   C     C_R   0.721590 0.004131 0.781746 -0.107119
C73   C     C_R   0.652041 0.942478 0.714230 -0.051556
C74   C     C_R   0.639891 0.880566 0.634319 0.097476
C75   C     C_R   0.499400 0.246888 0.255524 0.068843
C76   C     C_R   0.058758 0.362460 0.269016 -0.165070
C77   C     C_R   0.481380 0.239754 0.307022 -0.063758
C78   C     C_R   0.180100 0.434224 0.425966 0.036699
C79   C     C_R   0.539704 0.258670 0.392680 -0.044098
C80   C     C_R   0.616238 0.282739 0.425666 -0.087959
C81   C     C_R   0.634179 0.288478 0.373743 0.359982
C82   C     C_R   0.576071 0.271044 0.289343 -0.019853
C83   C     C_R   0.521860 0.193165 0.452673 -0.136341
C84   C     C_R   0.502751 0.187817 0.504155 0.004085
C85   C     C_R   0.483808 0.246390 0.554574 -0.024480
C86   C     C_R   0.484380 0.309118 0.552148 -0.135027
C87   C     C_R   0.501997 0.313453 0.499477 0.008864
C88   C     C_R   0.992266 0.298088 0.193692 -0.139609
C89   C     C_R   0.417003 0.664687 0.737396 0.405794
C90   C     C_R   0.520474 0.255142 0.448688 -0.031604
C91   C     C_R   0.392431 0.244090 0.592186 -0.100740
C92   C     C_R   0.374690 0.244906 0.647310 -0.158772
C93   C     C_R   0.429235 0.247647 0.722897 -0.057685
C94   C     C_R   0.501611 0.249489 0.743449 0.406857
C95   C     C_R   0.519409 0.247953 0.687966 -0.035867
C96   C     C_R   0.464772 0.245135 0.611833 -0.010898
Cu1   Cu    Cu3+1 0.000010 0.438210 0.500020 1.051515
Cu2   Cu    Cu3+1 0.999990 0.561790 0.499980 1.024901
Cu3   Cu    Cu3+1 0.457530 0.457560 0.415050 0.993616
Cu4   Cu    Cu3+1 0.542470 0.542480 0.584950 1.065354
Cu5   Cu    Cu3+1 0.561810 0.000000 0.500000 0.958756
Cu6   Cu    Cu3+1 0.438190 0.000000 0.500000 1.041835
F1    F     F_    0.503785 0.786981 0.682848 -0.611590
F2    F     F_    0.389455 0.624868 0.755927 -0.572825
F3    F     F_    0.512326 0.757799 0.896174 -0.577827
F4    F     F_    0.954017 0.618361 0.714600 -0.637207
F5    F     F_    0.253774 0.432343 0.153874 -0.627103
F6    F     F_    0.184338 0.569750 0.353389 -0.634219
F7    F     F_    0.138305 0.309856 0.426229 -0.623970
F8    F     F_    0.366702 0.754699 0.377985 -0.602072
F9    F     F_    0.630320 0.748718 0.624751 -0.572179
F10   F     F_    0.708006 0.311066 0.405085 -0.659189
F11   F     F_    0.554781 0.253713 0.817886 -0.635703
H1    H     H_    0.922573 0.189013 0.138993 0.131503
H2    H     H_    0.582015 0.400635 0.260607 0.112131
H3    H     H_    0.472854 0.412989 0.152431 0.134439
H4    H     H_    0.454029 0.537422 0.204262 0.132954
H5    H     H_    0.544846 0.650270 0.364392 0.112812
H6    H     H_    0.165853 0.451712 0.208174 0.148896
H7    H     H_    0.377786 0.554547 0.273104 0.141373
H8    H     H_    0.313941 0.679514 0.451840 0.165805
H9    H     H_    0.689011 0.833448 0.561100 0.108562
H10   H     H_    0.811223 0.943540 0.680172 0.116979
H11   H     H_    0.832471 0.052593 0.821508 0.119307
H12   H     H_    0.387713 0.658597 0.560453 0.127494
H13   H     H_    0.731241 0.051407 0.843822 0.111431
H14   H     H_    0.608043 0.942565 0.724469 0.142204
H15   H     H_    0.590615 0.276198 0.249994 0.143773
H16   H     H_    0.422276 0.220997 0.281512 0.132066
H17   H     H_    0.072129 0.408288 0.265630 0.163515
H18   H     H_    0.661770 0.297490 0.491640 0.124683
H19   H     H_    0.535940 0.147976 0.413576 0.141553
H20   H     H_    0.470582 0.354776 0.591188 0.141027
H21   H     H_    0.349818 0.242421 0.534079 0.147786
H22   H     H_    0.318775 0.243806 0.631691 0.148373
H23   H     H_    0.041969 0.478866 0.820213 0.140441
H24   H     H_    0.415510 0.248776 0.765812 0.146878
H25   H     H_    0.575785 0.249811 0.704722 0.117213
H26   H     H_    0.954457 0.294449 0.132685 0.137800
H27   H     H_    0.249911 0.612951 0.620662 0.152154
H28   H     H_    0.596704 0.856748 0.927257 0.280704
H29   H     H_    0.556669 0.889235 0.864656 0.251097
H30   H     H_    0.712310 0.647827 0.538497 0.260068
H31   H     H_    0.694704 0.697583 0.495721 0.220269
H32   H     H_    0.446923 0.280820 0.175487 0.230777
H33   H     H_    0.386838 0.211234 0.152445 0.239909
H34   H     H_    0.921791 0.366468 0.690198 0.139593
H35   H     H_    0.202397 0.357244 0.294677 0.236275
H36   H     H_    0.230202 0.322190 0.356565 0.252393
H37   H     H_    0.816277 0.372823 0.572105 0.184238
H38   H     H_    0.056301 0.597996 0.832075 0.135963
H39   H     H_    0.744492 0.487559 0.607336 0.118338
H40   H     H_    0.757694 0.514670 0.395366 0.126265
H41   H     H_    0.009535 0.196672 0.278131 0.141788
N1    N     N_3   0.575309 0.844840 0.864067 -0.530922
N2    N     N_3   0.668512 0.658464 0.497311 -0.571374
N3    N     N_3   0.440736 0.229702 0.168898 -0.611311
N4    N     N_3   0.244298 0.368885 0.357571 -0.595631
O1    O     O_R   0.061970 0.509790 0.623960 -0.495735
O2    O     O_R   0.447790 0.090160 0.499970 -0.501216
O3    O     O_R   0.490230 0.938030 0.376060 -0.490921
O4    O     O_R   0.061960 0.614160 0.623930 -0.475332
O5    O     O_R   0.385840 0.938030 0.376050 -0.470860
O6    O     O_R   0.552210 0.909840 0.500030 -0.520761
O7    O     O_R   0.447820 0.909840 0.500030 -0.439482
O8    O     O_R   0.614160 0.061970 0.623950 -0.501323
O9    O     O_R   0.509770 0.061970 0.623940 -0.483938
O10   O     O_R   0.090190 0.447820 0.500020 -0.461217
O11   O     O_R   0.090170 0.552190 0.499990 -0.504270
O12   O     O_R   0.535870 0.626050 0.571740 -0.421207
O13   O     O_R   0.938040 0.385840 0.376070 -0.490976
O14   O     O_R   0.938030 0.490210 0.376040 -0.492912
O15   O     O_R   0.909830 0.447810 0.500010 -0.492922
O16   O     O_R   0.909810 0.552180 0.499980 -0.496388
O17   O     O_R   0.464140 0.554340 0.428270 -0.537985
O18   O     O_R   0.373960 0.464160 0.428260 -0.480512
O19   O     O_R   0.445680 0.535880 0.571730 -0.518141
O20   O     O_R   0.464130 0.373990 0.428260 -0.507710
O21   O     O_R   0.535860 0.445700 0.571730 -0.512624
O22   O     O_R   0.554320 0.464170 0.428270 -0.509590
O23   O     O_R   0.626040 0.535880 0.571740 -0.494282
O24   O     O_R   0.552180 0.090160 0.499970 -0.511594

loop_
_geom_bond_atom_site_label_1
_geom_bond_atom_site_label_2
_ccdc_geom_bond_type
C66   C68   A    
C63   C65   A    
H31   N2    S    
Cu5   Cu6   S    
C22   C29   A    
C27   C29   A    
C1    C8    S    
C41   C42   S    
C44   C66   S    
C95   C96   A    
C61   C68   A    
C44   O17   A    
C32   H4    S    
C5    F1    S    
Cu1   Cu2   S    
H30   N2    S    
C39   C41   T    
H33   N3    S    
C54   C60   A    
C85   C86   A    
C51   C62   S    
C26   C27   A    
Cu6   O9    S    
C54   F5    S    
C83   C84   A    
Cu1   O1    S    
C49   C84   S    
C47   O20   A    
C69   C70   A    
C5    C6    A    
Cu2   O16   S    
C85   C96   S    
C28   O15   A    
Cu4   O19   S    
C7    C89   A    
C23   N4    S    
C60   H6    S    
C18   C19   A    
C73   C74   A    
C65   F9    S    
C79   C90   S    
C47   O21   A    
C91   C96   A    
Cu2   O11   S    
C76   H17   S    
C70   H10   S    
C43   C53   S    
Cu3   O18   S    
C35   C36   A    
C45   C56   A    
Cu6   O5    S    
C95   H25   S    
C35   N2    S    
C49   O2    A    
C70   C71   A    
C34   C46   S    
H29   N1    S    
H36   N4    S    
C76   C88   A    
C21   H23   S    
C16   C37   S    
C30   H2    S    
Cu2   O14   S    
C75   N3    S    
C59   C60   A    
C80   H18   S    
C13   C14   T    
C50   O3    A    
C46   O19   A    
C40   H41   S    
C61   C62   A    
C67   C78   A    
C14   C50   S    
C61   F8    S    
Cu2   O4    S    
C94   F11   S    
C53   O9    A    
C81   C82   A    
C12   H1    S    
C55   H7    S    
C77   C79   A    
C69   C74   A    
C38   C39   S    
C22   H39   S    
Cu1   O15   S    
C4    O11   A    
C12   C88   A    
Cu4   O12   S    
C24   C48   S    
C71   H11   S    
C1    O1    A    
C24   C25   A    
Cu3   O20   S    
C52   C64   A    
Cu6   O2    S    
C91   C92   A    
C34   C45   A    
C86   C87   A    
C8    C9    T    
H35   N4    S    
C25   C26   A    
C73   H14   S    
C4    O10   A    
C72   H13   S    
C47   C87   S    
C12   C40   A    
C2    C89   A    
C88   H26   S    
C37   C38   T    
H32   N3    S    
C16   O14   A    
C86   H20   S    
C31   C32   A    
C81   F10   S    
C30   C31   A    
C23   C34   A    
C49   O24   A    
C62   C63   A    
C3    N1    S    
C17   C18   A    
C64   C76   A    
C94   C95   A    
C18   C29   S    
C77   H16   S    
C84   C85   A    
C52   F7    S    
Cu4   O23   S    
C75   C77   A    
C82   H15   S    
C1    O4    A    
Cu6   O7    S    
C55   C57   A    
C89   F2    S    
C22   C24   A    
C51   O7    A    
C92   H22   S    
C42   C43   T    
C57   C68   S    
C33   H5    S    
Cu1   O10   S    
C7    C45   S    
C31   H3    S    
C48   O22   A    
C9    C10   S    
C15   C17   A    
C83   C90   A    
C54   C55   A    
C58   H8    S    
C50   O5    A    
C64   C78   S    
Cu5   O6    S    
H28   N1    S    
C6    H12   S    
C80   C81   A    
C3    C5    A    
C4    C67   S    
C75   C82   A    
C6    C7    A    
C63   C74   S    
Cu3   O22   S    
C56   C67   A    
C93   C94   A    
C2    F3    S    
C59   F6    S    
Cu1   O13   S    
C20   H38   S    
C30   C36   A    
C32   C33   A    
C19   C20   A    
Cu5   O3    S    
C2    C3    A    
C58   C59   A    
C83   H19   S    
C40   C52   A    
Cu3   Cu4   S    
C15   H34   S    
C11   C13   S    
C16   O13   A    
C28   O16   A    
C57   C58   A    
C48   O23   A    
C91   H21   S    
C69   H9    S    
C72   C73   A    
C56   H27   S    
C92   C93   A    
C33   C35   A    
C46   O18   A    
C23   C78   A    
C51   O6    A    
Cu5   O8    S    
C44   O12   A    
C93   H24   S    
C10   C11   T    
C25   C36   S    
C79   C80   A    
C19   F4    S    
C53   O8    A    
C15   C21   A    
Cu3   O17   S    
C20   C21   A    
C65   C66   A    
C87   C90   A    
C27   C28   S    
C26   H40   S    
C71   C72   A    
Cu4   O21   S    
Cu5   O24   S    
C17   H37   S    
