data_mof_unit_23617.cif
_audit_creation_date              2013-03-05T16:15:15-0500
_audit_creation_method            fapswitch 2.2
_symmetry_space_group_name_H-M    P1
_symmetry_Int_Tables_number       1
_space_group_crystal_system       triclinic
_cell_length_a                    27.694664
_cell_length_b                    10.654865
_cell_length_c                    9.402098
_cell_angle_alpha                 90.097417
_cell_angle_beta                  90.649016
_cell_angle_gamma                 92.366887
_cell_volume                      2771.84709759

loop_
_atom_site_label
_atom_site_type_symbol
_atom_site_description
_atom_site_fract_x
_atom_site_fract_y
_atom_site_fract_z
_atom_type_partial_charge
O1    O     O_R   0.500020 0.316850 0.620870 -0.560471
O2    O     O_R   0.499980 0.683150 0.379130 -0.559261
O3    O     O_R   0.500000 0.316860 0.379090 -0.593006
O4    O     O_R   0.500000 0.683140 0.620910 -0.589299
C1    C     C_R   0.499950 0.259468 0.499736 0.868873
C2    C     C_R   0.500020 0.740506 0.500258 0.869366
O5    O     O_R   0.430270 0.500020 0.620880 -0.578345
O6    O     O_R   0.569730 0.499980 0.379120 -0.577629
O7    O     O_R   0.430250 0.500030 0.379090 -0.579020
O8    O     O_R   0.569750 0.499970 0.620910 -0.581244
C3    C     C_R   0.407356 0.497703 0.499212 0.818443
C4    C     C_R   0.592718 0.500957 0.501008 0.824191
Cu1   Cu    Cu3+1 0.500010 0.499990 0.643150 0.992522
Cu2   Cu    Cu3+1 0.499990 0.500010 0.356850 0.990394
C5    C     C_R   0.172979 0.354446 0.501969 0.565367
C6    C     C_R   0.828553 0.623365 0.487318 0.564907
O9    O     O_2   0.193546 0.246027 0.467756 -0.495246
O10   O     O_2   0.808341 0.734718 0.464678 -0.494225
N1    N     N_R   0.201279 0.461484 0.522394 -0.469804
N2    N     N_R   0.799808 0.516168 0.499184 -0.467420
C7    C     C_R   0.181670 0.572743 0.557994 0.578640
C8    C     C_R   0.819426 0.401724 0.520016 0.577282
C9    C     C_R   0.275015 0.513476 0.389436 -0.120215
C10   C     C_R   0.723517 0.484371 0.624988 -0.117027
C11   C     C_R   0.325411 0.527341 0.383222 -0.064827
C12   C     C_R   0.673171 0.474182 0.626551 -0.054761
C13   C     C_R   0.330993 0.429841 0.616529 -0.127052
C14   C     C_R   0.671355 0.548106 0.381763 -0.143228
C15   C     C_R   0.280809 0.416137 0.621134 -0.077617
C16   C     C_R   0.721854 0.555534 0.380866 -0.071113
C17   C     C_R   0.252695 0.458826 0.508355 0.319333
C18   C     C_R   0.748093 0.522733 0.502278 0.312825
C19   C     C_R   0.101665 0.471880 0.550834 -0.048744
C20   C     C_R   0.899505 0.501637 0.530872 -0.048566
C21   C     C_R   0.122478 0.357571 0.515804 -0.029725
C22   C     C_R   0.879115 0.617958 0.501976 -0.032406
C23   C     C_R   0.092355 0.250593 0.491955 -0.108638
C24   C     C_R   0.909650 0.725360 0.488715 -0.104123
C25   C     C_R   0.131588 0.579978 0.572427 -0.099044
C26   C     C_R   0.869368 0.392773 0.538695 -0.098285
C27   C     C_R   0.354004 0.486014 0.498574 -0.089436
C28   C     C_R   0.646267 0.506809 0.503761 -0.083424
H1    H     H_    0.351880 0.396369 0.705829 0.194801
H2    H     H_    0.651900 0.574323 0.286465 0.185351
H3    H     H_    0.263664 0.375637 0.714293 0.157398
H4    H     H_    0.740535 0.584104 0.284938 0.161047
H5    H     H_    0.107149 0.162452 0.460057 0.207151
H6    H     H_    0.895290 0.815161 0.460643 0.212560
C29   C     C_R   0.970453 0.374808 0.568300 -0.082649
C30   C     C_R   0.030146 0.596942 0.582042 -0.084009
C31   C     C_R   0.979968 0.605065 0.552122 0.069145
C32   C     C_R   0.021091 0.367716 0.549728 0.073333
C33   C     C_R   0.950053 0.493870 0.551047 0.040203
C34   C     C_R   0.050889 0.478704 0.562001 0.040483
C35   C     C_R   0.938680 0.269497 0.597027 0.366361
C36   C     C_R   0.061316 0.700470 0.624784 0.367474
C37   C     C_R   0.889127 0.278516 0.574300 -0.155820
C38   C     C_R   0.111236 0.691824 0.613377 -0.156698
O11   O     O_2   0.790448 0.296710 0.524179 -0.499645
O12   O     O_2   0.210706 0.676098 0.579774 -0.506472
C39   C     C_R   0.042451 0.256125 0.506861 -0.079728
C40   C     C_R   0.959374 0.718333 0.510827 -0.077842
H7    H     H_    0.744130 0.457827 0.718201 0.153065
H8    H     H_    0.252794 0.548609 0.303814 0.151691
H9    H     H_    0.865594 0.196355 0.592138 0.235156
H10   H     H_    0.134419 0.772808 0.641261 0.234253
H11   H     H_    0.020647 0.173332 0.478921 0.206292
H12   H     H_    0.981736 0.801683 0.491277 0.212095
C41   C     C_3   0.538353 0.046590 0.576012 -0.268341
C42   C     C_3   0.461637 0.953313 0.423943 -0.286656
C43   C     C_3   0.540388 0.963235 0.442432 0.436519
C44   C     C_3   0.459585 0.036645 0.557543 0.441375
H13   H     H_    0.569980 0.086881 0.636592 0.189125
H14   H     H_    0.430030 0.913004 0.363281 0.177250
C45   C     C_3   0.499956 0.877134 0.500957 -0.139588
C46   C     C_3   0.500011 0.122800 0.499016 -0.140191
C47   C     C_3   0.497220 0.958913 0.635676 -0.235435
C48   C     C_3   0.502753 0.041000 0.364302 -0.255962
H15   H     H_    0.494373 0.923804 0.746510 0.185965
H16   H     H_    0.505588 0.076095 0.253459 0.174409
C49   C     C_3   0.497522 0.612981 0.050507 -0.013550
C50   C     C_3   0.502464 0.387023 0.949525 -0.016278
C51   C     C_3   0.461024 0.546871 0.948135 -0.034279
C52   C     C_3   0.538959 0.453137 0.051920 -0.034152
H17   H     H_    0.428277 0.586645 0.899683 0.151232
H18   H     H_    0.571639 0.413313 0.100694 0.144784
H19   H     H_    0.495320 0.708290 0.097192 0.161651
H20   H     H_    0.504680 0.291707 0.902869 0.159207
N3    N     N_3   0.500040 0.499970 0.858290 -0.175551
N4    N     N_3   0.499960 0.500030 0.141710 -0.176277
C53   C     C_3   0.536538 0.566070 0.950811 -0.010438
C54   C     C_3   0.463450 0.433951 0.049227 -0.019167
H21   H     H_    0.567242 0.621665 0.904317 0.148599
H22   H     H_    0.432733 0.378431 0.095762 0.149732
C55   C     C_1   0.650888 0.423237 0.753299 0.296589
N5    N     N_1   0.633266 0.381894 0.854902 -0.298236
C56   C     C_1   0.346303 0.589779 0.260860 0.279388
N6    N     N_1   0.362997 0.639925 0.162827 -0.276553
S1    S     S_3+6 0.955482 0.134358 0.691461 0.035151
O13   O     O_2   0.955762 0.026377 0.588731 -0.288674
O14   O     O_2   0.004018 0.153531 0.763180 -0.239503
O15   O     O_3   0.913870 0.101141 0.816304 -0.504707
H23   H     H_    0.922884 0.019377 0.856551 0.401837
S2    S     S_3+6 0.042856 0.833453 0.719756 0.034353
O16   O     O_2   0.047025 0.944951 0.622560 -0.268380
O17   O     O_2   0.992233 0.816401 0.774507 -0.251522
O18   O     O_3   0.080708 0.858880 0.858951 -0.507079
H24   H     H_    0.071576 0.940352 0.899421 0.397706
S3    S     S_3+6 0.594851 0.912499 0.365845 0.025222
O19   O     O_2   0.620604 0.832359 0.471251 -0.259551
O20   O     O_2   0.583418 0.837148 0.233568 -0.307626
O21   O     O_3   0.630657 0.038214 0.325019 -0.467316
H25   H     H_    0.610368 0.090938 0.263889 0.332221
S4    S     S_3+6 0.404968 0.086748 0.633695 0.016991
O22   O     O_2   0.416693 0.168553 0.760781 -0.282678
O23   O     O_2   0.377399 0.160094 0.525773 -0.293212
O24   O     O_3   0.371106 0.960736 0.685270 -0.474239
H26   H     H_    0.366871 0.908128 0.598691 0.341899

loop_
_geom_bond_atom_site_label_1
_geom_bond_atom_site_label_2
_geom_bond_distance
_ccdc_geom_bond_type
C16   C18   1.398878 A    
C13   C15   1.392622 A    
C41   C47   1.553519 S    
C55   N5    1.157161 T    
C44   C46   1.526341 S    
N1    C17   1.432958 S    
S2    O17   1.503084 D    
S4    O22   1.502392 D    
C2    C45   1.455832 S    
C5    N1    1.368892 A    
C51   C54   1.537728 S    
C30   C34   1.419171 A    
C50   N3    1.482386 S    
O1    C1    1.291669 A    
C46   C48   1.540632 S    
C21   C23   1.400653 A    
C52   H18   1.110172 S    
C32   C39   1.409952 A    
S3    O20   1.502749 D    
C48   H16   1.110334 S    
C42   C48   1.553163 S    
C44   S4    1.782014 S    
C19   C34   1.416186 A    
C50   C54   1.536936 S    
C41   C46   1.538425 S    
C14   C28   1.409455 A    
O4    Cu1   1.962974 S    
C41   C43   1.539902 S    
C13   C27   1.407497 A    
Cu2   N4    2.022759 S    
C4    C28   1.481699 S    
C38   H10   1.084049 S    
C42   H14   1.110313 S    
O18   H24   0.990694 S    
C41   H13   1.110290 S    
C52   C53   1.537924 S    
C23   H5    1.083235 S    
C24   H6    1.083163 S    
C50   H20   1.109882 S    
C6    N2    1.370431 A    
Cu1   N3    2.022759 S    
Cu1   Cu2   2.691814 S    
O2    C2    1.291520 A    
C31   C40   1.409240 A    
C52   N4    1.480755 S    
C5    C21   1.407858 A    
O21   H25   0.990704 S    
C49   C51   1.536613 S    
C32   C34   1.417595 A    
C56   N6    1.157453 T    
C47   H15   1.110327 S    
C51   N3    1.481445 S    
C36   S2    1.769807 S    
C7    O12   1.350434 S    
O4    C2    1.289479 A    
S3    O21   1.680941 S    
C11   C27   1.417103 A    
C8    O11   1.350639 S    
C29   C35   1.425196 A    
C25   C38   1.394594 A    
C14   H2    1.083274 S    
C30   C36   1.426689 A    
C15   H3    1.082894 S    
S4    O23   1.502568 D    
C31   C33   1.417349 A    
C9    C17   1.399803 A    
O5    C3    1.301567 A    
O7    Cu2   1.945074 S    
C10   C18   1.399231 A    
C44   C47   1.538828 S    
C53   H21   1.110302 S    
O7    C3    1.301220 A    
C39   H11   1.078630 S    
N4    C54   1.481011 S    
S1    O13   1.501267 D    
C7    C25   1.400428 A    
O6    C4    1.304465 A    
C29   C32   1.420267 A    
C8    C26   1.399449 A    
C54   H22   1.110324 S    
C30   C31   1.420899 A    
C19   C25   1.403965 A    
S2    O18   1.682055 S    
C45   C47   1.540532 S    
C49   H19   1.109889 S    
O3    Cu2   1.962973 S    
O8    C4    1.300510 A    
C49   N4    1.482270 S    
C11   C56   1.444580 S    
C9    H8    1.084319 S    
C51   H17   1.110251 S    
N2    C8    1.368785 A    
C10   H7    1.084813 S    
C50   C52   1.536696 S    
C35   C37   1.393737 A    
C20   C26   1.403268 A    
N3    C53   1.481091 S    
C12   C28   1.418485 A    
N2    C18   1.437432 S    
C12   C55   1.444580 S    
C5    O9    1.348940 S    
O6    Cu2   1.940396 S    
C26   C37   1.394937 A    
N1    C7    1.366821 A    
C16   H4    1.082737 S    
C10   C12   1.394296 A    
C37   H9    1.084023 S    
O3    C1    1.289555 A    
O8    Cu1   1.945074 S    
S2    O16   1.501514 D    
C23   C39   1.394399 A    
C40   H12   1.078765 S    
C1    C46   1.456255 S    
C22   C24   1.401140 A    
C15   C17   1.396315 A    
O24   H26   0.990683 S    
C6    C22   1.409062 A    
C43   C45   1.526114 S    
C29   C33   1.418671 A    
C43   S3    1.782263 S    
C14   C16   1.397640 A    
C19   C21   1.408905 A    
C36   C38   1.394706 A    
C3    C27   1.477609 S    
C20   C22   1.408631 A    
C9    C11   1.399310 A    
O15   H23   0.990662 S    
O2    Cu2   1.962201 S    
S4    O24   1.680999 S    
C49   C53   1.536855 S    
C13   H1    1.083431 S    
O5    Cu1   1.940396 S    
S1    O15   1.682120 S    
O1    Cu1   1.962202 S    
C20   C33   1.416410 A    
C6    O10   1.348825 S    
C35   S1    1.768754 S    
C42   C45   1.537884 S    
C42   C44   1.539942 S    
S3    O19   1.502364 D    
S1    O14   1.503172 D    
C43   C48   1.539023 S    
C24   C40   1.395443 A    
