data_mof_unit_21078.cif
_audit_creation_date              2012-12-10T20:31:03-0500
_audit_creation_method            fapswitch 2.2
_symmetry_space_group_name_H-M    P1
_symmetry_Int_Tables_number       1
_space_group_crystal_system       triclinic
_cell_length_a                    15.003877
_cell_length_b                    10.666269
_cell_length_c                    9.847069
_cell_angle_alpha                 90.066266
_cell_angle_beta                  89.873386
_cell_angle_gamma                 89.983535
_cell_volume                      1575.87454132

loop_
_atom_site_label
_atom_site_type_symbol
_atom_type_description
_atom_site_fract_x
_atom_site_fract_y
_atom_site_fract_z
_atom_type_partial_charge
C1    C     C_R   0.503085 0.259849 0.499984 0.880952
C2    C     C_R   0.906946 0.482310 0.622186 0.121655
C3    C     C_R   0.953862 0.553454 0.257615 -0.222799
C4    C     C_R   0.046518 0.553625 0.257717 -0.216553
C5    C     C_R   0.092772 0.529751 0.378322 0.119488
C6    C     C_R   0.046148 0.506315 0.500256 0.059258
C7    C     C_R   0.092252 0.481991 0.622083 0.120865
C8    C     C_R   0.045704 0.459265 0.742938 -0.219801
C9    C     C_R   0.953141 0.459566 0.743018 -0.224416
C10   C     C_R   0.185035 0.528391 0.379237 -0.260239
C11   C     C_R   0.230538 0.502891 0.499951 -0.074148
C12   C     C_R   0.326522 0.500582 0.500050 0.891130
C13   C     C_R   0.184351 0.480065 0.620745 -0.264298
C14   C     C_R   0.519370 0.064028 0.623337 0.126620
C15   C     C_R   0.518504 0.128550 0.500518 -0.102510
C16   C     C_R   0.535914 0.064614 0.378748 -0.225605
C17   C     C_R   0.536320 0.934938 0.378875 -0.229033
C18   C     C_R   0.519189 0.871257 0.500762 -0.108599
C19   C     C_R   0.519875 0.936126 0.623547 0.160694
C20   C     C_3   0.457395 0.928941 0.741850 -0.454248
C21   C     C_3   0.456628 0.070998 0.741258 -0.513120
C22   C     C_R   0.459124 0.405672 0.071432 0.200681
C23   C     C_R   0.503437 0.740082 0.500061 0.883959
C24   C     C_R   0.548108 0.585576 0.072366 -0.268109
C25   C     C_R   0.550222 0.584346 0.926999 0.506184
C26   C     C_R   0.458528 0.406253 0.928844 0.122349
C27   C     C_3   0.361833 0.374820 0.924746 -0.503634
C28   C     C_3   0.362923 0.372085 0.078666 -0.480170
C29   C     C_R   0.673393 0.500695 0.499854 0.888371
C30   C     C_R   0.814850 0.480529 0.620919 -0.279019
C31   C     C_R   0.769201 0.502885 0.499738 -0.069166
C32   C     C_R   0.814984 0.527792 0.378846 -0.260063
C33   C     C_R   0.907219 0.529550 0.378162 0.119366
C34   C     C_R   0.953433 0.506364 0.500248 0.062749
H1    H     H_    0.778866 0.460536 0.714070 0.152564
H2    H     H_    0.543251 0.885747 0.283090 0.166205
H3    H     H_    0.391944 0.886770 0.715089 0.199451
H4    H     H_    0.489781 0.888906 0.833487 0.230297
H5    H     H_    0.390793 0.111330 0.713471 0.203042
H6    H     H_    0.488386 0.112879 0.832571 0.207107
H7    H     H_    0.583742 0.656653 0.128525 0.158624
H8    H     H_    0.321565 0.447076 0.125251 0.210759
H9    H     H_    0.779013 0.546057 0.285470 0.155964
H10   H     H_    0.352444 0.276810 0.121434 0.200217
H11   H     H_    0.918756 0.571370 0.163521 0.140532
H12   H     H_    0.081942 0.571704 0.163708 0.144031
H13   H     H_    0.221196 0.547703 0.286209 0.152398
H14   H     H_    0.219794 0.459613 0.713513 0.151464
H15   H     H_    0.080840 0.440930 0.836919 0.145260
H16   H     H_    0.917739 0.441510 0.837061 0.142572
H17   H     H_    0.542583 0.113549 0.282907 0.170606
N1    N     N_R   0.499390 0.499140 0.142800 -0.122999
N2    N     N_R   0.499390 0.499180 0.857150 -0.142057
O1    O     O_R   0.500010 0.316790 0.614690 -0.618046
O2    O     O_R   0.500000 0.316760 0.385350 -0.622092
O3    O     O_R   0.367850 0.499990 0.614680 -0.628432
O4    O     O_R   0.367840 0.499950 0.385340 -0.623130
O5    O     O_R   0.500000 0.683240 0.614650 -0.568128
O6    O     O_R   0.499990 0.683210 0.385310 -0.630281
O7    O     O_R   0.632160 0.500050 0.614660 -0.610445
O8    O     O_R   0.632150 0.500010 0.385320 -0.628471
Zn1   Zn    Zn3+2 0.500010 0.500020 0.653130 0.977449
Zn2   Zn    Zn3+2 0.499990 0.499980 0.346870 0.940912
O9    O     O_3   0.595343 0.675480 0.853920 -0.621328
C35   C     C_3   0.685580 0.685950 0.894395 0.067963
H18   H     H_    0.727591 0.675035 0.802128 0.174941
H19   H     H_    0.708226 0.612131 0.966933 0.103880
C36   C     C_3   0.702293 0.816649 0.953273 -0.364399
H20   H     H_    0.688092 0.888346 0.874335 0.230711
H21   H     H_    0.656915 0.833907 0.040549 0.209217
C37   C     C_3   0.798501 0.830843 0.000804 -0.947301
H22   H     H_    0.813119 0.762531 0.082896 0.258735
H23   H     H_    0.808903 0.927029 0.040974 0.268412
H24   H     H_    0.845280 0.815121 0.914839 0.266268
H25   H     H_    0.321245 0.453146 0.884142 0.208161
H26   H     H_    0.348948 0.281682 0.878299 0.200571

loop_
_geom_bond_atom_site_label_1
_geom_bond_atom_site_label_2
_ccdc_geom_bond_type
C24   N1    A    
C23   O5    A    
O5    Zn1   S    
C19   C20   S    
C16   H17   S    
C7    C8    A    
C4    H12   S    
C23   O6    A    
C26   C27   S    
C30   H1    S    
C14   C21   S    
C25   N2    A    
C5    C6    A    
C3    C33   A    
C15   C16   A    
O7    Zn1   S    
C18   C19   A    
O8    Zn2   S    
C16   C17   A    
C35   H19   S    
O2    Zn2   S    
C28   H10   S    
C1    C15   S    
C17   H2    S    
C2    C34   A    
C22   C28   S    
C24   H7    S    
C27   H25   S    
O4    Zn2   S    
C29   O8    A    
C18   C23   S    
C24   C25   A    
C37   H23   S    
C36   H20   S    
O1    Zn1   S    
C3    H11   S    
C6    C34   A    
C25   O9    S    
C1    O1    A    
C13   H14   S    
C20   H4    S    
N2    Zn1   S    
C31   C32   A    
C21   H5    S    
C29   O7    A    
C35   C36   S    
C17   C18   A    
C8    C9    A    
C12   O3    A    
C12   O4    A    
O3    Zn1   S    
C3    C4    A    
C26   N2    A    
C27   C28   S    
C22   N1    A    
C14   C19   A    
C9    H16   S    
C4    C5    A    
N1    Zn2   S    
C37   H24   S    
C11   C12   S    
C6    C7    A    
O6    Zn2   S    
C2    C30   A    
O9    C35   S    
C1    O2    A    
C5    C10   A    
C29   C31   S    
C32   C33   A    
C20   H3    S    
C11   C13   A    
C30   C31   A    
C21   H6    S    
C36   C37   S    
C28   H8    S    
C32   H9    S    
C33   C34   A    
C10   C11   A    
C7    C13   A    
C37   H22   S    
C20   C21   S    
C36   H21   S    
C35   H18   S    
C22   C26   A    
C10   H13   S    
C14   C15   A    
C2    C9    A    
C8    H15   S    
C27   H26   S    
