data_mof_unit_39879.cif
_audit_creation_date              2012-12-10T16:49:29-0500
_audit_creation_method            fapswitch 2.2
_symmetry_space_group_name_H-M    P1
_symmetry_Int_Tables_number       1
_space_group_crystal_system       triclinic
_cell_length_a                    7.758241
_cell_length_b                    8.578635
_cell_length_c                    12.831701
_cell_angle_alpha                 90.218472
_cell_angle_beta                  87.633885
_cell_angle_gamma                 93.548152
_cell_volume                      851.650945846

loop_
_atom_site_label
_atom_site_type_symbol
_atom_type_description
_atom_site_fract_x
_atom_site_fract_y
_atom_site_fract_z
_atom_type_partial_charge
C1    C     C_R   0.454712 0.205268 0.497263 0.961729
C2    C     C_R   0.681220 0.405272 0.141986 -0.294773
C3    C     C_R   0.558915 0.426186 0.869887 0.580360
C4    C     C_R   0.441085 0.573813 0.130112 0.580360
C5    C     C_R   0.560620 0.451233 0.976162 -0.030191
C6    C     C_R   0.439379 0.548767 0.023838 -0.030192
C7    C     C_2   0.430863 0.041809 0.495715 -0.350481
C8    C     C_2   0.569137 0.958191 0.504285 -0.350482
C9    C     C_R   0.545288 0.794732 0.502736 0.961729
C10   C     C_R   0.464799 0.499946 0.699705 0.931716
C11   C     C_R   0.535201 0.500054 0.300295 0.931716
C12   C     C_R   0.557413 0.497200 0.189108 -0.172740
C13   C     C_R   0.442587 0.502799 0.810892 -0.172740
C14   C     C_R   0.316997 0.617705 0.964707 -0.129100
C15   C     C_R   0.683002 0.382294 0.035293 -0.129100
C16   C     C_R   0.318779 0.594727 0.858014 -0.294773
F1    F     F_    0.327685 0.670211 0.176509 -0.671312
F2    F     F_    0.672316 0.329790 0.823491 -0.671313
H1    H     H_    0.771207 0.346114 0.188033 0.195028
H2    H     H_    0.228792 0.653885 0.811967 0.195028
H3    H     H_    0.222370 0.691407 0.000224 0.211969
H4    H     H_    0.777629 0.308592 0.999776 0.211969
H5    H     H_    0.998798 0.615590 0.421837 0.209561
H6    H     H_    0.001202 0.384410 0.578163 0.209561
H7    H     H_    0.300220 0.990796 0.487544 0.184582
H8    H     H_    0.699780 0.009204 0.512455 0.184581
N1    N     N_2   0.054030 0.541640 0.471970 -0.170182
N2    N     N_2   0.945970 0.458360 0.528030 -0.170182
O1    O     O_R   0.609680 0.261530 0.506880 -0.606802
O2    O     O_R   0.390320 0.738470 0.493120 -0.606802
O3    O     O_R   0.323330 0.288220 0.488910 -0.636657
O4    O     O_R   0.676670 0.711780 0.511090 -0.636657
O5    O     O_R   0.619510 0.488830 0.661140 -0.557752
O6    O     O_R   0.380490 0.511170 0.338860 -0.557753
O7    O     O_R   0.333160 0.515520 0.643180 -0.641837
O8    O     O_R   0.666840 0.484480 0.356820 -0.641837
Zn1   Zn    Zn3+2 0.691200 0.482180 0.511990 0.986885
Zn2   Zn    Zn3+2 0.308800 0.517820 0.488010 0.986885

loop_
_geom_bond_atom_site_label_1
_geom_bond_atom_site_label_2
_ccdc_geom_bond_type
C11   C12   S    
C10   O7    A    
H5    N1    S    
C4    C12   A    
C8    H8    S    
C3    C13   A    
O3    Zn2   S    
C16   H2    S    
C2    C12   A    
C1    O1    A    
C7    C8    D    
C1    C7    S    
O4    Zn1   S    
C2    C15   A    
N2    Zn1   S    
C4    F1    S    
C9    O2    A    
C14   H3    S    
C11   O8    A    
C10   O5    A    
C11   O6    A    
C5    C6    A    
C14   C16   A    
C5    C15   A    
C6    C14   A    
N1    Zn2   S    
C1    O3    A    
O7    Zn2   S    
O2    Zn2   S    
C3    F2    S    
C4    C6    A    
C13   C16   A    
O1    Zn1   S    
N1    N2    D    
O8    Zn1   S    
C9    O4    A    
C2    H1    S    
O6    Zn2   S    
C15   H4    S    
O5    Zn1   S    
H6    N2    S    
C8    C9    S    
C3    C5    A    
C10   C13   S    
C7    H7    S    
