data_mof_unit_15337.cif
_audit_creation_date              2012-12-11T15:27:34-0500
_audit_creation_method            fapswitch 2.2
_symmetry_space_group_name_H-M    P1
_symmetry_Int_Tables_number       1
_space_group_crystal_system       triclinic
_cell_length_a                    23.232051
_cell_length_b                    7.29062
_cell_length_c                    15.158078
_cell_angle_alpha                 90.001531
_cell_angle_beta                  108.220416
_cell_angle_gamma                 89.997937
_cell_volume                      2438.68704198

loop_
_atom_site_label
_atom_site_type_symbol
_atom_type_description
_atom_site_fract_x
_atom_site_fract_y
_atom_site_fract_z
_atom_type_partial_charge
O1    O     O_R   0.711000 0.648610 0.341170 -0.544271
O2    O     O_R   0.289000 0.351390 0.658830 -0.544999
O3    O     O_R   0.789000 0.148610 0.158830 -0.544306
O4    O     O_R   0.211000 0.851390 0.841170 -0.544987
O5    O     O_R   0.829650 0.322030 0.336650 -0.540184
O6    O     O_R   0.170350 0.677970 0.663350 -0.541054
O7    O     O_R   0.670350 0.822030 0.163350 -0.540168
O8    O     O_R   0.329650 0.177970 0.836650 -0.541084
C1    C     C_R   0.854254 0.485834 0.356976 0.703889
C2    C     C_R   0.145713 0.514145 0.643146 0.710987
C3    C     C_R   0.645745 0.985836 0.143025 0.703947
C4    C     C_R   0.354287 0.014143 0.856853 0.711060
O9    O     O_R   0.713950 0.319280 0.352070 -0.529258
O10   O     O_R   0.286050 0.680720 0.647930 -0.537233
O11   O     O_R   0.786050 0.819280 0.147930 -0.529224
O12   O     O_R   0.213950 0.180720 0.852070 -0.537293
O13   O     O_R   0.672470 0.142870 0.174360 -0.526752
O14   O     O_R   0.327530 0.857130 0.825640 -0.527805
O15   O     O_R   0.827530 0.642870 0.325640 -0.526757
O16   O     O_R   0.172470 0.357130 0.674360 -0.527818
C5    C     C_R   0.702065 0.488172 0.376408 0.742783
C6    C     C_R   0.298414 0.512256 0.624330 0.748034
C7    C     C_R   0.797938 0.988164 0.123595 0.742822
C8    C     C_R   0.201581 0.012264 0.875666 0.748008
O17   O     O_3   0.736530 0.478650 0.191680 -0.381733
O18   O     O_3   0.263470 0.521350 0.808320 -0.381012
O19   O     O_3   0.763470 0.978650 0.308320 -0.381726
O20   O     O_3   0.236530 0.021350 0.691680 -0.380978
V1    V     V_3+5 0.752500 0.206170 0.260820 1.437602
V2    V     V_3+5 0.247500 0.793830 0.739180 1.439794
V3    V     V_3+5 0.747500 0.706170 0.239180 1.437661
V4    V     V_3+5 0.252500 0.293830 0.760820 1.439642
C9    C     C_R   0.825832 0.005341 0.049746 -0.114095
C10   C     C_R   0.170709 0.002245 0.945889 -0.104396
C11   C     C_R   0.674171 0.505387 0.450257 -0.114230
C12   C     C_R   0.329283 0.502197 0.554106 -0.104385
C13   C     C_R   0.827839 0.166240 0.911417 -0.182524
C14   C     C_R   0.174634 0.943353 0.104272 -0.160876
C15   C     C_R   0.672118 0.666591 0.588484 -0.182591
C16   C     C_R   0.325379 0.442699 0.395784 -0.160866
C17   C     C_R   0.797520 0.116670 0.973456 -0.248634
C18   C     C_R   0.204129 0.967367 0.038187 -0.253313
C19   C     C_R   0.702458 0.616870 0.526496 -0.248618
C20   C     C_R   0.295877 0.466871 0.461849 -0.253329
C21   C     C_R   0.884805 0.939868 0.063134 0.318766
C22   C     C_R   0.107233 0.014846 0.918863 0.326346
C23   C     C_R   0.615206 0.439866 0.436885 0.318763
C24   C     C_R   0.392753 0.515068 0.581113 0.326407
C25   C     C_R   0.919794 0.015314 0.009490 -0.037526
C26   C     C_R   0.077018 0.010372 0.987510 -0.026296
C27   C     C_R   0.580194 0.515399 0.490479 -0.037480
C28   C     C_R   0.422970 0.510370 0.512470 -0.026303
C29   C     C_R   0.888914 0.119876 0.929607 0.101730
C30   C     C_R   0.111509 0.961907 0.079582 0.099682
C31   C     C_R   0.611047 0.620185 0.570297 0.101661
C32   C     C_R   0.388495 0.461495 0.420449 0.099723
C33   C     C_R   0.984101 0.996343 0.033394 0.051018
C34   C     C_R   0.013879 0.047506 0.967837 0.057516
C35   C     C_R   0.515890 0.496297 0.466590 0.051175
C36   C     C_R   0.486096 0.547651 0.532102 0.057406
C37   C     C_R   0.980864 0.148039 0.888676 -0.158468
C38   C     C_R   0.020264 0.946301 0.123659 -0.160766
C39   C     C_R   0.519080 0.648486 0.611171 -0.158502
C40   C     C_R   0.479738 0.445915 0.376371 -0.160657
C41   C     C_R   0.919753 0.184832 0.870591 -0.217836
C42   C     C_R   0.082830 0.933182 0.146578 -0.203747
C43   C     C_R   0.580185 0.685337 0.629243 -0.217780
C44   C     C_R   0.417180 0.432594 0.353476 -0.203841
H1    H     H_    0.896632 0.267541 0.810504 0.122034
H2    H     H_    0.108969 0.898834 0.217373 0.124551
H3    H     H_    0.603283 0.768250 0.689264 0.122024
H4    H     H_    0.391051 0.397947 0.282716 0.124542
H5    H     H_    0.252967 0.953423 0.058444 0.125588
H6    H     H_    0.751959 0.167167 0.962683 0.131488
H7    H     H_    0.247048 0.452696 0.441615 0.125611
H8    H     H_    0.748011 0.667410 0.537255 0.131505
H9    H     H_    0.804504 0.250038 0.851905 0.125097
H10   H     H_    0.201261 0.910231 0.174974 0.126529
H11   H     H_    0.695430 0.750547 0.647946 0.125097
H12   H     H_    0.298766 0.409237 0.325120 0.126533
H13   H     H_    0.002324 0.212756 0.843191 0.181609
H14   H     H_    0.001836 0.930037 0.180168 0.184464
H15   H     H_    0.497599 0.713363 0.656589 0.181614
H16   H     H_    0.498159 0.429524 0.319862 0.184536
C45   C     C_1   0.416687 0.006635 0.919073 -0.182263
C46   C     C_1   0.583179 0.992986 0.081362 -0.177477
C47   C     C_1   0.083314 0.506640 0.580922 -0.182243
C48   C     C_1   0.916821 0.492980 0.418636 -0.177361
C49   C     C_1   0.469013 0.001893 0.970435 -0.004138
C50   C     C_1   0.530750 0.997330 0.030379 0.004011
C51   C     C_1   0.030989 0.501895 0.529559 -0.004137
C52   C     C_1   0.969251 0.497328 0.469616 0.004005
O21   O     O_3   0.075871 0.022660 0.824824 -0.571214
C53   C     C_3   0.053474 0.845993 0.793914 0.078539
H17   H     H_    0.024052 0.791860 0.833563 0.122229
H18   H     H_    0.091445 0.748291 0.800580 0.130836
C54   C     C_3   0.015529 0.856853 0.692205 -0.689948
H19   H     H_    0.044139 0.901585 0.649593 0.227856
H20   H     H_    0.996002 0.720031 0.667908 0.177397
H21   H     H_    0.977911 0.956291 0.683331 0.219516
O22   O     O_3   0.907013 0.804452 0.128911 -0.567393
C55   C     C_3   0.903619 0.634725 0.082485 0.102418
H22   H     H_    0.932822 0.634906 0.036531 0.122329
H23   H     H_    0.856011 0.603136 0.040234 0.126101
C56   C     C_3   0.925689 0.482797 0.153774 -0.663303
H24   H     H_    0.895827 0.473359 0.198145 0.215164
H25   H     H_    0.924702 0.349605 0.117925 0.178443
H26   H     H_    0.972845 0.511196 0.198037 0.214062
O23   O     O_3   0.424107 0.523314 0.675145 -0.571207
C57   C     C_3   0.446575 0.346811 0.706250 0.078336
H27   H     H_    0.476161 0.292836 0.666834 0.122366
H28   H     H_    0.408651 0.248859 0.699442 0.130732
C58   C     C_3   0.484313 0.358020 0.808047 -0.689741
H29   H     H_    0.455524 0.402516 0.850427 0.227800
H30   H     H_    0.503933 0.221369 0.832494 0.177390
H31   H     H_    0.521857 0.457781 0.817071 0.219543
O24   O     O_3   0.593014 0.304389 0.371140 -0.567419
C59   C     C_3   0.596514 0.134669 0.417596 0.102437
H32   H     H_    0.567513 0.134893 0.463857 0.122184
H33   H     H_    0.644181 0.103009 0.459531 0.126257
C60   C     C_3   0.574207 0.982795 0.346345 -0.663298
H34   H     H_    0.603819 0.973441 0.301583 0.215115
H35   H     H_    0.575352 0.849568 0.382224 0.178519
H36   H     H_    0.526958 0.011184 0.302469 0.214010

loop_
_geom_bond_atom_site_label_1
_geom_bond_atom_site_label_2
_ccdc_geom_bond_type
O17   V3    S    
O1    C5    A    
O22   C55   S    
C47   C51   T    
O19   V1    S    
C9    C21   A    
O3    C7    A    
C10   C18   A    
O15   V3    S    
C54   H19   S    
C25   C33   A    
C33   C38   A    
O7    C3    A    
C56   H25   S    
C35   C40   A    
C26   C30   A    
C4    C45   S    
C36   C39   A    
C40   C44   A    
O9    V1    S    
C14   C18   A    
C1    C48   S    
O4    C8    A    
C25   C29   A    
C3    C46   S    
O1    V3    S    
O13   V1    S    
C55   C56   S    
O2    V4    S    
O3    V1    S    
C57   H27   S    
C40   H16   S    
C60   H36   S    
C28   C36   A    
C57   H28   S    
C17   H6    S    
C59   H32   S    
C1    O15   A    
C15   C31   A    
C48   C52   T    
C2    O16   A    
C7    C9    S    
O2    C6    A    
C16   H12   S    
C10   C22   A    
C21   C25   A    
C11   C19   A    
C16   C20   A    
C43   H3    S    
C44   H4    S    
C58   H31   S    
C13   C29   A    
C34   C37   A    
O11   C7    A    
C24   O23   S    
C38   H14   S    
C11   C23   A    
C35   C36   A    
O12   C8    A    
C55   H22   S    
O10   V2    S    
C54   H20   S    
O5    V1    S    
C56   H26   S    
C39   C43   A    
C2    C47   S    
O7    V3    S    
C38   C42   A    
O8    V4    S    
C46   C50   T    
C51   C52   S    
C45   C49   T    
O18   V4    S    
C15   C19   A    
C14   H10   S    
C53   C54   S    
C16   C32   A    
C32   C44   A    
C13   H9    S    
C8    C10   S    
C39   H15   S    
C59   C60   S    
C26   C34   A    
C20   H7    S    
C55   H23   S    
O5    C1    A    
C31   C43   A    
C14   C30   A    
C23   O24   S    
O8    C4    A    
O9    C5    A    
O21   C53   S    
C53   H18   S    
C57   C58   S    
C60   H34   S    
C21   O22   S    
O14   V2    S    
O6    V2    S    
C12   C20   A    
C27   C35   A    
C54   H21   S    
C29   C41   A    
C58   H29   S    
O16   V4    S    
C19   H8    S    
C3    O13   A    
C18   H5    S    
O6    C2    A    
C23   C27   A    
O11   V3    S    
C30   C42   A    
O12   V4    S    
C6    C12   S    
C56   H24   S    
C22   C26   A    
C9    C17   A    
O10   C6    A    
O20   V2    S    
C5    C11   S    
C37   H13   S    
O24   C59   S    
C33   C34   A    
C42   H2    S    
C22   O21   S    
C41   H1    S    
C12   C24   A    
C27   C31   A    
C13   C17   A    
C53   H17   S    
C59   H33   S    
C60   H35   S    
C37   C41   A    
C24   C28   A    
C4    O14   A    
C49   C50   S    
O23   C57   S    
O4    V2    S    
C28   C32   A    
C15   H11   S    
C58   H30   S    
