data_mof_unit_59023.cif
_audit_creation_date              2012-10-26T19:42:18-0400
_audit_creation_method            fapswitch 2.2
_symmetry_space_group_name_H-M    P1
_symmetry_Int_Tables_number       1
_space_group_crystal_system       triclinic
_cell_length_a                    9.616584
_cell_length_b                    10.841212
_cell_length_c                    17.186592
_cell_angle_alpha                 93.104802
_cell_angle_beta                  86.218141
_cell_angle_gamma                 90.935321
_cell_volume                      1785.12306357

loop_
_atom_site_label
_atom_site_type_symbol
_atom_type_description
_atom_site_fract_x
_atom_site_fract_y
_atom_site_fract_z
_atom_type_partial_charge
C1    C     C_R   0.500733 0.736350 0.492215 0.550345
C2    C     C_R   0.523052 0.512029 0.265034 -0.075712
C3    C     C_R   0.250311 0.873586 0.448037 -0.086899
C4    C     C_R   0.481707 0.499762 0.649618 0.548646
C5    C     C_R   0.121222 0.930706 0.457563 -0.126821
C6    C     C_R   0.109881 0.046211 0.496160 -0.130644
C7    C     C_R   0.229558 0.109829 0.517953 -0.108253
C8    C     C_R   0.363808 0.058753 0.500567 0.017546
C9    C     C_R   0.370923 0.932441 0.476604 0.026437
C10   C     C_R   0.498192 0.869869 0.482541 -0.014784
C11   C     C_R   0.620991 0.937855 0.490799 -0.169947
C12   C     C_R   0.379679 0.575609 0.780759 -0.012495
C13   C     C_R   0.617982 0.064761 0.501487 -0.184605
C14   C     C_R   0.491134 0.127244 0.505980 -0.018260
C15   C     C_R   0.866729 0.338019 0.393387 -0.107395
C16   C     C_R   0.497459 0.262386 0.504050 0.531441
C17   C     C_R   0.943511 0.257896 0.340669 -0.043318
C18   C     C_R   0.087643 0.258175 0.343076 -0.171826
C19   C     C_R   0.153682 0.337542 0.395159 -0.109720
C20   C     C_R   0.079462 0.420764 0.447839 0.135100
C21   C     C_R   0.930322 0.421010 0.447376 0.125778
C22   C     C_R   0.924014 0.572249 0.552226 0.078551
C23   C     C_R   0.396963 0.542937 0.148984 0.250058
C24   C     C_R   0.071387 0.573234 0.550549 -0.014305
C25   C     C_R   0.517705 0.502305 0.349924 0.537640
C26   C     C_R   0.469689 0.495232 0.734100 -0.031938
C27   C     C_R   0.542700 0.403229 0.767452 -0.167836
C28   C     C_R   0.528347 0.389529 0.847156 -0.180537
C29   C     C_R   0.437796 0.465300 0.894007 0.009001
C30   C     C_R   0.357861 0.555012 0.861166 0.292835
C31   C     C_3   0.807745 0.379234 0.078600 -0.155223
C32   C     C_R   0.854315 0.649318 0.615907 0.078463
C33   C     C_R   0.843972 0.776768 0.608390 -0.083969
C34   C     C_R   0.399166 0.535293 0.230022 -0.147481
C35   C     C_R   0.793661 0.853683 0.671585 -0.141539
C36   C     C_R   0.761076 0.804532 0.744240 -0.141236
C37   C     C_R   0.779191 0.678627 0.753564 -0.134815
C38   C     C_R   0.827865 0.601628 0.689976 -0.081274
C39   C     C_R   0.873660 0.173390 0.283156 0.031939
C40   C     C_R   0.741499 0.120659 0.301810 -0.102648
C41   C     C_R   0.677423 0.040884 0.248030 -0.108153
C42   C     C_R   0.743812 0.012763 0.174718 -0.099173
C43   C     C_R   0.874373 0.064546 0.155031 -0.120569
C44   C     C_R   0.939048 0.144255 0.208677 -0.104592
C45   C     C_R   0.648519 0.502383 0.219137 -0.126722
C46   C     C_3   0.147288 0.563398 0.929852 -0.095738
C47   C     C_3   0.155515 0.518250 0.146863 -0.129995
C48   C     C_R   0.323562 0.688786 0.748081 0.059134
C49   C     C_R   0.414040 0.767075 0.705066 -0.083339
C50   C     C_R   0.367706 0.878546 0.679728 -0.104694
C51   C     C_R   0.229657 0.913274 0.696255 -0.104153
C52   C     C_R   0.137962 0.835903 0.737603 -0.121175
C53   C     C_R   0.183401 0.723360 0.762181 -0.057928
C54   C     C_R   0.649308 0.511433 0.138141 0.240470
C55   C     C_R   0.523670 0.531106 0.103302 0.055266
C56   C     C_2   0.439200 0.459205 0.978403 -0.092219
C57   C     C_2   0.524400 0.533892 0.018090 -0.036416
Cu1   Cu    Cu3+1 0.359340 0.500010 0.500010 0.904213
Cu2   Cu    Cu3+1 0.640660 0.499990 0.499990 0.924042
H1    H     H_    0.611387 0.341969 0.731512 0.124436
H2    H     H_    0.150731 0.194741 0.305457 0.119789
H3    H     H_    0.263523 0.328205 0.392311 0.193074
H4    H     H_    0.125001 0.632543 0.591964 0.139026
H5    H     H_    0.745525 0.487380 0.245688 0.143086
H6    H     H_    0.599231 0.593248 0.987351 0.142068
H7    H     H_    0.371074 0.393075 0.007923 0.117650
H8    H     H_    0.589468 0.320907 0.872656 0.117110
H9    H     H_    0.723223 0.326236 0.049892 0.119959
H10   H     H_    0.831479 0.336796 0.133491 0.131403
H11   H     H_    0.902679 0.373060 0.038338 0.116778
H12   H     H_    0.720199 0.892942 0.488314 0.132698
H13   H     H_    0.880434 0.816575 0.554464 0.090844
H14   H     H_    0.783997 0.951802 0.664866 0.107092
H15   H     H_    0.723599 0.864182 0.793431 0.117930
H16   H     H_    0.756470 0.640873 0.810105 0.117354
H17   H     H_    0.844989 0.504857 0.698334 0.103155
H18   H     H_    0.687723 0.139653 0.358067 0.108474
H19   H     H_    0.576188 0.000659 0.263367 0.115632
H20   H     H_    0.693965 0.951059 0.133108 0.120539
H21   H     H_    0.925322 0.043509 0.097917 0.109790
H22   H     H_    0.038812 0.185095 0.190973 0.090892
H23   H     H_    0.254681 0.784651 0.416417 0.145017
H24   H     H_    0.068213 0.628757 0.956803 0.159880
H25   H     H_    0.166733 0.495307 0.973468 0.141276
H26   H     H_    0.101668 0.514103 0.878794 0.069789
H27   H     H_    0.072902 0.519401 0.105015 0.163595
H28   H     H_    0.115857 0.572865 0.200004 0.134331
H29   H     H_    0.171626 0.419999 0.159596 0.091754
H30   H     H_    0.521028 0.742212 0.691312 0.134489
H31   H     H_    0.439499 0.938647 0.648162 0.120117
H32   H     H_    0.193854 0.000243 0.677386 0.113863
H33   H     H_    0.032047 0.864233 0.751639 0.126560
H34   H     H_    0.029443 0.883828 0.436802 0.109580
H35   H     H_    0.108655 0.664351 0.792002 0.119543
H36   H     H_    0.008520 0.087829 0.507834 0.109433
H37   H     H_    0.213344 0.196432 0.550892 0.149692
H38   H     H_    0.716418 0.114068 0.505340 0.134470
H39   H     H_    0.757592 0.332404 0.390010 0.183442
H40   H     H_    0.304317 0.550082 0.266395 0.138703
N1    N     N_R   0.852190 0.498790 0.499250 -0.246831
N2    N     N_R   0.148060 0.498710 0.499220 -0.260026
O1    O     O_R   0.381190 0.680360 0.500010 -0.506190
O2    O     O_3   0.269774 0.630912 0.908586 -0.544575
O3    O     O_3   0.277326 0.573771 0.112969 -0.552226
O4    O     O_R   0.618760 0.680340 0.500000 -0.493638
O5    O     O_R   0.367440 0.500030 0.613600 -0.497509
O6    O     O_R   0.605010 0.500010 0.613590 -0.493693
O7    O     O_R   0.381240 0.319660 0.500000 -0.531185
O8    O     O_R   0.618810 0.319640 0.499990 -0.528500
O9    O     O_R   0.394990 0.499990 0.386410 -0.530188
O10   O     O_R   0.632560 0.499970 0.386400 -0.520536
O11   O     O_3   0.773544 0.504679 0.092907 -0.587776

loop_
_geom_bond_atom_site_label_1
_geom_bond_atom_site_label_2
_ccdc_geom_bond_type
C40   C41   A    
C41   C42   A    
C19   C20   A    
C12   C48   S    
C7    C8    A    
C38   H17   S    
C7    H37   S    
C26   C27   A    
C29   C30   A    
C22   C32   S    
C36   C37   A    
C18   C19   A    
C27   H1    S    
C5    C6    A    
C33   C35   A    
C11   H12   S    
C19   H3    S    
C56   C57   D    
C24   N2    A    
C17   C39   S    
C33   H13   S    
C51   H32   S    
C50   H31   S    
C31   H11   S    
C35   H14   S    
C35   C36   A    
C8    C9    A    
C30   O2    S    
Cu2   O10   S    
C31   O11   S    
Cu1   O1    S    
C32   C38   A    
C9    C10   A    
Cu1   O7    S    
C46   H26   S    
C2    C34   A    
C37   H16   S    
C42   H20   S    
C13   C14   A    
Cu2   N1    S    
C31   H9    S    
C16   O8    A    
C50   C51   A    
C2    C45   A    
C48   C53   A    
C4    O6    A    
C22   N1    A    
C51   C52   A    
C47   H27   S    
C28   H8    S    
C44   H22   S    
C57   H6    S    
C41   H19   S    
C21   N1    A    
C16   O7    A    
C20   N2    A    
Cu1   Cu2   S    
C4    O5    A    
Cu2   O6    S    
C12   C26   A    
Cu1   O5    S    
C47   H28   S    
C43   C44   A    
C37   C38   A    
C3    C9    A    
C4    C26   S    
C23   O3    S    
C31   H10   S    
C23   C34   A    
C3    H23   S    
C17   C18   A    
C54   O11   S    
Cu1   N2    S    
Cu2   O4    S    
C6    C7    A    
C36   H15   S    
C25   O9    A    
C46   H25   S    
C48   C49   A    
C45   C54   A    
C49   C50   A    
C24   H4    S    
C55   C57   S    
C14   C16   S    
C52   H33   S    
C42   C43   A    
C15   H39   S    
C39   C40   A    
C52   C53   A    
C15   C17   A    
C54   C55   A    
C28   C29   A    
C8    C14   A    
C47   O3    S    
C12   C30   A    
C53   H35   S    
Cu1   O9    S    
C1    C10   S    
C49   H30   S    
C3    C5    A    
C5    H34   S    
C18   H2    S    
C23   C55   A    
C39   C44   A    
C29   C56   S    
C34   H40   S    
C46   O2    S    
C45   H5    S    
C32   C33   A    
C43   H21   S    
C47   H29   S    
C11   C13   A    
C56   H7    S    
Cu2   O8    S    
C2    C25   S    
C22   C24   A    
C13   H38   S    
C10   C11   A    
C25   O10   A    
C46   H24   S    
C15   C21   A    
C20   C21   A    
C6    H36   S    
C27   C28   A    
C40   H18   S    
C1    O1    A    
C1    O4    A    
