data_mof_unit_38033.cif
_audit_creation_date              2012-10-26T21:13:40-0400
_audit_creation_method            fapswitch 2.2
_symmetry_space_group_name_H-M    P1
_symmetry_Int_Tables_number       1
_space_group_crystal_system       triclinic
_cell_length_a                    9.060069
_cell_length_b                    10.898574
_cell_length_c                    9.592531
_cell_angle_alpha                 89.192795
_cell_angle_beta                  89.965651
_cell_angle_gamma                 90.168682
_cell_volume                      947.085791441

loop_
_atom_site_label
_atom_site_type_symbol
_atom_type_description
_atom_site_fract_x
_atom_site_fract_y
_atom_site_fract_z
_atom_type_partial_charge
C1    C     C_R   0.500771 0.263121 0.500689 0.550182
C2    C     C_R   0.629609 0.504081 0.926361 0.166152
C3    C     C_3   0.744799 0.603234 0.920729 -0.084319
C4    C     C_R   0.220853 0.499986 0.499978 0.564050
C5    C     C_3   0.748288 0.597878 0.080519 -0.088420
C6    C     C_R   0.498216 0.737412 0.498159 0.558018
C7    C     C_R   0.779136 0.499905 0.499965 0.571697
C8    C     C_1   0.065634 0.499877 0.499864 -0.000373
C9    C     C_1   0.934384 0.499802 0.499804 0.025787
C10   C     C_R   0.483647 0.059847 0.618393 -0.003434
C11   C     C_R   0.502014 0.131042 0.499195 -0.000967
C12   C     C_R   0.513663 0.941216 0.366144 0.040440
C13   C     C_R   0.518544 0.069784 0.372112 -0.128668
C14   C     C_2   0.891139 0.551350 0.143101 0.599922
C15   C     C_2   0.528275 0.889331 0.225328 0.581220
C16   C     C_2   0.310442 0.867126 0.807037 0.627592
C17   C     C_2   0.885502 0.564445 0.849483 0.600581
C18   C     C_R   0.495544 0.870720 0.492325 -0.007378
C19   C     C_R   0.479378 0.936136 0.614709 -0.002822
C20   C     C_3   0.457284 0.923336 0.768398 -0.054865
C21   C     C_3   0.461255 0.064996 0.772150 -0.246332
C22   C     C_R   0.629856 0.502048 0.073591 0.167906
C23   C     C_R   0.372634 0.486818 0.074250 0.039420
C24   C     C_R   0.372783 0.486145 0.926295 0.029554
Cu1   Cu    Cu3+1 0.499990 0.499980 0.640670 1.010579
Cu2   Cu    Cu3+1 0.500010 0.500020 0.359330 1.034859
H1    H     H_    0.708078 0.682499 0.130736 0.139465
H2    H     H_    0.553050 0.878888 0.820277 0.112100
H3    H     H_    0.354952 0.109264 0.799829 0.168259
H4    H     H_    0.022855 0.426699 0.798041 0.324087
H5    H     H_    0.559744 0.101959 0.826586 0.154364
H6    H     H_    0.268597 0.477838 0.128222 0.149367
H7    H     H_    0.268968 0.476656 0.872660 0.139549
H8    H     H_    0.533014 0.121852 0.275836 0.171616
H9    H     H_    0.700163 0.691354 0.879041 0.104729
H10   H     H_    0.014641 0.406468 0.204461 0.325714
H11   H     H_    0.646326 0.885708 0.047122 0.324053
H12   H     H_    0.202006 0.740649 0.923733 0.379205
N1    N     N_R   0.500920 0.500930 0.147930 -0.245467
N2    N     N_R   0.500930 0.500890 0.852020 -0.248351
O1    O     O_R   0.500000 0.319640 0.618810 -0.501569
O2    O     O_R   0.913981 0.425426 0.163646 -0.655237
O3    O     O_2   0.429854 0.825771 0.177187 -0.447669
O4    O     O_R   0.649954 0.922549 0.143333 -0.694182
O5    O     O_2   0.196282 0.904884 0.753732 -0.471191
O6    O     O_R   0.306068 0.770662 0.904265 -0.645679
O7    O     O_2   0.962408 0.641796 0.791029 -0.507943
O8    O     O_R   0.927513 0.440962 0.850450 -0.665766
O9    O     O_R   0.500020 0.319680 0.381230 -0.511880
O10   O     O_R   0.288380 0.499980 0.618770 -0.507707
O11   O     O_R   0.288400 0.500020 0.381190 -0.500235
O12   O     O_R   0.499980 0.680320 0.618770 -0.496489
O13   O     O_R   0.500000 0.680360 0.381190 -0.466789
O14   O     O_R   0.711600 0.499980 0.618810 -0.486499
O15   O     O_R   0.711620 0.500020 0.381230 -0.489044
O16   O     O_2   0.987828 0.624753 0.173320 -0.501192

loop_
_geom_bond_atom_site_label_1
_geom_bond_atom_site_label_2
_ccdc_geom_bond_type
C16   O5    D    
C2    C22   A    
C14   O16   D    
C23   C24   A    
C17   O8    S    
C3    H9    S    
C11   C13   A    
H10   O2    S    
C24   H7    S    
C1    C11   S    
C12   C15   S    
C7    O15   A    
C10   C19   A    
C16   C20   S    
C23   H6    S    
C20   C21   S    
H11   O4    S    
C2    C3    S    
Cu1   O12   S    
C15   O3    D    
C13   H8    S    
C10   C21   S    
Cu1   O1    S    
Cu2   O11   S    
Cu2   O15   S    
C21   H5    S    
C5    C14   S    
C1    O9    A    
Cu1   O14   S    
C23   N1    A    
C22   N1    A    
C1    O1    A    
C24   N2    A    
C15   O4    S    
C3    C17   S    
Cu1   N2    S    
C6    C18   S    
Cu2   N1    S    
H12   O6    S    
C6    O13   A    
C10   C11   A    
C4    O11   A    
C12   C18   A    
Cu2   O13   S    
C2    N2    A    
C12   C13   A    
C18   C19   A    
H4    O8    S    
C16   O6    S    
C4    C8    S    
C7    C9    S    
Cu1   O10   S    
C20   H2    S    
C7    O14   A    
C6    O12   A    
Cu1   Cu2   S    
C5    H1    S    
C14   O2    S    
C21   H3    S    
C5    C22   S    
C19   C20   S    
C17   O7    D    
C4    O10   A    
C8    C9    T    
C3    C5    S    
Cu2   O9    S    
