data_mof_unit_22006.cif
_audit_creation_date              2012-12-10T20:35:46-0500
_audit_creation_method            fapswitch 2.2
_symmetry_space_group_name_H-M    P1
_symmetry_Int_Tables_number       1
_space_group_crystal_system       triclinic
_cell_length_a                    15.750282
_cell_length_b                    10.761086
_cell_length_c                    9.895749
_cell_angle_alpha                 88.754188
_cell_angle_beta                  90.357535
_cell_angle_gamma                 91.112205
_cell_volume                      1676.49109349

loop_
_atom_site_label
_atom_site_type_symbol
_atom_type_description
_atom_site_fract_x
_atom_site_fract_y
_atom_site_fract_z
_atom_type_partial_charge
C1    C     C_R   0.497062 0.260167 0.501134 0.944067
C2    C     C_3   0.951895 0.416548 0.632808 0.321970
C3    C     C_3   0.916617 0.476797 0.499463 -0.001470
C4    C     C_3   0.949482 0.613615 0.484803 -0.569665
C5    C     C_3   0.047358 0.619823 0.462474 0.701888
C6    C     C_1   0.825009 0.478628 0.500174 0.134343
C7    C     C_1   0.173876 0.488822 0.497009 0.065089
C8    C     C_1   0.249261 0.493209 0.497967 -0.190972
C9    C     C_R   0.473626 0.058533 0.619236 -0.003501
C10   C     C_R   0.485781 0.128495 0.500555 -0.147806
C11   C     C_R   0.486707 0.069005 0.376214 -0.298118
C12   C     C_R   0.338272 0.498708 0.499553 0.876157
C13   C     C_R   0.495681 0.941544 0.372856 0.491962
C14   C     C_R   0.490220 0.871730 0.494998 -0.229455
C15   C     C_R   0.472486 0.931098 0.615288 -0.169541
C16   C     C_3   0.516286 0.918879 0.750873 0.281289
C17   C     C_3   0.517586 0.060617 0.754303 0.401208
C18   C     C_R   0.444005 0.426498 0.072295 0.154259
C19   C     C_R   0.562030 0.561933 0.071512 0.512542
C20   C     C_R   0.560073 0.564439 0.926632 -0.222692
C21   C     C_R   0.443524 0.427428 0.930368 0.331830
C22   C     C_3   0.349086 0.433416 0.925075 -0.541579
C23   C     C_R   0.499828 0.740073 0.498420 0.879171
C24   C     C_3   0.349932 0.430284 0.078701 -0.500857
C25   C     C_R   0.661540 0.497010 0.500371 0.894105
C26   C     C_3   0.049391 0.445045 0.642474 0.210103
C27   C     C_3   0.047210 0.385659 0.397313 0.215284
C28   C     C_3   0.950296 0.402916 0.377882 -0.057090
C29   C     C_1   0.749989 0.486169 0.501067 -0.148638
C30   C     C_3   0.082053 0.486417 0.497788 -0.029812
H1    H     H_    0.942201 0.313844 0.623539 0.059621
H2    H     H_    0.916659 0.662057 0.399517 0.174932
H3    H     H_    0.491997 0.120915 0.281413 0.209649
H4    H     H_    0.580652 0.879235 0.741866 0.116863
H5    H     H_    0.079572 0.355869 0.674150 -0.014775
H6    H     H_    0.605325 0.621259 0.870031 0.160410
H7    H     H_    0.326872 0.522811 0.880706 0.197679
H8    H     H_    0.319322 0.348963 0.880949 0.231981
H9    H     H_    0.326540 0.516805 0.123720 0.228306
H10   H     H_    0.323401 0.342580 0.123832 0.226934
H11   H     H_    0.056485 0.293737 0.450123 0.063456
H12   H     H_    0.938110 0.456722 0.282651 0.208947
H13   H     H_    0.932894 0.663741 0.578035 0.252203
N1    N     N_R   0.499430 0.499140 0.142800 -0.152291
N2    N     N_R   0.499430 0.499180 0.857150 -0.128360
O1    O     O_R   0.500010 0.316790 0.614690 -0.564050
O2    O     O_R   0.500000 0.316760 0.385350 -0.638576
O3    O     O_R   0.377150 0.500020 0.614720 -0.637749
O4    O     O_R   0.377140 0.499990 0.385380 -0.610472
O5    O     O_R   0.500000 0.683240 0.614650 -0.632765
O6    O     O_R   0.499990 0.683210 0.385310 -0.538192
O7    O     O_R   0.622860 0.500010 0.614620 -0.598612
O8    O     O_R   0.622850 0.499980 0.385280 -0.586118
Zn1   Zn    Zn3+2 0.500010 0.500020 0.653130 0.983318
Zn2   Zn    Zn3+2 0.499990 0.499980 0.346870 1.011661
O9    O     O_3   0.062728 0.539908 0.738552 -0.503766
C31   C     C_3   0.139796 0.527909 0.810715 0.098792
H14   H     H_    0.157082 0.429744 0.832235 0.112584
H15   H     H_    0.191940 0.575536 0.753786 0.168645
C32   C     C_3   0.130494 0.591537 0.945000 -0.714971
H16   H     H_    0.189810 0.583416 0.005215 0.216200
H17   H     H_    0.116647 0.691483 0.927825 0.264764
H18   H     H_    0.077483 0.546608 0.002508 0.300853
O10   O     O_3   0.908215 0.459831 0.747286 -0.553576
C33   C     C_3   0.912358 0.370534 0.854012 0.157631
H19   H     H_    0.979306 0.349772 0.880365 0.136785
H20   H     H_    0.878258 0.283012 0.826244 0.152097
C34   C     C_3   0.870071 0.420606 0.977953 -0.785819
H21   H     H_    0.801627 0.432419 0.956012 0.239586
H22   H     H_    0.876937 0.353800 0.064124 0.243864
H23   H     H_    0.899843 0.511128 0.005051 0.266873
O11   O     O_3   0.518970 0.889492 0.252319 -0.563710
C35   C     C_3   0.606874 0.913515 0.231213 0.119073
H24   H     H_    0.643323 0.834823 0.274083 0.187794
H25   H     H_    0.632034 0.999835 0.279242 0.121804
C36   C     C_3   0.624088 0.927967 0.080675 -0.647205
H26   H     H_    0.590260 0.009972 0.039669 0.286165
H27   H     H_    0.693138 0.942591 0.063240 0.192061
H28   H     H_    0.602188 0.844122 0.026571 0.293345
O12   O     O_3   0.471433 0.861576 0.861435 -0.575989
C37   C     C_3   0.385173 0.831601 0.835106 0.181165
H29   H     H_    0.379854 0.752156 0.765599 0.159284
H30   H     H_    0.350575 0.912446 0.791687 0.158467
C38   C     C_3   0.342824 0.794350 0.967795 -0.774521
H31   H     H_    0.346038 0.873136 0.038448 0.291994
H32   H     H_    0.275266 0.769099 0.949163 0.190752
H33   H     H_    0.375601 0.713764 0.014763 0.253920
Br1   Br    Br    0.447493 0.130799 0.893109 -0.547664
Br2   Br    Br    0.632366 0.131672 0.750877 -0.543736
O13   O     O_3   0.621392 0.632281 0.141452 -0.588185
C39   C     C_3   0.704022 0.591167 0.113748 0.080032
H34   H     H_    0.719913 0.604103 0.005092 0.136064
H35   H     H_    0.710190 0.491496 0.144454 0.172702
C40   C     C_3   0.769050 0.667159 0.192981 -0.821994
H36   H     H_    0.750932 0.670827 0.300809 0.246448
H37   H     H_    0.832415 0.624614 0.186076 0.222352
H38   H     H_    0.773495 0.763352 0.150717 0.246636
O14   O     O_3   0.088243 0.392171 0.269650 -0.551770
C41   C     C_3   0.121810 0.275636 0.236516 0.163887
H39   H     H_    0.076043 0.197331 0.257326 0.167732
H40   H     H_    0.181368 0.260083 0.294968 0.128881
C42   C     C_3   0.141457 0.274293 0.086725 -0.855244
H41   H     H_    0.180958 0.356545 0.058330 0.270178
H42   H     H_    0.176139 0.188757 0.062650 0.219444
H43   H     H_    0.081590 0.276184 0.027489 0.246052
Br3   Br    Br    0.893054 0.241329 0.356121 -0.602649
O15   O     O_3   0.086830 0.706598 0.551411 -0.576231
C43   C     C_3   0.068105 0.832228 0.520128 0.144095
H44   H     H_    0.003475 0.844794 0.476540 0.152875
H45   H     H_    0.115651 0.870817 0.447245 0.179610
C44   C     C_3   0.074658 0.906810 0.648692 -0.825348
H46   H     H_    0.139430 0.899372 0.692887 0.251140
H47   H     H_    0.061804 0.006164 0.625496 0.204982
H48   H     H_    0.027531 0.870726 0.723565 0.272498
Br4   Br    Br    0.072937 0.667474 0.272852 -0.595801

loop_
_geom_bond_atom_site_label_1
_geom_bond_atom_site_label_2
_ccdc_geom_bond_type
C27   O14   S    
C17   Br1   S    
C35   H24   S    
C44   H46   S    
C36   H28   S    
C12   O3    A    
C3    C6    S    
C12   O4    A    
C31   H14   S    
C7    C8    T    
C43   H44   S    
O3    Zn1   S    
O5    Zn1   S    
C32   H18   S    
C18   C24   S    
C3    C28   S    
C36   H27   S    
O12   C37   S    
O14   C41   S    
C1    O1    A    
C31   H15   S    
C15   C16   S    
C18   C21   A    
C24   H9    S    
O9    C31   S    
C42   H43   S    
C32   H17   S    
C16   H4    S    
C19   C20   A    
C28   Br3   S    
C34   H21   S    
C33   H20   S    
C41   C42   S    
O15   C43   S    
C38   H33   S    
C9    C10   A    
C20   N2    A    
C7    C30   S    
C21   C22   S    
C5    Br4   S    
C27   C30   S    
C35   H25   S    
C40   H36   S    
C37   H30   S    
O7    Zn1   S    
C37   H29   S    
C21   N2    A    
O8    Zn2   S    
C25   C29   S    
C11   H3    S    
C17   Br2   S    
C36   H26   S    
C2    O10   S    
C44   H47   S    
C39   H34   S    
C1    O2    A    
C23   O5    A    
C40   H38   S    
O4    Zn2   S    
C22   H7    S    
C32   H16   S    
C16   O12   S    
C14   C23   S    
C40   H37   S    
C18   N1    A    
C39   H35   S    
C27   H11   S    
C23   O6    A    
C41   H39   S    
C8    C12   S    
C33   C34   S    
O1    Zn1   S    
C2    C26   S    
C38   H31   S    
C42   H42   S    
C4    H2    S    
C9    C17   S    
C41   H40   S    
N2    Zn1   S    
C26   C30   S    
C35   C36   S    
C22   C24   S    
C3    C4    S    
C37   C38   S    
C19   N1    A    
O2    Zn2   S    
C5    C30   S    
C5    O15   S    
C1    C10   S    
C38   H32   S    
O11   C35   S    
C31   C32   S    
C26   O9    S    
C13   O11   S    
C43   C44   S    
O10   C33   S    
C2    C3    S    
C9    C15   A    
C25   O7    A    
C19   O13   S    
C39   C40   S    
C11   C13   A    
N1    Zn2   S    
O13   C39   S    
C16   C17   S    
C34   H23   S    
C28   H12   S    
C24   H10   S    
C4    H13   S    
C43   H45   S    
C44   H48   S    
O6    Zn2   S    
C42   H41   S    
C10   C11   A    
C20   H6    S    
C26   H5    S    
C4    C5    S    
C6    C29   T    
C34   H22   S    
C33   H19   S    
C27   C28   S    
C14   C15   A    
C2    H1    S    
C13   C14   A    
C25   O8    A    
C22   H8    S    
