data_mof_unit_22600.cif
_audit_creation_date              2013-03-05T16:33:33-0500
_audit_creation_method            fapswitch 2.2
_symmetry_space_group_name_H-M    P1
_symmetry_Int_Tables_number       1
_space_group_crystal_system       triclinic
_cell_length_a                    10.759907
_cell_length_b                    10.958103
_cell_length_c                    9.586904
_cell_angle_alpha                 90.130337
_cell_angle_beta                  90.37286
_cell_angle_gamma                 91.977908
_cell_volume                      1129.67337823

loop_
_atom_site_label
_atom_site_type_symbol
_atom_site_description
_atom_site_fract_x
_atom_site_fract_y
_atom_site_fract_z
_atom_type_partial_charge
O1    O     O_R   0.500000 0.319640 0.618810 -0.497831
O2    O     O_R   0.500010 0.319680 0.381230 -0.571128
C1    C     C_R   0.493086 0.262278 0.500754 0.869257
O3    O     O_R   0.319650 0.499970 0.618810 -0.574473
O4    O     O_R   0.319660 0.500010 0.381230 -0.540028
C2    C     C_R   0.262418 0.497834 0.499131 0.848071
Cu1   Cu    Cu3+1 0.499990 0.499980 0.640670 1.093837
Cu2   Cu    Cu3+1 0.500010 0.500020 0.359330 1.056539
O5    O     O_R   0.499990 0.680320 0.618770 -0.551282
O6    O     O_R   0.500000 0.680360 0.381190 -0.557092
O7    O     O_R   0.680340 0.499990 0.618770 -0.524933
O8    O     O_R   0.680350 0.500030 0.381190 -0.608029
C3    C     C_R   0.488428 0.736466 0.499672 0.855690
C4    C     C_R   0.737112 0.501888 0.500169 0.791268
C5    C     C_R   0.058271 0.394613 0.532396 -0.054480
C6    C     C_R   0.128812 0.499018 0.496583 -0.045870
C7    C     C_R   0.068847 0.607525 0.466564 -0.067696
H1    H     H_    0.121682 0.689983 0.441132 0.210590
C8    C     C_R   0.939236 0.608872 0.465989 -0.092960
H2    H     H_    0.893097 0.691818 0.438232 0.159948
C9    C     C_R   0.870040 0.502906 0.501205 0.013246
C10   C     C_R   0.930133 0.397969 0.539844 0.109412
C11   C     C_3   0.909716 0.273190 0.480529 -0.510369
C12   C     C_3   0.049823 0.269988 0.465720 0.269987
H3    H     H_    0.872175 0.208021 0.559710 0.210046
H4    H     H_    0.856515 0.273111 0.380595 0.233307
H5    H     H_    0.091138 0.198731 0.530181 0.174137
C13   C     C_R   0.495804 0.060818 0.626001 -0.041987
C14   C     C_R   0.479251 0.128503 0.503513 -0.125167
C15   C     C_R   0.450773 0.064140 0.380383 -0.195233
H6    H     H_    0.430115 0.114418 0.286999 0.254282
C16   C     C_R   0.439004 0.936062 0.378165 0.312610
C17   C     C_R   0.471646 0.868958 0.499428 -0.113048
C18   C     C_R   0.494780 0.934400 0.622910 -0.134852
C19   C     C_3   0.438864 0.921856 0.765907 0.177320
C20   C     C_3   0.437090 0.063124 0.768856 0.587564
H7    H     H_    0.507170 0.883572 0.838953 0.154567
C21   C     C_R   0.607584 0.522012 0.075338 0.191230
N1    N     N_R   0.500790 0.500930 0.147930 -0.187263
C22   C     C_R   0.396425 0.467370 0.073660 0.060825
C23   C     C_R   0.396742 0.466584 0.926086 0.095560
H8    H     H_    0.310186 0.446763 0.873275 0.146874
N2    N     N_R   0.500790 0.500890 0.852020 -0.187344
C24   C     C_R   0.607888 0.525142 0.927812 0.257698
C25   C     C_3   0.683786 0.643866 0.934360 0.218405
C26   C     C_3   0.689367 0.632124 0.091877 -0.485096
H9    H     H_    0.630767 0.723231 0.898896 0.133357
H10   H     H_    0.781090 0.607630 0.135688 0.246591
H11   H     H_    0.645386 0.706829 0.149002 0.219481
S1    S     S_3+6 0.284299 0.129199 0.774678 0.078831
O9    O     O_2   0.194683 0.061658 0.679487 -0.255914
O10   O     O_2   0.235735 0.124017 0.921282 -0.156564
O11   O     O_3   0.286864 0.274293 0.724081 -0.571088
H12   H     H_    0.201411 0.301053 0.741730 0.343022
S2    S     S_3+6 0.543659 0.126335 0.898444 0.011838
O12   O     O_2   0.590376 0.251543 0.857854 -0.266941
O13   O     O_2   0.478725 0.134031 0.035965 -0.285716
O14   O     O_3   0.667143 0.037244 0.915601 -0.562066
H13   H     H_    0.713549 0.070393 0.997660 0.393485
H14   H     H_    0.310980 0.444596 0.127265 0.184319
S3    S     S_3+6 0.835559 0.640050 0.859599 0.034512
O15   O     O_2   0.872121 0.510343 0.837056 -0.298569
O16   O     O_2   0.833946 0.707228 0.723407 -0.287738
O17   O     O_3   0.939722 0.710784 0.966555 -0.464855
H15   H     H_    0.021607 0.696398 0.924116 0.393923
S4    S     S_3+6 0.097316 0.265129 0.286823 0.042797
O18   O     O_2   0.236194 0.258068 0.280797 -0.288866
O19   O     O_2   0.038931 0.153451 0.218488 -0.197596
O20   O     O_3   0.051938 0.390557 0.202249 -0.528527
H16   H     H_    0.071869 0.375758 0.102974 0.380253
S5    S     S_3+6 0.363338 0.869713 0.229665 0.090703
O21   O     O_2   0.289821 0.755999 0.268193 -0.263102
O22   O     O_2   0.275650 0.959268 0.168373 -0.132574
O23   O     O_3   0.468016 0.835181 0.108274 -0.526665
H17   H     H_    0.532601 0.901659 0.113987 0.347079
S6    S     S_3+6 0.293537 0.832757 0.774586 0.091882
O24   O     O_2   0.208849 0.882021 0.883403 -0.133935
O25   O     O_2   0.227922 0.828463 0.635716 -0.282390
O26   O     O_3   0.323467 0.690439 0.821572 -0.524888
H18   H     H_    0.240276 0.649853 0.831306 0.349817

loop_
_geom_bond_atom_site_label_1
_geom_bond_atom_site_label_2
_geom_bond_distance
_ccdc_geom_bond_type
S4    O19   1.503136 D    
S2    O12   1.497994 D    
C22   H14   1.078211 S    
C23   H8    1.072522 S    
C8    H2    1.083495 S    
S6    O26   1.665748 S    
Cu1   Cu2   2.697182 S    
O11   H12   0.990176 S    
C3    C17   1.469222 S    
C26   H11   1.105477 S    
C4    C9    1.429922 S    
C13   C14   1.403967 A    
C8    C9    1.400733 A    
S6    O25   1.502764 D    
O4    C2    1.290615 A    
O7    C4    1.294090 A    
S4    O20   1.682601 S    
C5    C6    1.395758 A    
S3    O16   1.500632 D    
C18   C19   1.505361 S    
C11   H4    1.112823 S    
C1    C14   1.468653 S    
O5    C3    1.305496 A    
C5    C10   1.382814 A    
C19   C20   1.548998 S    
C6    C7    1.401800 A    
S1    O10   1.503166 D    
C11   C12   1.516740 S    
C12   H5    1.100821 S    
Cu2   N1    2.026788 S    
Cu1   N2    2.026155 S    
C12   S4    1.793965 S    
S4    O18   1.500457 D    
C13   C18   1.385223 A    
C9    C10   1.388431 A    
C23   N2    1.371642 A    
O20   H16   0.991191 S    
O3    Cu1   1.950366 S    
C7    H1    1.080019 S    
C16   S5    1.776960 S    
C25   H9    1.109262 S    
C26   H10   1.111703 S    
C19   S6    1.817146 S    
S1    O11   1.662729 S    
O23   H17   0.990439 S    
S6    O24   1.501288 D    
O3    C2    1.298408 A    
N1    C22   1.364967 A    
S5    O22   1.502628 D    
S1    O9    1.498869 D    
O14   H13   0.990570 S    
C25   C26   1.516841 S    
O1    C1    1.293847 A    
S3    O17   1.682202 S    
Cu1   O7    1.953228 S    
N2    C24   1.376089 A    
C21   C24   1.414831 A    
C14   C15   1.400484 A    
S5    O23   1.676490 S    
C15   H6    1.078217 S    
Cu2   O8    1.950366 S    
C17   C18   1.399141 A    
C5    C12   1.506180 S    
O8    C4    1.290137 A    
S2    O13   1.499667 D    
C20   S1    1.820263 S    
C24   C25   1.512963 S    
Cu1   O5    1.987782 S    
C22   C23   1.414809 A    
C19   H7    1.105666 S    
O1    Cu1   1.986795 S    
O2    Cu2   1.987780 S    
O6    C3    1.299099 A    
O4    Cu2   1.953228 S    
C16   C17   1.425476 A    
O2    C1    1.309723 A    
S5    O21   1.500916 D    
C20   S2    1.805773 S    
O17   H15   0.990270 S    
C15   C16   1.404934 A    
C21   N1    1.360488 A    
C25   S3    1.789464 S    
C7    C8    1.395168 A    
C11   H3    1.111724 S    
S3    O15   1.503331 D    
C21   C26   1.476288 S    
C2    C6    1.438141 S    
O26   H18   0.990737 S    
C13   C20   1.512477 S    
Cu2   O6    1.986795 S    
S2    O14   1.683140 S    
C10   C11   1.488408 S    
