data_mof_unit_67123.cif
_audit_creation_date              2012-12-11T17:44:46-0500
_audit_creation_method            fapswitch 2.2
_symmetry_space_group_name_H-M    P1
_symmetry_Int_Tables_number       1
_space_group_crystal_system       triclinic
_cell_length_a                    8.20198
_cell_length_b                    12.66049
_cell_length_c                    14.959104
_cell_angle_alpha                 96.815619
_cell_angle_beta                  97.699158
_cell_angle_gamma                 98.595981
_cell_volume                      1506.74859241

loop_
_atom_site_label
_atom_site_type_symbol
_atom_type_description
_atom_site_fract_x
_atom_site_fract_y
_atom_site_fract_z
_atom_type_partial_charge
Ba1   Ba    Ba6+2 0.843760 0.550230 0.455610 1.692496
Ba2   Ba    Ba6+2 0.346080 0.449860 0.544400 1.670604
C1    C     C_3   0.626803 0.921612 0.153192 0.249520
C2    C     C_R   0.106899 0.466897 0.204385 -0.006727
C3    C     C_R   0.921088 0.478482 0.765880 -0.292047
C4    C     C_3   0.074463 0.771419 0.205083 0.362140
C5    C     C_R   0.820175 0.443827 0.827792 0.012480
C6    C     C_R   0.882614 0.457158 0.920315 -0.122831
C7    C     C_R   0.052524 0.499083 0.952822 0.003838
C8    C     C_R   0.149721 0.545875 0.890282 -0.025514
C9    C     C_R   0.125018 0.502006 0.046608 0.007324
C10   C     C_R   0.287366 0.563470 0.077883 0.012890
C11   C     C_R   0.377202 0.611297 0.015322 -0.046827
C12   C     C_3   0.567587 0.823875 0.197918 0.285950
C13   C     C_R   0.309617 0.603738 0.924173 0.003918
C14   C     C_R   0.046265 0.441860 0.109527 -0.085370
C15   C     C_R   0.261141 0.533142 0.233372 -0.266727
C16   C     C_3   0.061398 0.804566 0.110235 -0.297976
C17   C     C_R   0.082282 0.534405 0.795666 0.031299
C18   C     C_R   0.765477 0.180893 0.537007 -0.280223
C19   C     C_R   0.421650 0.806232 0.457875 -0.275790
C20   C     C_R   0.386927 0.985241 0.428214 -0.093485
C21   C     C_R   0.322726 0.876777 0.422471 -0.019061
C22   C     C_R   0.579675 0.845581 0.508885 0.077495
C23   C     C_3   0.478452 0.272914 0.254735 0.280470
C24   C     C_R   0.644266 0.958030 0.519035 -0.063886
C25   C     C_R   0.546814 0.027776 0.476428 -0.056643
C26   C     C_R   0.609996 0.139083 0.485401 0.043323
C27   C     C_R   0.865822 0.113108 0.574077 -0.008945
C28   C     C_3   0.269581 0.778142 0.648921 0.353615
C29   C     C_R   0.803962 0.003151 0.568573 -0.090354
C30   C     C_3   0.346455 0.897160 0.671678 -0.356313
C31   C     C_3   0.932857 0.222997 0.353315 0.300747
C32   C     C_3   0.890056 0.100888 0.334630 -0.362214
C33   C     C_3   0.842660 0.756351 0.739526 0.689903
C34   C     C_3   0.355577 0.250315 0.165517 0.589044
C35   C     C_3   0.785910 0.708613 0.821225 -0.297999
C36   C     C_2   0.932666 0.337612 0.076268 0.880020
C37   C     C_3   0.142697 0.213763 0.791496 0.276078
C38   C     C_3   0.191876 0.178179 0.883098 -0.169514
C39   C     C_3   0.626160 0.176671 0.759607 0.295554
C40   C     C_3   0.680003 0.089760 0.813301 -0.321973
C41   C     C_R   0.357880 0.573495 0.170959 0.013443
Cl1   Cl    Cl    0.988418 0.876374 0.781787 -0.716614
Cl2   Cl    Cl    0.579471 0.892065 0.032050 -0.660562
Cl3   Cl    Cl    0.423408 0.336857 0.088067 -0.708168
Cl4   Cl    Cl    0.335275 0.114698 0.111682 -0.627377
H1    H     H_    0.574877 0.849272 0.272353 -0.040583
H2    H     H_    0.900444 0.696765 0.699538 -0.047175
H3    H     H_    0.563707 0.989017 0.176274 0.092693
H4    H     H_    0.725534 0.766599 0.861748 0.181318
H5    H     H_    0.893983 0.689928 0.865949 0.068325
H6    H     H_    0.693644 0.633889 0.797452 0.064498
H7    H     H_    0.436334 0.792552 0.166814 -0.013353
H8    H     H_    0.466016 0.353056 0.290238 -0.030163
H9    H     H_    0.606775 0.274347 0.239271 0.116712
H10   H     H_    0.230728 0.264429 0.179627 0.006110
H11   H     H_    0.763651 0.946870 0.172550 0.088733
H12   H     H_    0.479285 0.905285 0.701569 0.113450
H13   H     H_    0.086854 0.738737 0.060840 0.062369
H14   H     H_    0.228956 0.288445 0.786762 0.101405
H15   H     H_    0.013427 0.231064 0.787438 -0.042865
H16   H     H_    0.313268 0.149005 0.886020 0.183498
H17   H     H_    0.204382 0.247956 0.936673 0.176475
H18   H     H_    0.095173 0.112431 0.895298 0.177591
H19   H     H_    0.736669 0.213920 0.731854 -0.055344
H20   H     H_    0.527618 0.138777 0.701530 0.064783
H21   H     H_    0.777063 0.126876 0.872161 0.174716
H22   H     H_    0.732847 0.031289 0.768975 0.115151
H23   H     H_    0.337299 0.936775 0.609585 0.065417
H24   H     H_    0.982858 0.696684 0.202927 0.088316
H25   H     H_    0.571563 0.046592 0.838971 0.169792
H26   H     H_    0.312972 0.545551 0.304966 0.068970
H27   H     H_    0.502058 0.655601 0.035778 0.128032
H28   H     H_    0.869682 0.467863 0.694287 0.074001
H29   H     H_    0.795049 0.436409 0.965711 0.116566
H30   H     H_    0.385388 0.644859 0.881037 0.123045
H31   H     H_    0.306678 0.035687 0.397679 0.121139
H32   H     H_    0.884702 0.954512 0.600988 0.141656
H33   H     H_    0.814377 0.266089 0.542559 0.061225
H34   H     H_    0.281708 0.940122 0.721244 0.216050
H35   H     H_    0.202084 0.754079 0.224341 -0.114498
H36   H     H_    0.370239 0.721405 0.451684 0.064521
H37   H     H_    0.934092 0.821051 0.088233 0.173836
H38   H     H_    0.153888 0.878213 0.110341 0.187459
H39   H     H_    0.354876 0.734228 0.613683 -0.005347
H40   H     H_    0.149499 0.770502 0.603240 0.065130
H41   H     H_    0.720110 0.238306 0.082040 0.356950
H42   H     H_    0.831428 0.256144 0.382548 -0.032552
H43   H     H_    0.049006 0.244960 0.402947 0.087461
H44   H     H_    0.757348 0.077027 0.303582 0.072674
H45   H     H_    0.909228 0.066255 0.398830 0.098713
H46   H     H_    0.971737 0.068140 0.288614 0.167158
O1    O     O_2   0.827930 0.435360 0.277760 -0.426463
O2    O     O_2   0.195753 0.116386 0.554527 -0.480762
O3    O     O_3   0.155154 0.131303 0.722905 -0.581441
O4    O     O_3   0.100310 0.439010 0.391180 -0.509888
O5    O     O_3   0.587770 0.631830 0.546230 -0.479890
O6    O     O_2   0.332600 0.233710 0.456170 -0.457041
O7    O     O_3   0.443687 0.188863 0.305896 -0.654210
O8    O     O_2   0.477938 0.442040 0.825148 -0.482099
O9    O     O_3   0.561210 0.250602 0.817157 -0.575374
O10   O     O_3   0.625610 0.634200 0.333270 -0.476121
O11   O     O_2   0.686602 0.544517 0.175225 -0.417267
O12   O     O_3   0.703828 0.785540 0.689794 -0.649135
O13   O     O_3   0.953048 0.262578 0.271491 -0.612895
O14   O     O_3   0.670972 0.746873 0.183140 -0.595274
O15   O     O_2   0.857120 0.766320 0.543890 -0.487752
O16   O     O_3   0.056570 0.691100 0.379020 -0.492125
O17   O     O_2   0.987714 0.882320 0.436376 -0.479068
O18   O     O_2   0.970887 0.272827 0.018889 -0.626177
O19   O     O_R   0.782334 0.313106 0.108878 -0.685567
O20   O     O_3   0.039933 0.854805 0.266836 -0.589695
O21   O     O_2   0.361790 0.564680 0.722290 -0.463371
O22   O     O_3   0.089410 0.561080 0.608830 -0.509033
O23   O     O_3   0.564100 0.365890 0.666740 -0.479649
O24   O     O_3   0.243531 0.737311 0.729696 -0.587342
O25   O     O_3   0.601940 0.368260 0.453780 -0.480900
O26   O     O_3   0.133140 0.308990 0.620990 -0.495990
P1    P     P_3+3 0.998770 0.403620 0.291990 1.013635
P2    P     P_3+3 0.687370 0.751000 0.571300 0.983112
P3    P     P_3+3 0.101928 0.828622 0.377460 0.970292
P4    P     P_3+3 0.190950 0.596470 0.708020 0.992420
P5    P     P_3+3 0.086186 0.168306 0.617438 0.959908
P6    P     P_3+3 0.582012 0.625250 0.214753 0.993418
P7    P     P_3+3 0.504915 0.232450 0.422726 0.934166
P8    P     P_3+3 0.605008 0.378946 0.785173 0.994510

loop_
_geom_bond_atom_site_label_1
_geom_bond_atom_site_label_2
_ccdc_geom_bond_type
O2    P5    D    
O5    P2    S    
C15   H26   S    
C3    H28   S    
C4    H35   S    
C39   C40   S    
C23   H9    S    
O15   P2    D    
O20   P3    S    
C41   P6    S    
Ba1   O15   S    
Ba2   O25   S    
C5    C6    A    
C39   H20   S    
Ba2   P4    S    
C30   H34   S    
C17   P4    S    
C24   C25   A    
C38   H16   S    
O7    P7    S    
C33   C35   S    
C22   C24   A    
C10   C41   A    
C8    C13   A    
C35   H4    S    
O16   P3    S    
C27   P5    S    
C6    H29   S    
C39   O9    S    
C34   Cl4   S    
Ba1   Ba2   S    
C9    C14   A    
C36   O18   D    
C32   H44   S    
Ba1   O16   S    
Ba2   O23   S    
O11   P6    D    
C19   H36   S    
Ba2   O4    S    
Ba1   O1    S    
O23   P8    S    
C33   H2    S    
C16   H37   S    
C32   H46   S    
C34   Cl3   S    
C28   H39   S    
C7    C8    A    
Ba1   O10   S    
C35   H6    S    
C24   C29   A    
C40   H21   S    
O1    P1    D    
C37   H14   S    
C1    H3    S    
C26   P7    S    
C21   P3    S    
Ba1   P2    S    
C18   C27   A    
C4    H24   S    
C4    C16   S    
C16   H38   S    
O22   P4    S    
C18   H33   S    
O6    P7    D    
C20   H31   S    
C34   H10   S    
Ba1   O4    S    
C37   C38   S    
C3    C5    A    
C35   H5    S    
O3    P5    S    
C6    C7    A    
C12   H1    S    
C18   C26   A    
O26   P5    S    
C1    Cl2   S    
C40   H22   S    
Ba1   P1    S    
C2    C14   A    
C15   C41   A    
C4    O20   S    
C33   O12   S    
C31   H42   S    
Ba2   O22   S    
C23   O7    S    
C8    C17   A    
Ba2   O26   S    
C40   H25   S    
C31   C32   S    
O12   P2    S    
C10   C11   A    
C33   Cl1   S    
C7    C9    A    
O14   P6    S    
C1    C12   S    
O21   P4    D    
C16   H13   S    
C12   O14   S    
C12   H7    S    
Ba2   O6    S    
O9    P8    S    
C20   C25   A    
C11   C13   A    
C2    C15   A    
C36   O19   S    
C37   H15   S    
O13   P1    S    
C31   O13   S    
C23   H8    S    
Ba1   O5    S    
C30   H23   S    
C9    C10   A    
C29   H32   S    
C39   H19   S    
C3    C17   A    
C28   O24   S    
O25   P7    S    
C38   H17   S    
C38   H18   S    
O4    P1    S    
C19   C21   A    
O24   P4    S    
C27   C29   A    
C31   H43   S    
O17   P3    D    
C28   C30   S    
Ba2   O21   S    
C13   H30   S    
C22   P2    S    
O8    P8    D    
Ba1   O25   S    
O10   P6    S    
C32   H45   S    
C37   O3    S    
C23   C34   S    
H41   O19   S    
C1    H11   S    
C11   H27   S    
Ba2   O5    S    
C19   C22   A    
C25   C26   A    
C20   C21   A    
C2    P1    S    
Ba1   O22   S    
C30   H12   S    
C5    P8    S    
C28   H40   S    
C14   C36   S    
