data_mof_unit_43896.cif
_audit_creation_date              2012-12-10T21:11:31-0500
_audit_creation_method            fapswitch 2.2
_symmetry_space_group_name_H-M    P1
_symmetry_Int_Tables_number       1
_space_group_crystal_system       triclinic
_cell_length_a                    17.16505
_cell_length_b                    16.692144
_cell_length_c                    10.741062
_cell_angle_alpha                 90.185392
_cell_angle_beta                  91.25318
_cell_angle_gamma                 89.737432
_cell_volume                      3076.76150651

loop_
_atom_site_label
_atom_site_type_symbol
_atom_type_description
_atom_site_fract_x
_atom_site_fract_y
_atom_site_fract_z
_atom_type_partial_charge
C1    C     C_R   0.353261 0.500339 0.519255 0.901530
C2    C     C_R   0.646783 0.499895 0.481088 0.903049
C3    C     C_R   0.889104 0.522882 0.430993 -0.008629
C4    C     C_R   0.110584 0.524422 0.565490 -0.009601
C5    C     C_1   0.967272 0.533475 0.476958 -0.057977
C6    C     C_1   0.032414 0.533888 0.518597 -0.057136
C7    C     C_R   0.430763 0.832483 0.474260 -0.102971
C8    C     C_R   0.565244 0.167662 0.548155 -0.114600
C9    C     C_R   0.569494 0.831726 0.527192 -0.201197
C10   C     C_R   0.436100 0.167767 0.449482 -0.095989
C11   C     C_R   0.433488 0.748109 0.470085 -0.099171
C12   C     C_R   0.561913 0.252151 0.549716 -0.070440
C13   C     C_R   0.566699 0.747387 0.529820 -0.123175
C14   C     C_R   0.438581 0.252244 0.449215 -0.069762
C15   C     C_R   0.500139 0.875524 0.500875 -0.009910
C16   C     C_R   0.500722 0.124195 0.498927 -0.061205
C17   C     C_1   0.500410 0.963391 0.500135 0.140346
C18   C     C_1   0.500628 0.036353 0.499473 0.145097
C19   C     C_R   0.487791 0.499758 0.259866 0.880911
C20   C     C_R   0.510863 0.500021 0.740830 0.877644
C21   C     C_R   0.450539 0.644679 0.110063 -0.212387
C22   C     C_R   0.540259 0.352273 0.889020 -0.214259
C23   C     C_R   0.534586 0.647929 0.892920 -0.219188
C24   C     C_R   0.461417 0.351138 0.110969 -0.213266
C25   C     C_R   0.465762 0.718760 0.054754 0.166660
C26   C     C_R   0.521861 0.278645 0.943109 0.181426
C27   C     C_R   0.511563 0.720601 0.947181 0.182865
C28   C     C_R   0.482138 0.278096 0.056208 0.179589
C29   C     C_R   0.511829 0.573308 0.942083 0.041602
C30   C     C_R   0.483639 0.425339 0.059571 0.049458
C31   C     C_R   0.479079 0.572239 0.059759 0.042724
C32   C     C_R   0.515363 0.425925 0.940911 0.048026
C33   C     C_R   0.520388 0.499922 0.876937 -0.207712
C34   C     C_R   0.475851 0.498851 0.124325 -0.209106
C35   C     C_R   0.840479 0.589303 0.407095 0.130158
C36   C     C_R   0.140453 0.446016 0.580466 0.127713
C37   C     C_R   0.158383 0.591439 0.586669 0.131420
C38   C     C_R   0.859986 0.444134 0.421000 0.127277
C39   C     C_R   0.759614 0.575450 0.392339 0.121315
C40   C     C_R   0.221991 0.434233 0.568824 0.082410
C41   C     C_R   0.239307 0.578024 0.603258 0.125865
C42   C     C_R   0.778695 0.432664 0.434788 0.079960
C43   C     C_R   0.729199 0.501846 0.437804 -0.189115
C44   C     C_R   0.270705 0.503357 0.561986 -0.188511
H1    H     H_    0.414292 0.643784 0.191332 0.167211
H2    H     H_    0.575225 0.351243 0.806539 0.157789
H3    H     H_    0.572027 0.650301 0.813244 0.165762
H4    H     H_    0.426680 0.349268 0.193654 0.158176
H5    H     H_    0.381571 0.714897 0.444819 0.148018
H6    H     H_    0.607929 0.285672 0.594848 0.143013
H7    H     H_    0.618756 0.713506 0.552858 0.127646
H8    H     H_    0.392475 0.285786 0.403772 0.140129
N1    N     N_R   0.500000 0.707230 0.500000 -0.077411
N2    N     N_R   0.500000 0.292770 0.500000 -0.096109
O1    O     O_R   0.389110 0.566570 0.499990 -0.629090
O2    O     O_R   0.610890 0.433430 0.500010 -0.623561
O3    O     O_R   0.610890 0.566570 0.500010 -0.627615
O4    O     O_R   0.389110 0.433430 0.499990 -0.624011
O5    O     O_R   0.499990 0.566540 0.316770 -0.606170
O6    O     O_R   0.500010 0.433460 0.683230 -0.623725
O7    O     O_R   0.500010 0.566540 0.683230 -0.609003
O8    O     O_R   0.499990 0.433460 0.316770 -0.624189
Zn1   Zn    Zn3+2 0.500000 0.588860 0.500000 0.922218
Zn2   Zn    Zn3+2 0.500000 0.411140 0.500000 0.912829
C45   C     C_3   0.467586 0.201349 0.126089 -0.407714
C46   C     C_3   0.540928 0.175514 0.198773 -0.827562
H9    H     H_    0.592132 0.170906 0.138024 0.246847
H10   H     H_    0.554518 0.219936 0.272826 0.264224
H11   H     H_    0.531515 0.116027 0.241484 0.274154
H12   H     H_    0.419252 0.210152 0.191455 0.199298
H13   H     H_    0.448691 0.152212 0.063186 0.226560
C47   C     C_3   0.535991 0.798025 0.886830 -0.434063
C48   C     C_3   0.611903 0.828810 0.945564 -0.845916
H14   H     H_    0.605116 0.840406 0.046576 0.259621
H15   H     H_    0.659283 0.784118 0.933132 0.256907
H16   H     H_    0.628657 0.885545 0.899769 0.276820
H17   H     H_    0.544751 0.788328 0.785853 0.207447
H18   H     H_    0.489891 0.844539 0.892868 0.225322
C49   C     C_3   0.538946 0.202212 0.872880 -0.408701
C50   C     C_3   0.466043 0.173569 0.801876 -0.829048
H19   H     H_    0.415415 0.167857 0.863410 0.245453
H20   H     H_    0.450097 0.216995 0.727751 0.264633
H21   H     H_    0.477379 0.114077 0.759526 0.274306
H22   H     H_    0.586264 0.212328 0.806310 0.197861
H23   H     H_    0.560466 0.154166 0.935707 0.225401
C51   C     C_3   0.432339 0.793620 0.113161 -0.412268
C52   C     C_3   0.352438 0.813379 0.056003 -0.808114
H24   H     H_    0.356476 0.822974 0.954104 0.244753
H25   H     H_    0.311193 0.763682 0.072949 0.261086
H26   H     H_    0.329353 0.868850 0.099343 0.277010
H27   H     H_    0.425953 0.784684 0.214662 0.225999
H28   H     H_    0.471774 0.845553 0.103881 0.220132
C53   C     C_3   0.874755 0.673375 0.398947 -0.441379
C54   C     C_3   0.844113 0.727815 0.501622 -0.787578
H29   H     H_    0.779945 0.735013 0.492975 0.263914
H30   H     H_    0.859196 0.702254 0.594471 0.255138
H31   H     H_    0.871143 0.787896 0.494685 0.267600
H32   H     H_    0.939242 0.673008 0.407795 0.219687
H33   H     H_    0.862927 0.700020 0.306055 0.204187
C55   C     C_3   0.084271 0.377119 0.606566 -0.413133
C56   C     C_3   0.097548 0.340603 0.735888 -0.833369
H34   H     H_    0.144472 0.295001 0.735621 0.262939
H35   H     H_    0.111623 0.387876 0.805782 0.260794
H36   H     H_    0.043786 0.309611 0.764924 0.245914
H37   H     H_    0.023040 0.398103 0.606249 0.212252
H38   H     H_    0.086496 0.330521 0.532804 0.195368
C57   C     C_3   0.123171 0.675615 0.590411 -0.439995
C58   C     C_3   0.153875 0.727640 0.485756 -0.798094
H39   H     H_    0.217976 0.734646 0.494716 0.271825
H40   H     H_    0.139242 0.700117 0.393935 0.258213
H41   H     H_    0.126538 0.787980 0.489884 0.258994
H42   H     H_    0.058733 0.675019 0.580633 0.220416
H43   H     H_    0.134172 0.704426 0.682157 0.202754
C59   C     C_3   0.916802 0.374536 0.398539 -0.413259
C60   C     C_3   0.902574 0.333142 0.272754 -0.829686
H44   H     H_    0.857816 0.285963 0.279227 0.264473
H45   H     H_    0.885010 0.377324 0.200133 0.260321
H46   H     H_    0.956979 0.303007 0.243056 0.245741
H47   H     H_    0.977721 0.395733 0.395379 0.212396
H48   H     H_    0.916057 0.330702 0.475943 0.194948
C61   C     C_3   0.708819 0.632319 0.313243 -0.386158
C62   C     C_3   0.679674 0.590817 0.194219 -0.820992
H49   H     H_    0.645595 0.536574 0.216007 0.256223
H50   H     H_    0.641866 0.632543 0.139518 0.256584
H51   H     H_    0.729811 0.572978 0.136472 0.247971
H52   H     H_    0.659157 0.657128 0.363899 0.234466
H53   H     H_    0.740387 0.686078 0.283234 0.205619
C63   C     C_3   0.255314 0.349677 0.563454 -0.324190
C64   C     C_3   0.303758 0.328846 0.680666 -0.806521
H54   H     H_    0.357373 0.365070 0.689455 0.282385
H55   H     H_    0.269655 0.339375 0.765715 0.245961
H56   H     H_    0.320642 0.264651 0.677251 0.246063
H57   H     H_    0.210066 0.303326 0.552568 0.218561
H58   H     H_    0.288422 0.341792 0.477717 0.209188
C65   C     C_3   0.288849 0.636464 0.681220 -0.388936
C66   C     C_3   0.316887 0.597462 0.802680 -0.824063
H59   H     H_    0.352783 0.543533 0.784040 0.256868
H60   H     H_    0.352590 0.640769 0.857644 0.256974
H61   H     H_    0.266195 0.579714 0.858737 0.249412
H62   H     H_    0.338968 0.659987 0.631108 0.231745
H63   H     H_    0.256605 0.690956 0.707937 0.203820
C67   C     C_3   0.746582 0.348351 0.447223 -0.318972
C68   C     C_3   0.699034 0.322536 0.331456 -0.805332
H64   H     H_    0.644289 0.357129 0.319709 0.281215
H65   H     H_    0.732915 0.330964 0.245819 0.246472
H66   H     H_    0.684201 0.258152 0.339434 0.250082
H67   H     H_    0.792559 0.302846 0.462670 0.220671
H68   H     H_    0.713293 0.343809 0.533311 0.205024
C69   C     C_2   0.354705 0.873241 0.452443 0.899834
O9    O     O_2   0.307275 0.845200 0.377889 -0.664411
O10   O     O_R   0.335953 0.942067 0.520195 -0.794200
H69   H     H_    0.281891 0.963261 0.498663 0.353381
C70   C     C_2   0.635251 0.127556 0.603424 0.922132
O11   O     O_2   0.698925 0.159802 0.597812 -0.648707
O12   O     O_R   0.628382 0.054843 0.666350 -0.799442
H70   H     H_    0.680039 0.034797 0.701968 0.367728
C71   C     C_2   0.645905 0.871954 0.548035 0.949282
O13   O     O_2   0.663626 0.928394 0.482605 -0.566422
O14   O     O_R   0.699436 0.845463 0.639119 -0.789154
H71   H     H_    0.678939 0.800832 0.692681 0.292474
C72   C     C_2   0.367125 0.127659 0.391881 0.903853
O15   O     O_2   0.302700 0.158749 0.398983 -0.658711
O16   O     O_R   0.375949 0.056409 0.324761 -0.804435
H72   H     H_    0.324909 0.036305 0.287380 0.351186

loop_
_geom_bond_atom_site_label_1
_geom_bond_atom_site_label_2
_ccdc_geom_bond_type
C68   H66   S    
C46   H10   S    
C52   H24   S    
C4    C36   A    
C56   H34   S    
C48   H14   S    
O16   H72   S    
C55   C56   S    
C49   H23   S    
C63   C64   S    
C72   O15   D    
C2    O3    A    
C69   O9    D    
C65   C66   S    
C7    C11   A    
C21   C31   A    
C55   H37   S    
C53   C54   S    
C22   C32   A    
C23   C29   A    
C38   C42   A    
C51   H27   S    
C66   H61   S    
C49   H22   S    
C38   C59   S    
C46   H11   S    
C19   O8    A    
C60   H44   S    
C40   C63   S    
C29   C33   A    
C58   H39   S    
C68   H65   S    
C57   H42   S    
C20   O7    A    
O7    Zn1   S    
C9    C13   A    
C57   H43   S    
O8    Zn2   S    
C13   H7    S    
C71   O13   D    
C14   H8    S    
C3    C38   A    
C60   H45   S    
O1    Zn1   S    
C42   C67   S    
C47   H18   S    
C57   C58   S    
O2    Zn2   S    
C3    C35   A    
C20   O6    A    
C53   H33   S    
C21   H1    S    
C59   H47   S    
C11   N1    A    
C8    C12   A    
C64   H56   S    
C8    C16   A    
C7    C15   A    
C46   H9    S    
C56   H35   S    
C7    C69   S    
C37   C41   A    
C48   H15   S    
C50   H21   S    
C72   O16   S    
O3    Zn1   S    
C13   N1    A    
C35   C53   S    
O4    Zn2   S    
C65   H62   S    
C23   H3    S    
C30   C34   A    
C65   H63   S    
C24   H4    S    
C67   H68   S    
C36   C40   A    
C4    C6    S    
C10   C14   A    
C59   C60   S    
C51   C52   S    
C50   H19   S    
C39   C43   A    
C54   H31   S    
C19   O5    A    
C45   H13   S    
C45   H12   S    
C35   C39   A    
C47   H17   S    
C11   H5    S    
C63   H58   S    
C1    C44   S    
O14   H71   S    
C9    C71   S    
C2    C43   S    
O10   H69   S    
C60   H46   S    
C17   C18   T    
C31   C34   A    
C36   C55   S    
C54   H30   S    
C8    C70   S    
C61   C62   S    
C2    O2    A    
C20   C33   S    
C16   C18   S    
C22   H2    S    
C10   C72   S    
C23   C27   A    
C52   H25   S    
C48   H16   S    
C70   O12   S    
C42   C43   A    
C12   N2    A    
C62   H50   S    
C41   C65   S    
C66   H60   S    
C64   H54   S    
C15   C17   S    
C21   C25   A    
C14   N2    A    
C26   C28   A    
C67   H67   S    
C24   C28   A    
C47   C48   S    
C3    C5    S    
C19   C34   S    
C12   H6    S    
C61   H53   S    
C37   C57   S    
C55   H38   S    
C25   C27   A    
O5    Zn1   S    
C26   C49   S    
C39   C61   S    
C58   H41   S    
O6    Zn2   S    
C32   C33   A    
C62   H51   S    
C69   O10   S    
C28   C45   S    
C9    C15   A    
C61   H52   S    
C29   C31   A    
C10   C16   A    
C63   H57   S    
C30   C32   A    
N1    Zn1   S    
C5    C6    T    
N2    Zn2   S    
C25   C51   S    
C41   C44   A    
C50   H20   S    
C58   H40   S    
C1    O1    A    
C54   H29   S    
C24   C30   A    
C49   C50   S    
C40   C44   A    
C4    C37   A    
C71   O14   S    
C45   C46   S    
C22   C26   A    
C52   H26   S    
O12   H70   S    
C67   C68   S    
C66   H59   S    
C51   H28   S    
C56   H36   S    
C64   H55   S    
C62   H49   S    
C1    O4    A    
C53   H32   S    
C59   H48   S    
C27   C47   S    
C68   H64   S    
C70   O11   D    
