data_mof_unit_32639.cif
_audit_creation_date              2012-12-10T18:23:09-0500
_audit_creation_method            fapswitch 2.2
_symmetry_space_group_name_H-M    P1
_symmetry_Int_Tables_number       1
_space_group_crystal_system       triclinic
_cell_length_a                    15.007437
_cell_length_b                    14.022137
_cell_length_c                    10.545307
_cell_angle_alpha                 89.278534
_cell_angle_beta                  89.986899
_cell_angle_gamma                 90.006108
_cell_volume                      2218.93978671

loop_
_atom_site_label
_atom_site_type_symbol
_atom_type_description
_atom_site_fract_x
_atom_site_fract_y
_atom_site_fract_z
_atom_type_partial_charge
C1    C     C_R   0.326494 0.499971 0.500161 0.890424
C2    C     C_R   0.953728 0.673505 0.513848 -0.212567
C3    C     C_R   0.550492 0.798901 0.413430 0.012070
C4    C     C_R   0.448091 0.201286 0.584796 0.009145
C5    C     C_R   0.449611 0.797223 0.586620 0.001238
C6    C     C_R   0.552211 0.202914 0.415628 0.004122
C7    C     C_R   0.448372 0.898005 0.589236 -0.121412
C8    C     C_R   0.553768 0.102221 0.413404 -0.116753
C9    C     C_R   0.551980 0.899757 0.411011 -0.117185
C10   C     C_R   0.446774 0.100521 0.587399 -0.117587
C11   C     C_R   0.500162 0.949538 0.500140 -0.065945
C12   C     C_R   0.673504 0.499986 0.499849 0.891139
C13   C     C_R   0.500167 0.050680 0.500235 -0.064801
C14   C     C_R   0.397215 0.948055 0.679091 0.412065
C15   C     C_R   0.607739 0.052358 0.326969 0.408729
C16   C     C_R   0.603579 0.951561 0.321683 0.412637
C17   C     C_R   0.393511 0.048883 0.674717 0.413389
C18   C     C_R   0.500787 0.500583 0.257576 0.903607
C19   C     C_R   0.499047 0.499288 0.742409 0.904275
C20   C     C_3   0.506070 0.589166 0.036409 0.154437
C21   C     C_3   0.493543 0.409797 0.963516 0.144401
C22   C     C_3   0.574447 0.537304 0.955881 0.069421
C23   C     C_R   0.953646 0.499810 0.499979 0.060578
C24   C     C_3   0.425164 0.461732 0.044132 0.070634
C25   C     C_3   0.427977 0.550916 0.956712 -0.292138
C26   C     C_3   0.571635 0.448160 0.043291 -0.284683
C27   C     C_3   0.498150 0.497870 0.876404 -0.059489
C28   C     C_3   0.501473 0.501322 0.123559 -0.060454
C29   C     C_R   0.815182 0.586534 0.506613 -0.254157
C30   C     C_R   0.184856 0.413143 0.493887 -0.261768
C31   C     C_R   0.769378 0.499908 0.499640 -0.077982
C32   C     C_R   0.230616 0.499862 0.500466 -0.078102
C33   C     C_R   0.815120 0.413214 0.492559 -0.262385
C34   C     C_R   0.046344 0.499792 0.500304 0.060971
C35   C     C_R   0.184824 0.586495 0.507303 -0.256620
C36   C     C_R   0.907284 0.412514 0.492789 0.119358
C37   C     C_R   0.092682 0.587114 0.507294 0.114973
C38   C     C_3   0.397788 0.890893 0.880763 -0.297055
C39   C     C_3   0.747253 0.109724 0.296278 -0.300539
C40   C     C_3   0.609142 0.908128 0.115369 -0.310508
C41   C     C_3   0.255135 0.106686 0.711474 -0.301012
C42   C     C_R   0.907323 0.587140 0.506820 0.114337
C43   C     C_R   0.092690 0.412470 0.493622 0.118124
C44   C     C_R   0.953681 0.326118 0.486055 -0.220212
C45   C     C_R   0.046291 0.673493 0.514067 -0.212569
C46   C     C_R   0.046274 0.326090 0.486613 -0.220758
H1    H     H_    0.370200 0.592080 0.919609 0.155765
H2    H     H_    0.918483 0.740798 0.519123 0.150190
H3    H     H_    0.589858 0.758780 0.346734 0.166565
H4    H     H_    0.407813 0.241563 0.650234 0.162769
H5    H     H_    0.410372 0.755805 0.653521 0.170507
H6    H     H_    0.592443 0.244436 0.350062 0.169412
H7    H     H_    0.519335 0.729867 0.997214 0.172406
H8    H     H_    0.576083 0.692388 0.125073 0.191603
H9    H     H_    0.483704 0.268068 0.002256 0.207498
H10   H     H_    0.422772 0.305193 0.877861 0.194968
H11   H     H_    0.695849 0.598197 0.979489 0.182224
H12   H     H_    0.629483 0.407171 0.080500 0.158432
H13   H     H_    0.687952 0.528366 0.851960 0.186463
H14   H     H_    0.303542 0.401308 0.020766 0.181940
H15   H     H_    0.311897 0.470808 0.148541 0.185064
H16   H     H_    0.407087 0.961806 0.925001 0.197571
H17   H     H_    0.463700 0.856986 0.863503 0.131866
H18   H     H_    0.361138 0.844894 0.949406 0.194129
H19   H     H_    0.778356 0.038345 0.310599 0.193772
H20   H     H_    0.745475 0.149003 0.387379 0.135382
H21   H     H_    0.790214 0.150902 0.229777 0.190891
H22   H     H_    0.611059 0.981472 0.074303 0.213073
H23   H     H_    0.779327 0.653517 0.512152 0.168980
H24   H     H_    0.538827 0.883306 0.123482 0.142218
H25   H     H_    0.643773 0.860591 0.048045 0.184013
H26   H     H_    0.223099 0.036033 0.697277 0.194910
H27   H     H_    0.255609 0.148419 0.620919 0.135062
H28   H     H_    0.213804 0.146463 0.780152 0.190463
H29   H     H_    0.220752 0.346164 0.488620 0.161663
H30   H     H_    0.779212 0.346261 0.486775 0.159935
H31   H     H_    0.220689 0.653484 0.512774 0.168658
H32   H     H_    0.918404 0.258844 0.480450 0.139534
H33   H     H_    0.081548 0.740779 0.519489 0.151101
H34   H     H_    0.081535 0.258791 0.481506 0.141302
N1    N     N_R   0.500000 0.750030 0.500000 -0.125786
N2    N     N_R   0.500000 0.249970 0.500000 -0.124868
N3    N     N_3   0.514829 0.687043 0.078641 -0.448205
N4    N     N_3   0.485042 0.311711 0.921222 -0.421605
N5    N     N_3   0.654705 0.580789 0.903286 -0.452556
N6    N     N_3   0.344892 0.418391 0.096879 -0.446667
O1    O     O_R   0.367850 0.580280 0.500030 -0.630027
O2    O     O_3   0.661548 0.102037 0.242604 -0.608908
O3    O     O_3   0.653810 0.903430 0.233008 -0.606531
O4    O     O_3   0.341706 0.096667 0.761820 -0.607787
O5    O     O_R   0.632150 0.419720 0.499970 -0.632389
O6    O     O_R   0.632150 0.580280 0.499970 -0.628427
O7    O     O_R   0.367850 0.419720 0.500030 -0.630979
O8    O     O_R   0.499970 0.580260 0.313950 -0.622913
O9    O     O_R   0.500030 0.419740 0.686050 -0.621195
O10   O     O_R   0.500030 0.580260 0.686050 -0.619913
O11   O     O_R   0.499970 0.419740 0.313950 -0.616816
O12   O     O_3   0.347273 0.898570 0.768337 -0.603624
Zn1   Zn    Zn3+2 0.500000 0.607200 0.500000 0.947588
Zn2   Zn    Zn3+2 0.500000 0.392800 0.500000 0.947888

loop_
_geom_bond_atom_site_label_1
_geom_bond_atom_site_label_2
_ccdc_geom_bond_type
C1    O1    A    
C46   H34   S    
C21   C26   S    
C8    C13   A    
C6    N2    A    
C40   H25   S    
C29   C42   A    
C34   C37   A    
C12   O5    A    
C38   O12   S    
C3    H3    S    
C7    C11   A    
C23   C42   A    
C40   H24   S    
C35   C37   A    
C9    C16   A    
C20   C25   S    
C10   C17   A    
C15   C16   A    
O10   Zn1   S    
C33   C36   A    
C5    N1    A    
C22   N5    S    
C41   H28   S    
C7    C14   A    
C3    N1    A    
C31   C33   A    
H10   N4    S    
C18   O11   A    
O5    Zn2   S    
C19   C27   S    
C25   H1    S    
C38   H18   S    
C41   O4    S    
C21   C27   S    
C16   O3    S    
C39   H19   S    
C14   C17   A    
C39   H21   S    
C39   O2    S    
H8    N3    S    
C44   C46   A    
C14   O12   S    
C29   H23   S    
C2    C45   A    
C17   O4    S    
C32   C35   A    
C18   C28   S    
C24   C25   S    
C5    C7    A    
H14   N6    S    
O9    Zn2   S    
C6    C8    A    
N1    Zn1   S    
C2    H2    S    
C35   H31   S    
C1    C32   S    
C4    H4    S    
H13   N5    S    
C3    C9    A    
C9    C11   A    
C33   H30   S    
C21   N4    S    
C23   C34   A    
C45   H33   S    
C26   H12   S    
O7    Zn2   S    
C41   H26   S    
C20   C22   S    
C8    C15   A    
C22   C27   S    
C12   C31   S    
C22   C26   S    
C18   O8    A    
C39   H20   S    
C30   C43   A    
C36   C44   A    
C21   C24   S    
C37   C45   A    
O11   Zn2   S    
C19   O9    A    
C38   H17   S    
N2    Zn2   S    
C12   O6    A    
C34   C43   A    
C24   C28   S    
C10   C13   A    
C25   C27   S    
C20   C28   S    
C40   O3    S    
C26   C28   S    
H7    N3    S    
C44   H32   S    
C29   C31   A    
C30   C32   A    
C30   H29   S    
C11   C13   A    
C24   N6    S    
O8    Zn1   S    
C2    C42   A    
H11   N5    S    
C43   C46   A    
H15   N6    S    
C41   H27   S    
O1    Zn1   S    
C4    N2    A    
C1    O7    A    
C23   C36   A    
C40   H22   S    
C20   N3    S    
C5    H5    S    
C6    H6    S    
H9    N4    S    
C4    C10   A    
C19   O10   A    
O6    Zn1   S    
C15   O2    S    
C38   H16   S    
