data_mof_unit_9096.cif
_audit_creation_date              2012-10-26T18:26:38-0400
_audit_creation_method            fapswitch 2.2
_symmetry_space_group_name_H-M    P1
_symmetry_Int_Tables_number       1
_space_group_crystal_system       triclinic
_cell_length_a                    15.859022
_cell_length_b                    8.715545
_cell_length_c                    7.475464
_cell_angle_alpha                 102.522543
_cell_angle_beta                  95.417516
_cell_angle_gamma                 92.87135
_cell_volume                      1001.52225494

loop_
_atom_site_label
_atom_site_type_symbol
_atom_type_description
_atom_site_fract_x
_atom_site_fract_y
_atom_site_fract_z
_atom_type_partial_charge
C1    C     C_R   0.497448 0.199925 0.453623 0.554272
C2    C     C_3   0.986472 0.626831 0.629370 -0.010993
C3    C     C_1   0.250269 0.492172 0.497301 0.093214
C4    C     C_1   0.749722 0.507998 0.502504 0.102783
C5    C     C_3   0.036913 0.486709 0.662670 -0.064124
C6    C     C_3   0.963136 0.513843 0.334813 -0.072163
C7    C     C_3   0.082949 0.490711 0.490975 0.000471
C8    C     C_3   0.916966 0.509860 0.506676 0.003731
C9    C     C_1   0.174585 0.488872 0.492304 0.128180
C10   C     C_1   0.825384 0.511468 0.506697 0.142618
C11   C     C_2   0.026399 0.231991 0.222701 0.298043
C12   C     C_R   0.502552 0.800075 0.546377 0.555500
C13   C     C_2   0.973352 0.766802 0.777280 0.300593
C14   C     C_2   0.921866 0.532526 0.152500 0.279771
C15   C     C_2   0.082612 0.468522 0.840741 0.254291
C16   C     C_R   0.339954 0.497385 0.499762 0.557414
C17   C     C_R   0.660045 0.502621 0.500225 0.557548
C18   C     C_2   0.496240 0.032346 0.427411 -0.119075
C19   C     C_2   0.503762 0.967653 0.572589 -0.119267
C20   C     C_3   0.967139 0.370106 0.540565 0.185732
C21   C     C_3   0.032865 0.630577 0.457626 0.181715
C22   C     C_3   0.013562 0.373576 0.368633 -0.030334
Cu1   Cu    Cu3+1 0.509330 0.517380 0.684380 1.044882
Cu2   Cu    Cu3+1 0.490670 0.482620 0.315620 1.043854
H1    H     H_    0.489144 0.961704 0.287060 0.145276
H2    H     H_    0.058892 0.381788 0.911088 0.135134
H3    H     H_    0.510857 0.038296 0.712940 0.144738
H4    H     H_    0.434186 0.376131 0.948333 0.249695
H5    H     H_    0.565817 0.623865 0.051666 0.252347
H6    H     H_    0.971636 0.160201 0.145065 0.152566
H7    H     H_    0.027975 0.837053 0.857721 0.160639
H8    H     H_    0.994549 0.113677 0.812071 0.342856
H9    H     H_    0.989527 0.854602 0.190363 0.340444
H10   H     H_    0.960588 0.559374 0.050569 0.110956
N1    N     N_2   0.476600 0.456420 0.038510 -0.247710
N2    N     N_2   0.523400 0.543580 0.961490 -0.246180
O1    O     O_R   0.506070 0.286130 0.619780 -0.509893
O2    O     O_2   0.901871 0.801932 0.808769 -0.460387
O3    O     O_2   0.865015 0.256709 0.756120 -0.286210
O4    O     O_2   0.865611 0.101927 0.441169 -0.202478
O5    O     O_3   0.996535 0.097817 0.677489 -0.425056
O6    O     O_2   0.130722 0.902034 0.567697 -0.202714
O7    O     O_2   0.137758 0.753364 0.253127 -0.249496
O8    O     O_3   0.003090 0.904332 0.322804 -0.412013
O9    O     O_2   0.844748 0.520480 0.118769 -0.440684
O10   O     O_2   0.146449 0.552682 0.908386 -0.443248
O11   O     O_R   0.493930 0.713870 0.380220 -0.509081
O12   O     O_R   0.490300 0.256770 0.308360 -0.495532
O13   O     O_R   0.509700 0.743230 0.691640 -0.494791
O14   O     O_R   0.386960 0.514660 0.655680 -0.498167
O15   O     O_R   0.613040 0.485340 0.344320 -0.496187
O16   O     O_R   0.371190 0.485310 0.344260 -0.476872
O17   O     O_R   0.628810 0.514690 0.655740 -0.475324
O18   O     O_2   0.097776 0.196734 0.190459 -0.457030
S1    S     S_3+6 0.919767 0.202614 0.604228 0.054437
S2    S     S_3+6 0.079780 0.801350 0.399910 0.071310

loop_
_geom_bond_atom_site_label_1
_geom_bond_atom_site_label_2
_ccdc_geom_bond_type
C14   H10   S    
C21   S2    S    
H8    O5    S    
C1    O12   A    
Cu2   O16   S    
C3    C9    T    
C6    C14   S    
C7    C22   S    
C19   H3    S    
O8    S2    S    
C11   C22   S    
N1    N2    D    
C1    O1    A    
Cu1   Cu2   S    
O4    S1    D    
C17   O15   A    
C2    C21   S    
C12   O13   A    
C13   O2    D    
C5    C20   S    
C7    C21   S    
C18   H1    S    
H5    N2    S    
C1    C18   S    
C8    C20   S    
C11   O18   D    
Cu1   O14   S    
Cu2   O15   S    
C12   O11   A    
O5    S1    S    
C4    C17   S    
C12   C19   S    
C16   O14   A    
Cu1   O17   S    
C14   O9    D    
C7    C9    S    
C20   S1    S    
C2    C8    S    
Cu1   O13   S    
C2    C5    S    
C5    C15   S    
C4    C10   T    
Cu2   O12   S    
C17   O17   A    
O7    S2    D    
Cu2   O11   S    
C11   H6    S    
C8    C10   S    
Cu1   N2    S    
C5    C7    S    
C2    C13   S    
C18   C19   D    
C15   H2    S    
C6    C8    S    
C15   O10   D    
O6    S2    D    
Cu2   N1    S    
Cu1   O1    S    
C6    C21   S    
C13   H7    S    
O3    S1    D    
C3    C16   S    
C16   O16   A    
H4    N1    S    
C20   C22   S    
H9    O8    S    
C6    C22   S    
