data_mof_unit_45101.cif
_audit_creation_date              2012-12-11T14:15:22-0500
_audit_creation_method            fapswitch 2.2
_symmetry_space_group_name_H-M    P1
_symmetry_Int_Tables_number       1
_space_group_crystal_system       triclinic
_cell_length_a                    11.160934
_cell_length_b                    12.730728
_cell_length_c                    23.516452
_cell_angle_alpha                 90.877774
_cell_angle_beta                  96.925602
_cell_angle_gamma                 68.433898
_cell_volume                      3083.26566699

loop_
_atom_site_label
_atom_site_type_symbol
_atom_type_description
_atom_site_fract_x
_atom_site_fract_y
_atom_site_fract_z
_atom_type_partial_charge
C1    C     C_R   0.149393 0.616073 0.428764 0.548726
C2    C     C_R   0.717218 0.533818 0.306224 -0.119545
C3    C     C_R   0.719056 0.723533 0.316354 -0.097258
C4    C     C_R   0.715870 0.733650 0.256937 0.062781
C5    C     C_R   0.717085 0.640472 0.223022 0.010014
C6    C     C_R   0.706879 0.649648 0.164079 -0.133259
C7    C     C_R   0.684132 0.845889 0.170340 -0.125261
C8    C     C_R   0.709767 0.834759 0.230673 0.267962
C9    C     C_1   0.235822 0.163104 0.122985 0.000204
C10   C     C_2   0.181577 0.233444 0.226772 -0.118539
C11   C     C_2   0.154189 0.166327 0.262374 -0.119329
C12   C     C_R   0.754949 0.601046 0.402666 0.540540
C13   C     C_1   0.131746 0.199386 0.320295 -0.049278
C14   C     C_1   0.210666 0.198157 0.169782 -0.042072
C15   C     C_1   0.115804 0.232206 0.368227 -0.004322
C16   C     C_1   0.166711 0.753126 0.123891 0.009530
C17   C     C_2   0.137218 0.709139 0.230073 -0.082633
C18   C     C_2   0.237584 0.644488 0.267297 0.286246
C19   C     C_1   0.215255 0.636755 0.326669 -0.067039
C20   C     C_1   0.152334 0.730322 0.171628 -0.001272
C21   C     C_1   0.190887 0.629011 0.374708 -0.030379
C22   C     C_1   0.629325 0.756104 0.865292 0.006041
C23   C     C_R   0.101151 0.282204 0.423339 0.543983
C24   C     C_2   0.700851 0.713565 0.761470 -0.120818
C25   C     C_2   0.615587 0.700419 0.719370 -0.132135
C26   C     C_1   0.653250 0.668704 0.663164 -0.045395
C27   C     C_1   0.665354 0.737652 0.818547 -0.030235
C28   C     C_1   0.691345 0.639802 0.617446 -0.002725
C29   C     C_R   0.194954 0.176577 0.854039 0.013195
C30   C     C_R   0.106451 0.237386 0.642147 0.025265
C31   C     C_R   0.054992 0.126153 0.710450 -0.133959
C32   C     C_R   0.051394 0.158766 0.653789 -0.133491
C33   C     C_R   0.158269 0.288181 0.686443 -0.115921
C34   C     C_R   0.150289 0.616722 0.590793 0.543309
C35   C     C_R   0.161532 0.257172 0.742656 0.037490
C36   C     C_R   0.111543 0.174071 0.754958 0.041917
C37   C     C_R   0.126020 0.136069 0.811222 -0.129620
C38   C     C_R   0.237938 0.263099 0.842197 -0.117756
C39   C     C_R   0.219340 0.304641 0.786520 -0.126377
C40   C     C_R   0.123750 0.744097 0.852522 0.051665
C41   C     C_R   0.192566 0.636638 0.649531 0.015036
C42   C     C_R   0.301520 0.555293 0.742325 -0.136567
C43   C     C_R   0.291536 0.551146 0.682930 -0.155713
C44   C     C_R   0.110255 0.730055 0.675742 -0.115518
C45   C     C_R   0.749926 0.602423 0.566037 0.547492
C46   C     C_R   0.113396 0.730762 0.734644 -0.044706
C47   C     C_R   0.211348 0.644204 0.769116 0.035390
C48   C     C_R   0.214881 0.649477 0.829054 0.221661
C49   C     C_R   0.013078 0.817560 0.817924 0.234217
C50   C     C_R   0.011352 0.811488 0.758400 -0.167495
C51   C     C_R   0.265767 0.110224 0.069415 0.544470
C52   C     C_R   0.601350 0.774914 0.080792 0.553782
C53   C     C_R   0.189066 0.787902 0.069556 0.547343
C54   C     C_R   0.240746 0.114237 0.907783 0.540746
C55   C     C_R   0.573955 0.776240 0.918263 0.543199
C56   C     C_R   0.100034 0.279254 0.584977 0.539796
C57   C     C_R   0.162571 0.785015 0.907721 0.575782
C58   C     C_R   0.675769 0.754987 0.137677 -0.035161
C59   C     C_R   0.720055 0.623634 0.341100 -0.001668
C60   C     C_R   0.718094 0.541466 0.247840 -0.115554
Cr1   Cr    Cr6+3 0.189770 0.415650 0.511620 1.025430
Cr2   Cr    Cr6+3 0.930400 0.667320 0.496770 1.027268
Cr3   Cr    Cr6+3 0.879870 0.417010 0.491650 1.023892
Cr4   Cr    Cr6+3 0.149500 0.973980 0.985330 1.040376
Cr5   Cr    Cr6+3 0.457000 0.976510 0.994660 1.032187
Cr6   Cr    Cr6+3 0.411170 0.724270 0.995270 1.022798
H1    H     H_    0.704555 0.578264 0.138748 0.139730
H2    H     H_    0.042119 0.750783 0.244034 0.077861
H3    H     H_    0.518372 0.709758 0.727439 0.134948
H4    H     H_    0.798523 0.703115 0.753646 0.149849
H5    H     H_    0.094473 0.067911 0.820800 0.124251
H6    H     H_    0.290937 0.294497 0.875471 0.147971
H7    H     H_    0.016156 0.062503 0.719361 0.097510
H8    H     H_    0.256461 0.368965 0.777344 0.128535
H9    H     H_    0.007774 0.122092 0.619295 0.113184
H10   H     H_    0.196084 0.352480 0.677033 0.124799
H11   H     H_    0.659343 0.927503 0.149402 0.133331
H12   H     H_    0.376296 0.485551 0.766167 0.122329
H13   H     H_    0.930660 0.868233 0.729976 0.100621
H14   H     H_    0.355658 0.477604 0.663383 0.128633
H15   H     H_    0.033348 0.797066 0.650238 0.133328
H16   H     H_    0.717888 0.470258 0.221987 0.107349
H17   H     H_    0.721485 0.454557 0.324253 0.128968
H18   H     H_    0.723365 0.791821 0.343578 0.173909
H19   H     H_    0.151439 0.085295 0.248602 0.136820
H20   H     H_    0.185212 0.314108 0.240732 0.133209
O1    O     O_R   0.196340 0.303200 0.448500 -0.504172
O2    O     O_R   0.811960 0.658090 0.547150 -0.494204
O3    O     O_R   0.757930 0.506140 0.547110 -0.504335
O4    O     O_R   0.988670 0.321620 0.556040 -0.496442
O5    O     O_3   0.000020 0.499990 0.500010 -0.249789
O6    O     O_R   0.113660 0.883270 0.047820 -0.513163
O7    O     O_R   0.186930 0.068530 0.043990 -0.497065
O8    O     O_R   0.377770 0.089040 0.054220 -0.510416
O9    O     O_R   0.562800 0.872960 0.056970 -0.501844
O10   O     O_R   0.555390 0.700940 0.062700 -0.511173
O11   O     O_R   0.295020 0.731920 0.049950 -0.484505
O12   O     O_R   0.199310 0.519670 0.454880 -0.494862
O13   O     O_R   0.094290 0.884230 0.921550 -0.468846
O14   O     O_R   0.168980 0.069410 0.926940 -0.506619
O15   O     O_R   0.358400 0.089990 0.927950 -0.513046
O16   O     O_R   0.544850 0.873850 0.939920 -0.482145
O17   O     O_R   0.536020 0.701900 0.936430 -0.547970
O18   O     O_R   0.277070 0.732810 0.932890 -0.492726
O19   O     O_3   0.339220 0.891590 0.991750 -0.256007
O20   O     O_R   0.045660 0.691380 0.441680 -0.505016
O21   O     O_R   0.811930 0.659460 0.430950 -0.503103
O22   O     O_R   0.757900 0.507620 0.421760 -0.521674
O23   O     O_R   0.988630 0.322990 0.439840 -0.500734
O24   O     O_R   0.196380 0.301720 0.573850 -0.519611
O25   O     O_R   0.199350 0.518300 0.571080 -0.504310
O26   O     O_R   0.045700 0.689900 0.567030 -0.522351
O27   O     O_3   0.292021 0.557571 0.864911 -0.577397
C61   C     C_3   0.424871 0.542729 0.869622 -0.082572
H21   H     H_    0.445796 0.608990 0.846724 0.119492
H22   H     H_    0.481226 0.458528 0.853910 0.094297
H23   H     H_    0.461571 0.540646 0.915667 0.180101
O28   O     O_3   0.909588 0.889306 0.845013 -0.537692
C62   C     C_3   0.829678 0.986897 0.811992 -0.103569
H24   H     H_    0.762701 0.966314 0.778772 0.118568
H25   H     H_    0.887477 0.028939 0.792832 0.095893
H26   H     H_    0.768700 0.048240 0.840629 0.146978
O29   O     O_3   0.709656 0.924896 0.265057 -0.574829
C63   C     C_3   0.774311 0.988716 0.242630 -0.125282
H27   H     H_    0.707113 0.052739 0.210416 0.124043
H28   H     H_    0.863288 0.934906 0.224102 0.103771
H29   H     H_    0.805331 0.035177 0.278081 0.145576
O30   O     O_3   0.358728 0.591309 0.248423 -0.542616
C64   C     C_3   0.430169 0.488802 0.279343 -0.103080
H30   H     H_    0.371853 0.434428 0.280777 0.113923
H31   H     H_    0.466824 0.505114 0.323369 0.132316
H32   H     H_    0.515254 0.441158 0.257134 0.132343

loop_
_geom_bond_atom_site_label_1
_geom_bond_atom_site_label_2
_ccdc_geom_bond_type
C1    C21   S    
C34   O26   A    
C6    C58   A    
C54   O15   A    
C35   C36   A    
C9    C51   S    
C24   C27   S    
Cr5   O15   S    
C4    C8    A    
O30   C64   S    
C32   H9    S    
C61   H21   S    
C24   H4    S    
O29   C63   S    
C55   O16   A    
Cr6   O11   S    
Cr6   O10   S    
C36   C37   A    
C19   C21   T    
Cr4   O7    S    
C64   H30   S    
C5    C6    A    
C2    C60   A    
C31   H7    S    
C29   C54   S    
C40   C49   A    
C57   O13   A    
C55   O17   A    
C17   C20   S    
C52   O9    A    
C18   C19   S    
C39   H8    S    
C56   O24   A    
C16   C53   S    
Cr1   O1    S    
C18   O30   S    
O28   C62   S    
C12   C59   S    
C60   H16   S    
Cr4   O13   S    
Cr1   O12   S    
C29   C38   A    
C45   O3    A    
C7    C58   A    
C5    C60   A    
C1    O20   A    
C7    H11   S    
C64   H32   S    
C15   C23   S    
C23   O1    A    
C50   H13   S    
C34   O25   A    
C41   C43   A    
C54   O14   A    
C2    H17   S    
C34   C41   S    
Cr5   O16   S    
Cr1   O24   S    
Cr5   O19   S    
C44   C46   A    
C62   H25   S    
C23   O23   A    
C38   H6    S    
C28   C45   S    
Cr6   O18   S    
Cr4   O19   S    
C45   O2    A    
C24   C25   D    
C44   H15   S    
C10   C14   S    
C12   O22   A    
C2    C59   A    
Cr2   O21   S    
C53   O11   A    
C43   H14   S    
Cr2   O2    S    
Cr3   O23   S    
C35   C39   A    
C9    C14   T    
C33   H10   S    
C47   C48   A    
Cr4   O14   S    
C16   C20   T    
Cr2   O5    S    
Cr3   O3    S    
C53   O6    A    
C17   C18   D    
C52   C58   S    
C51   O7    A    
C63   H29   S    
Cr5   O8    S    
C42   H12   S    
C22   C27   T    
C37   H5    S    
C41   C44   A    
C25   H3    S    
C42   C43   A    
Cr4   O6    S    
Cr6   O19   S    
C29   C37   A    
C3    C4    A    
Cr1   O25   S    
C63   H28   S    
O27   C61   S    
C62   H26   S    
C40   C48   A    
C57   O18   A    
C46   C47   A    
C10   H20   S    
C17   H2    S    
C40   C57   S    
C30   C33   A    
Cr6   O17   S    
C31   C32   A    
C4    C5    A    
C1    O12   A    
C12   O21   A    
C61   H22   S    
C62   H24   S    
C8    O29   S    
C22   C55   S    
Cr2   O20   S    
C46   C50   A    
C26   C28   T    
C13   C15   T    
C25   C26   S    
C6    H1    S    
C30   C32   A    
C11   C13   S    
C38   C39   A    
C30   C56   S    
C11   H19   S    
Cr3   O4    S    
C56   O4    A    
C33   C35   A    
C52   O10   A    
C42   C47   A    
C61   H23   S    
C7    C8    A    
C10   C11   D    
C51   O8    A    
C49   O28   S    
Cr5   O9    S    
Cr2   O26   S    
C49   C50   A    
Cr3   O5    S    
C3    H18   S    
C31   C36   A    
C63   H27   S    
Cr3   O22   S    
Cr1   O5    S    
C48   O27   S    
C64   H31   S    
C3    C59   A    
