data_mof_unit_60249.cif
_audit_creation_date              2012-12-10T20:49:53-0500
_audit_creation_method            fapswitch 2.2
_symmetry_space_group_name_H-M    P1
_symmetry_Int_Tables_number       1
_space_group_crystal_system       triclinic
_cell_length_a                    19.150374
_cell_length_b                    19.17557
_cell_length_c                    19.146578
_cell_angle_alpha                 95.003197
_cell_angle_beta                  90.012447
_cell_angle_gamma                 85.146617
_cell_volume                      6978.90895625

loop_
_atom_site_label
_atom_site_type_symbol
_atom_type_description
_atom_site_fract_x
_atom_site_fract_y
_atom_site_fract_z
_atom_type_partial_charge
C1    C     C_R   0.492142 0.491597 0.310443 0.509129
C2    C     C_R   0.120930 0.543179 0.565349 0.045406
C3    C     C_R   0.503630 0.517873 0.766672 -0.037412
C4    C     C_R   0.506217 0.508481 0.689446 0.486850
C5    C     C_R   0.439255 0.526088 0.804142 0.003158
C6    C     C_R   0.439866 0.536347 0.878471 0.042361
C7    C     C_R   0.504750 0.533546 0.913894 0.142963
C8    C     C_R   0.568362 0.526811 0.876094 0.032478
C9    C     C_R   0.566928 0.520012 0.802821 -0.115674
C10   C     C_R   0.483547 0.548667 0.128289 -0.129122
C11   C     C_R   0.481328 0.549650 0.200791 -0.169145
C12   C     C_R   0.914621 0.469302 0.487172 0.224427
C13   C     C_R   0.492719 0.484617 0.085957 0.203299
C14   C     C_R   0.489616 0.487124 0.233366 0.038688
C15   C     C_R   0.497922 0.421772 0.192053 0.083517
C16   C     C_R   0.492594 0.689693 0.508068 0.564858
C17   C     C_R   0.497740 0.420470 0.117907 0.050936
C18   C     C_R   0.506473 0.233258 0.483671 -0.004727
C19   C     C_R   0.443333 0.199684 0.480707 -0.013827
C20   C     C_R   0.446793 0.125432 0.477428 0.135906
C21   C     C_R   0.512894 0.085819 0.477139 0.197439
C22   C     C_R   0.575072 0.119975 0.475793 -0.008828
C23   C     C_R   0.876297 0.449524 0.426851 0.120534
C24   C     C_R   0.571118 0.193342 0.479365 -0.145740
C25   C     C_R   0.536207 0.871086 0.481061 -0.120073
C26   C     C_R   0.539948 0.798644 0.481198 -0.176018
C27   C     C_R   0.479890 0.913602 0.514108 0.228603
C28   C     C_R   0.506649 0.310094 0.491099 0.556401
C29   C     C_R   0.487690 0.766438 0.513608 0.051524
C30   C     C_R   0.431012 0.807330 0.548552 -0.032764
C31   C     C_R   0.427198 0.881693 0.548980 -0.009147
C32   C     C_R   0.310658 0.507872 0.507546 0.497713
C33   C     C_R   0.689773 0.491244 0.492669 0.521260
C34   C     C_R   0.802670 0.457608 0.430332 -0.154551
C35   C     C_R   0.767288 0.483646 0.492463 0.002635
C36   C     C_R   0.805705 0.499495 0.553975 0.106881
C37   C     C_R   0.879828 0.490130 0.551909 0.163582
C38   C     C_2   0.241413 0.471995 0.378081 0.323284
C39   C     C_2   0.636531 0.526395 0.913153 0.270197
C40   C     C_3   0.573667 0.323579 0.228142 -0.281008
C41   C     C_2   0.374276 0.554335 0.920486 0.310972
C42   C     C_2   0.500940 0.351387 0.074972 0.260280
C43   C     C_2   0.372407 0.524941 0.764917 0.315726
C44   C     C_2   0.644628 0.079047 0.472336 0.251639
C45   C     C_R   0.124452 0.499425 0.440950 0.006345
C46   C     C_2   0.085918 0.482518 0.375006 0.311223
C47   C     C_2   0.375453 0.772800 0.583691 0.205845
C48   C     C_3   0.365619 0.070397 0.398055 -0.262953
C49   C     C_2   0.369638 0.925709 0.588347 0.241169
C50   C     C_2   0.374153 0.240864 0.476157 0.246383
C51   C     C_3   0.875487 0.393991 0.303926 -0.288313
C52   C     C_3   0.244856 0.627939 0.638153 -0.279054
C53   C     C_3   0.954664 0.436246 0.638566 -0.266372
C54   C     C_2   0.081306 0.572444 0.629726 0.274724
C55   C     C_3   0.751539 0.468260 0.659887 -0.262779
C56   C     C_R   0.198756 0.493404 0.442689 -0.030006
C57   C     C_R   0.085791 0.522806 0.503041 0.148983
C58   C     C_R   0.233488 0.509253 0.506710 -0.011069
C59   C     C_R   0.194570 0.534561 0.567682 0.063566
H1    H     H_    0.477324 0.598439 0.105330 0.156155
H2    H     H_    0.474860 0.357442 0.270109 0.282246
H3    H     H_    0.607119 0.357021 0.261700 0.178850
H4    H     H_    0.597831 0.313462 0.175149 0.148012
H5    H     H_    0.571829 0.272456 0.250922 0.156977
H6    H     H_    0.370701 0.538869 0.973414 0.142931
H7    H     H_    0.491174 0.304052 0.099214 0.141263
H8    H     H_    0.366941 0.550154 0.716473 0.095706
H9    H     H_    0.648489 0.022140 0.470410 0.132190
H10   H     H_    0.038158 0.514009 0.363617 0.138044
H11   H     H_    0.321630 0.795618 0.584902 0.098218
H12   H     H_    0.615588 0.514619 0.773384 0.163234
H13   H     H_    0.342993 0.109997 0.501168 0.265430
H14   H     H_    0.351577 0.118358 0.370688 0.142555
H15   H     H_    0.319755 0.038594 0.397331 0.166666
H16   H     H_    0.409682 0.038411 0.369847 0.173055
H17   H     H_    0.343667 0.905823 0.631886 0.103050
H18   H     H_    0.327922 0.224520 0.500537 0.110689
H19   H     H_    0.962250 0.399344 0.369457 0.290320
H20   H     H_    0.912930 0.375600 0.260578 0.169671
H21   H     H_    0.837122 0.434140 0.284047 0.156628
H22   H     H_    0.848665 0.348336 0.319056 0.151313
H23   H     H_    0.583500 0.767288 0.454789 0.120456
H24   H     H_    0.270547 0.520961 0.643880 0.292931
H25   H     H_    0.282969 0.637529 0.597104 0.184708
H26   H     H_    0.267797 0.640614 0.690503 0.179357
H27   H     H_    0.196316 0.663212 0.633405 0.166905
H28   H     H_    0.897538 0.533228 0.654595 0.271324
H29   H     H_    0.915544 0.399642 0.651233 0.128803
H30   H     H_    0.985168 0.449753 0.686464 0.156761
H31   H     H_    0.991669 0.409380 0.598353 0.181665
H32   H     H_    0.104249 0.567397 0.681053 0.147018
H33   H     H_    0.787628 0.565990 0.645783 0.261046
H34   H     H_    0.578039 0.893724 0.455194 0.142017
H35   H     H_    0.799641 0.441367 0.680700 0.144902
H36   H     H_    0.721735 0.429380 0.628590 0.149384
H37   H     H_    0.718417 0.491606 0.704813 0.167814
H38   H     H_    0.618872 0.220016 0.480295 0.177859
H39   H     H_    0.771908 0.444682 0.384404 0.141023
H40   H     H_    0.474853 0.599861 0.231772 0.142738
H41   H     H_    0.289481 0.438058 0.380882 0.122459
H42   H     H_    0.638210 0.531550 0.969995 0.147929
N1    N     N_2   0.988695 0.467730 0.482097 -0.259625
N2    N     N_2   0.229165 0.555201 0.631133 -0.535115
N3    N     N_2   0.920059 0.499769 0.614391 -0.445897
N4    N     N_2   0.769158 0.523222 0.617597 -0.487498
N5    N     N_2   0.011410 0.524363 0.505010 -0.156616
N6    N     N_2   0.506102 0.539276 0.988001 -0.301836
N7    N     N_2   0.493468 0.482996 0.011481 -0.176157
N8    N     N_2   0.518123 0.011293 0.475124 -0.279886
N9    N     N_2   0.476202 0.988277 0.515492 -0.119992
N10   N     N_2   0.503266 0.357157 0.224335 -0.534111
N11   N     N_2   0.384714 0.089430 0.469816 -0.448223
N12   N     N_2   0.913132 0.424318 0.363103 -0.500984
O1    O     O_3   0.500000 0.500000 0.500000 -0.450355
O2    O     O_R   0.340900 0.545940 0.467290 -0.534252
O3    O     O_R   0.655960 0.450920 0.450930 -0.562236
O4    O     O_R   0.347180 0.467040 0.545670 -0.526557
O5    O     O_R   0.655970 0.536100 0.536110 -0.503089
O6    O     O_2   0.225332 0.494840 0.322190 -0.443330
O7    O     O_2   0.691900 0.520270 0.880649 -0.509918
O8    O     O_2   0.324724 0.589775 0.897941 -0.456826
O9    O     O_2   0.515024 0.345857 0.012448 -0.461287
O10   O     O_2   0.324208 0.493652 0.784815 -0.446466
O11   O     O_2   0.698766 0.108380 0.471499 -0.496374
O12   O     O_R   0.536480 0.656330 0.545680 -0.515373
O13   O     O_2   0.104971 0.431538 0.334765 -0.456842
O14   O     O_2   0.389455 0.719315 0.612924 -0.523354
O15   O     O_2   0.349909 0.984411 0.572523 -0.463212
O16   O     O_2   0.367589 0.292713 0.443176 -0.508161
O17   O     O_2   0.023921 0.604853 0.626253 -0.464702
O18   O     O_R   0.545300 0.340270 0.450920 -0.548633
O19   O     O_R   0.451550 0.536740 0.347440 -0.534472
O20   O     O_R   0.466670 0.466660 0.655960 -0.541699
O21   O     O_R   0.536460 0.451300 0.340640 -0.550290
O22   O     O_R   0.545320 0.545300 0.655970 -0.527199
O23   O     O_R   0.451560 0.656600 0.467300 -0.530582
O24   O     O_R   0.466660 0.346810 0.536100 -0.499324
Zn1   Zn    Zn3+2 0.558430 0.558420 0.558430 0.978493
Zn2   Zn    Zn3+2 0.437090 0.558800 0.446440 0.974756
Zn3   Zn    Zn3+2 0.446060 0.446060 0.558420 0.986598
Zn4   Zn    Zn3+2 0.558420 0.436720 0.436720 0.928022

loop_
_geom_bond_atom_site_label_1
_geom_bond_atom_site_label_2
_ccdc_geom_bond_type
O22   Zn1   S    
H13   N11   S    
C52   N2    S    
C25   H34   S    
C35   C36   A    
C32   C58   S    
C32   O4    A    
C1    O19   A    
C2    C57   A    
C7    C8    A    
C45   C46   S    
O19   Zn2   S    
C12   C23   A    
C45   C57   A    
C51   N12   S    
C40   H4    S    
H24   N2    S    
C55   N4    S    
C18   C24   A    
C52   H26   S    
C18   C19   A    
C13   N7    S    
C30   C31   A    
C11   C14   A    
C53   N3    S    
C39   O7    D    
C40   H3    S    
C11   H40   S    
C34   C35   A    
C41   O8    D    
C12   C37   A    
C52   H25   S    
C51   H21   S    
C46   H10   S    
C34   H39   S    
C20   N11   S    
C22   C44   S    
C19   C20   A    
C27   N9    S    
C8    C9    A    
C6    C41   S    
N6    N7    D    
C8    C39   S    
O1    Zn3   S    
C16   O12   A    
C51   H22   S    
O18   Zn4   S    
C57   N5    S    
C5    C43   S    
C33   O5    A    
C26   H23   S    
C21   C22   A    
C48   H16   S    
C31   C49   S    
C55   H35   S    
C39   H42   S    
C40   N10   S    
C54   O17   D    
O24   Zn3   S    
C27   C31   A    
C24   H38   S    
O1    Zn4   S    
C15   N10   S    
C30   C47   S    
C18   C28   S    
C45   C56   A    
C55   H36   S    
C2    C54   S    
C2    C59   A    
C41   H6    S    
C25   C26   A    
C44   O11   D    
O3    Zn4   S    
O23   Zn2   S    
C10   H1    S    
C47   H11   S    
C12   N1    S    
C29   C30   A    
C3    C9    A    
C50   O16   D    
C48   H15   S    
C23   N12   S    
C23   C34   A    
C49   H17   S    
O1    Zn2   S    
O20   Zn3   S    
C4    O22   A    
C38   O6    D    
C38   H41   S    
C48   N11   S    
O2    Zn2   S    
C53   H30   S    
C7    N6    S    
C44   H9    S    
H19   N12   S    
C3    C4    S    
H2    N10   S    
C50   H18   S    
C43   O10   D    
C17   C42   S    
C42   O9    D    
C15   C17   A    
C49   O15   D    
C36   C37   A    
C33   O3    A    
C36   N4    S    
C48   H14   S    
C46   O13   D    
C28   O24   A    
C9    H12   S    
C55   H37   S    
C3    C5    A    
C10   C13   A    
C37   N3    S    
C21   N8    S    
C47   O14   D    
C6    C7    A    
O12   Zn1   S    
C25   C27   A    
C40   H5    S    
C13   C17   A    
C28   O18   A    
C59   N2    S    
C52   H27   S    
C58   C59   A    
C54   H32   S    
N8    N9    D    
O21   Zn4   S    
C19   C50   S    
C5    C6    A    
C33   C35   S    
C56   C58   A    
N1    N5    D    
C53   H29   S    
C22   C24   A    
O1    Zn1   S    
C32   O2    A    
C51   H20   S    
C10   C11   A    
H28   N3    S    
O4    Zn3   S    
H33   N4    S    
C38   C56   S    
C20   C21   A    
C16   C29   S    
C26   C29   A    
C43   H8    S    
C53   H31   S    
C42   H7    S    
C14   C15   A    
C1    C14   S    
O5    Zn1   S    
C1    O21   A    
C4    O20   A    
C16   O23   A    
