data_mof_unit_43638.cif
_audit_creation_date              2012-12-10T17:02:05-0500
_audit_creation_method            fapswitch 2.2
_symmetry_space_group_name_H-M    P1
_symmetry_Int_Tables_number       1
_space_group_crystal_system       triclinic
_cell_length_a                    10.843605
_cell_length_b                    11.099267
_cell_length_c                    9.846617
_cell_angle_alpha                 110.137383
_cell_angle_beta                  97.660482
_cell_angle_gamma                 93.53909
_cell_volume                      1095.32397715

loop_
_atom_site_label
_atom_site_type_symbol
_atom_type_description
_atom_site_fract_x
_atom_site_fract_y
_atom_site_fract_z
_atom_type_partial_charge
C1    C     C_R   0.487630 0.253898 0.442594 0.716158
C2    C     C_2   0.426885 0.927836 0.493974 -0.103983
C3    C     C_2   0.502829 0.519718 0.082426 -0.045789
C4    C     C_R   0.264016 0.509537 0.504322 0.913285
C5    C     C_2   0.473993 0.506989 0.922853 0.565728
C6    C     C_R   0.501218 0.744436 0.557742 0.949985
C7    C     C_R   0.737690 0.502737 0.498697 0.929410
C8    C     C_R   0.160651 0.739722 0.715330 0.484392
C9    C     C_R   0.103467 0.846111 0.795743 -0.351533
C10   C     C_R   0.975024 0.846765 0.774215 -0.103536
C11   C     C_R   0.900125 0.744295 0.662772 0.461298
C12   C     C_R   0.083898 0.629188 0.607327 -0.049782
C13   C     C_R   0.951352 0.628989 0.591047 -0.166774
C14   C     C_3   0.612953 0.038917 0.260419 -0.279894
C15   C     C_3   0.257235 0.487752 0.888099 -0.203651
C16   C     C_3   0.273031 0.302889 0.081484 -0.007073
C17   C     C_3   0.343536 0.799575 0.888607 -0.173045
C18   C     C_2   0.919733 0.953822 0.873350 0.955338
C19   C     C_3   0.794770 0.802495 0.485443 -0.300197
C20   C     C_3   0.837123 0.316808 0.158590 -0.261155
C21   C     C_2   0.318915 0.846314 0.382449 0.919251
C22   C     C_2   0.425630 0.152126 0.669684 0.908165
C23   C     C_R   0.131636 0.519928 0.510839 -0.118596
C24   C     C_2   0.589300 0.968668 0.714618 0.944921
C25   C     C_R   0.050510 0.416937 0.407559 -0.299003
C26   C     C_R   0.921873 0.414813 0.398564 0.467684
C27   C     C_R   0.872336 0.516381 0.496357 -0.170857
C28   C     C_2   0.474192 0.113523 0.416418 0.309532
C29   C     C_2   0.439626 0.067963 0.519885 -0.172817
C30   C     C_2   0.500279 0.882297 0.585757 -0.276247
Cu1   Cu    Cu3+1 0.521920 0.521810 0.644910 1.056874
Cu2   Cu    Cu3+1 0.478080 0.478190 0.355090 0.992932
H1    H     H_    0.087596 0.335151 0.334330 0.153033
H2    H     H_    0.219313 0.545981 0.825032 0.168400
H3    H     H_    0.220102 0.388193 0.113602 0.108698
H4    H     H_    0.285632 0.260456 0.167968 0.164703
H5    H     H_    0.213791 0.228482 0.984885 0.172552
H6    H     H_    0.285438 0.771240 0.960221 0.137525
H7    H     H_    0.360525 0.906357 0.924687 0.221100
H8    H     H_    0.435732 0.764868 0.905283 0.201816
H9    H     H_    0.800858 0.003688 0.018079 0.313610
H10   H     H_    0.702285 0.821029 0.439135 0.180143
H11   H     H_    0.826684 0.724388 0.396102 0.143194
H12   H     H_    0.568157 0.600985 0.156425 0.062006
H13   H     H_    0.859337 0.893273 0.517539 0.195638
H14   H     H_    0.807448 0.410667 0.156778 0.155737
H15   H     H_    0.765570 0.239652 0.081524 0.186628
H16   H     H_    0.927875 0.301257 0.117972 0.184963
H17   H     H_    0.181199 0.698426 0.323648 0.313668
H18   H     H_    0.522643 0.253771 0.872043 0.362750
H19   H     H_    0.618034 0.062106 0.933429 0.320743
H20   H     H_    0.637523 0.603482 0.928788 0.148002
H21   H     H_    0.159368 0.930778 0.876562 0.192875
H22   H     H_    0.678762 0.033675 0.354834 0.165888
H23   H     H_    0.636842 0.129778 0.241075 0.208939
H24   H     H_    0.625576 0.957377 0.161478 0.192008
H25   H     H_    0.271870 0.549058 0.006509 0.110334
H26   H     H_    0.183071 0.407441 0.868142 0.182044
N1    N     N_2   0.445130 0.445430 0.137370 0.010143
N2    N     N_2   0.554930 0.554500 0.862630 -0.333049
O1    O     O_R   0.511700 0.332330 0.577400 -0.541447
O2    O     O_3   0.364699 0.434779 0.835185 -0.489622
O3    O     O_3   0.387671 0.330806 0.040269 -0.485149
O4    O     O_3   0.290429 0.745597 0.737661 -0.577379
O5    O     O_2   0.967665 0.065238 0.909063 -0.629979
O6    O     O_R   0.818180 0.925711 0.935152 -0.742197
O7    O     O_3   0.782910 0.766027 0.608018 -0.584757
O8    O     O_3   0.843995 0.309026 0.299439 -0.605729
O9    O     O_2   0.281581 0.873612 0.275096 -0.588646
O10   O     O_R   0.254071 0.744161 0.405275 -0.766519
O11   O     O_2   0.325728 0.146046 0.712948 -0.550623
O12   O     O_R   0.474680 0.295500 0.332650 -0.557936
O13   O     O_R   0.532487 0.225061 0.765799 -0.714674
O14   O     O_2   0.682363 0.026808 0.698304 -0.565937
O15   O     O_R   0.562057 0.987883 0.854623 -0.751007
O16   O     O_R   0.338160 0.518420 0.622400 -0.519775
O17   O     O_R   0.301140 0.481590 0.377650 -0.619135
O18   O     O_R   0.525320 0.704500 0.667350 -0.519250
O19   O     O_R   0.488300 0.667670 0.422600 -0.606840
O20   O     O_R   0.698860 0.518410 0.622350 -0.561374
O21   O     O_R   0.661840 0.481580 0.377600 -0.581536
O22   O     O_3   0.487095 0.026356 0.280277 -0.555599

loop_
_geom_bond_atom_site_label_1
_geom_bond_atom_site_label_2
_ccdc_geom_bond_type
C14   H24   S    
C22   C29   S    
Cu1   O1    S    
C6    O19   A    
Cu1   O20   S    
Cu2   O12   S    
C18   O5    D    
Cu2   O21   S    
C12   C23   A    
C26   C27   A    
C2    C29   S    
C28   C29   D    
H19   O15   S    
C17   O4    S    
C6    O18   A    
C7    C27   S    
C17   H7    S    
H20   N2    S    
Cu2   O17   S    
C11   O7    S    
C8    C9    A    
C1    C28   S    
C19   O7    S    
C16   O3    S    
C9    C10   A    
C15   H2    S    
C19   H10   S    
C16   H5    S    
C14   H23   S    
C15   H25   S    
C19   H11   S    
C3    H12   S    
C1    O12   A    
C28   O22   S    
H18   O13   S    
C4    C23   S    
C25   C26   A    
C6    C30   S    
C21   O9    D    
C17   H8    S    
Cu1   N2    S    
Cu1   Cu2   S    
C8    C12   A    
C2    C21   S    
C20   H16   S    
C8    O4    S    
C14   H22   S    
H17   O10   S    
C15   H26   S    
C9    H21   S    
C14   O22   S    
C22   O11   D    
Cu1   O18   S    
C5    N2    D    
C7    O21   A    
C20   O8    S    
C3    C5    S    
C1    O1    A    
C19   H13   S    
C24   O15   S    
H9    O6    S    
C18   O6    S    
N1    O3    S    
Cu2   N1    S    
C21   O10   S    
C2    C30   D    
C26   O8    S    
C4    O17   A    
C16   H3    S    
C16   H4    S    
Cu2   O19   S    
C11   C13   A    
C24   O14   D    
Cu1   O16   S    
C10   C18   S    
C15   O2    S    
C5    O2    S    
C17   H6    S    
C23   C25   A    
C24   C30   S    
C4    O16   A    
C20   H15   S    
C10   C11   A    
C12   C13   A    
C13   C27   A    
C22   O13   S    
C20   H14   S    
C25   H1    S    
C7    O20   A    
C3    N1    D    
