data_mof_unit_32821.cif
_audit_creation_date              2013-03-05T15:43:30-0500
_audit_creation_method            fapswitch 2.2
_symmetry_space_group_name_H-M    P1
_symmetry_Int_Tables_number       1
_space_group_crystal_system       triclinic
_cell_length_a                    14.443511
_cell_length_b                    16.130785
_cell_length_c                    6.920381
_cell_angle_alpha                 89.999988
_cell_angle_beta                  80.803424
_cell_angle_gamma                 89.999988
_cell_volume                      1591.62075669

loop_
_atom_site_label
_atom_site_type_symbol
_atom_site_description
_atom_site_fract_x
_atom_site_fract_y
_atom_site_fract_z
_atom_type_partial_charge
O1    O     O_R   0.337460 0.413110 0.524760 -0.572611
O2    O     O_R   0.662540 0.913110 0.475240 -0.572611
O3    O     O_R   0.348690 0.587910 0.191230 -0.573290
O4    O     O_R   0.651310 0.087910 0.808770 -0.573290
O5    O     O_R   0.166530 0.586890 0.082470 -0.549006
O6    O     O_R   0.833470 0.086890 0.917530 -0.549009
C1    C     C_R   0.370810 0.616532 0.353294 0.835875
C2    C     C_R   0.629189 0.116532 0.646706 0.835875
O7    O     O_R   0.348700 0.413830 0.191250 -0.556581
O8    O     O_R   0.651300 0.913830 0.808750 -0.556581
O9    O     O_R   0.166530 0.411570 0.082490 -0.522108
O10   O     O_R   0.833470 0.911570 0.917510 -0.522110
C3    C     C_R   0.371448 0.385623 0.353185 0.890279
C4    C     C_R   0.628551 0.885623 0.646815 0.890277
O11   O     O_R   0.337460 0.588430 0.524740 -0.572342
O12   O     O_R   0.662540 0.088430 0.475260 -0.572342
O13   O     O_3   0.192230 0.499460 0.407330 -0.247335
O14   O     O_3   0.807770 0.999460 0.592670 -0.247336
V1    V     V_3+5 0.263080 0.500100 0.108540 1.189065
V2    V     V_3+5 0.736920 0.000100 0.891460 1.189064
O15   O     O_R   0.155290 0.412090 0.756570 -0.556493
O16   O     O_R   0.844710 0.912090 0.243430 -0.556490
C5    C     C_R   0.133338 0.382474 0.933337 0.870810
C6    C     C_R   0.866661 0.882473 0.066663 0.870812
O17   O     O_R   0.155290 0.586170 0.756550 -0.571026
O18   O     O_R   0.844710 0.086170 0.243450 -0.571024
C7    C     C_R   0.130354 0.613397 0.933945 0.871237
C8    C     C_R   0.869646 0.113397 0.066055 0.871245
V3    V     V_3+5 0.240910 0.499900 0.616030 1.182772
V4    V     V_3+5 0.759090 0.999900 0.383970 1.182774
O19   O     O_3   0.311760 0.500540 0.867100 -0.290638
O20   O     O_3   0.688240 0.000540 0.132900 -0.290639
C9    C     C_3   0.109334 0.767766 0.938236 -0.233557
C10   C     C_3   0.890665 0.267766 0.061757 -0.233556
H1    H     H_    0.153995 0.775355 0.054198 0.074474
H2    H     H_    0.846007 0.275354 0.945789 0.074477
H3    H     H_    0.158869 0.768104 0.797760 0.133953
H4    H     H_    0.841126 0.268105 0.202228 0.133954
C11   C     C_3   0.037886 0.841532 0.951717 0.284796
C12   C     C_3   0.962113 0.341533 0.048281 0.284797
H5    H     H_    0.058167 0.885676 0.060831 0.101978
H6    H     H_    0.941832 0.385677 0.939168 0.101973
H7    H     H_    0.051265 0.679681 0.288975 0.122637
H8    H     H_    0.948739 0.179677 0.711025 0.122638
H9    H     H_    0.971847 0.801848 0.324577 0.155046
H10   H     H_    0.028153 0.301846 0.675423 0.155036
C13   C     C_3   0.002258 0.682462 0.180411 -0.137967
C14   C     C_3   0.997745 0.182461 0.819591 -0.137966
C15   C     C_3   0.985351 0.680014 0.818950 -0.146428
C16   C     C_3   0.014647 0.180016 0.181055 -0.146433
C17   C     C_3   0.057552 0.683011 0.967382 -0.134433
C18   C     C_3   0.942447 0.183011 0.032618 -0.134435
H11   H     H_    0.025890 0.696961 0.673740 0.099675
H12   H     H_    0.974107 0.196965 0.326263 0.099673
C19   C     C_3   0.935818 0.809979 0.028753 -0.190156
C20   C     C_3   0.064181 0.309979 0.971248 -0.190158
C21   C     C_3   0.940918 0.761305 0.221614 -0.251216
C22   C     C_3   0.059082 0.261304 0.778388 -0.251213
C23   C     C_3   0.907251 0.748107 0.872216 -0.141439
C24   C     C_3   0.092747 0.248108 0.127788 -0.141439
H13   H     H_    0.904914 0.783685 0.735240 0.131725
H14   H     H_    0.095083 0.283687 0.264763 0.131722
H15   H     H_    0.956933 0.626707 0.204289 0.219500
H16   H     H_    0.043071 0.126706 0.795721 0.219499
H17   H     H_    0.870044 0.744485 0.298947 0.168519
H18   H     H_    0.129957 0.244486 0.701056 0.168521
H19   H     H_    0.565696 0.807301 0.350889 0.115468
H20   H     H_    0.434304 0.307301 0.649111 0.115468
H21   H     H_    0.433646 0.694893 0.649156 0.110413
H22   H     H_    0.566354 0.194893 0.350844 0.110413
C25   C     C_2   0.440035 0.684347 0.342506 -0.198135
C26   C     C_2   0.559965 0.184347 0.657494 -0.198134
C27   C     C_2   0.464748 0.717561 0.505426 -0.079503
C28   C     C_2   0.535252 0.217561 0.494574 -0.079503
H23   H     H_    0.526924 0.795697 0.800904 0.057552
H24   H     H_    0.473076 0.295697 0.199096 0.057551
C29   C     C_2   0.558500 0.818491 0.657631 -0.186161
C30   C     C_2   0.441500 0.318491 0.342369 -0.186163
C31   C     C_2   0.534092 0.785044 0.494670 -0.069574
C32   C     C_2   0.465908 0.285044 0.505330 -0.069574
H25   H     H_    0.471118 0.707539 0.199260 0.066399
H26   H     H_    0.528882 0.207539 0.800740 0.066399
C33   C     C_2   0.808503 0.713784 0.930807 0.857043
O21   O     O_2   0.789788 0.666948 0.070538 -0.592827
O22   O     O_R   0.739271 0.734569 0.819564 -0.750237
H27   H     H_    0.676741 0.707552 0.870419 0.307078
C34   C     C_2   0.191495 0.213785 0.069200 0.857047
O23   O     O_2   0.210210 0.166948 0.929470 -0.592833
O24   O     O_R   0.260726 0.234571 0.180444 -0.750235
H28   H     H_    0.323256 0.207553 0.129590 0.307078
N1    N     N_R   0.043293 0.885903 0.763900 0.092607
O25   O     O_R   0.016828 0.962876 0.762119 -0.327062
O26   O     O_R   0.073359 0.849713 0.597576 -0.421329
N2    N     N_R   0.956705 0.385902 0.236100 0.092609
O27   O     O_R   0.983181 0.462872 0.237886 -0.327056
O28   O     O_R   0.926626 0.349715 0.402421 -0.421323
C35   C     C_2   0.945770 0.595289 0.783580 0.898177
O29   O     O_2   0.947779 0.539012 0.900428 -0.593376
O30   O     O_R   0.905095 0.582547 0.615790 -0.730147
H29   H     H_    0.880252 0.524089 0.607520 0.357899
C36   C     C_2   0.054228 0.095291 0.216432 0.898184
O31   O     O_2   0.052212 0.039011 0.099596 -0.593378
O32   O     O_R   0.094908 0.082554 0.384216 -0.730152
H30   H     H_    0.119751 0.024096 0.392493 0.357899

loop_
_geom_bond_atom_site_label_1
_geom_bond_atom_site_label_2
_geom_bond_distance
_ccdc_geom_bond_type
H20   C32   1.087271 S    
V4    O20   2.152798 S    
C34   O23   1.222862 D    
C36   O31   1.219145 D    
C19   C23   1.575668 S    
O13   V3    1.704397 S    
O4    C2    1.299092 A    
V1    O19   1.706065 S    
C35   O29   1.219144 D    
C5    C20   1.533072 S    
C11   H5    1.110747 S    
O22   H27   1.013838 S    
C6    C19   1.533071 S    
O9    V1    2.024078 S    
C9    C11   1.568041 S    
C10   C12   1.568043 S    
H24   C30   1.087071 S    
C23   C33   1.523259 S    
O3    C1    1.299091 A    
C1    C25   1.475823 S    
C30   C32   1.346949 D    
C14   H16   1.109128 S    
C13   C21   1.550140 S    
O12   V4    2.025229 S    
C24   H14   1.113236 S    
C4    C29   1.475732 S    
O7    C3    1.299438 A    
O13   V1    2.155573 S    
O5    C7    1.297680 A    
O7    V1    2.004931 S    
O6    C8    1.297679 A    
C33   O21   1.222861 D    
O8    V2    2.004932 S    
C15   C17   1.577160 S    
H22   C28   1.087216 S    
C16   C18   1.577161 S    
O3    V1    2.022106 S    
O14   V4    1.704396 S    
C10   H2    1.113811 S    
C12   H6    1.110746 S    
C36   O32   1.397769 S    
C28   C32   1.473020 S    
H10   C22   1.112082 S    
C11   N1    1.474896 S    
C35   O30   1.397768 S    
C24   C34   1.523257 S    
C7    C17   1.530503 S    
O11   V3    2.025227 S    
C29   C31   1.346948 D    
O17   V3    2.006773 S    
C11   C19   1.570144 S    
C23   H13   1.113236 S    
C2    C26   1.475823 S    
H19   C31   1.087270 S    
C26   C28   1.346952 D    
O8    C4    1.299437 A    
C12   N2    1.474898 S    
N1    O25   1.299787 A    
C25   C27   1.346951 D    
C13   C17   1.560437 S    
C1    O11   1.289399 A    
C12   C20   1.570145 S    
O15   V3    2.024130 S    
C9    H3    1.111154 S    
C9    C17   1.555939 S    
C20   C24   1.575670 S    
N2    O28   1.301709 A    
N1    O26   1.301712 A    
O30   H29   1.013802 S    
H9    C21   1.112081 S    
O10   V2    2.024077 S    
O1    V3    2.005508 S    
C27   C31   1.473021 S    
C16   H12   1.113254 S    
H21   C27   1.087216 S    
H23   C29   1.087071 S    
C33   O22   1.396799 S    
O18   V4    2.006771 S    
C19   C21   1.560336 S    
O16   C6    1.304311 A    
O1    C3    1.288838 A    
C22   H18   1.110317 S    
V2    O20   1.706066 S    
C3    C30   1.475731 S    
O16   V4    2.024130 S    
C10   H4    1.111154 S    
C10   C18   1.555940 S    
C21   H17   1.110315 S    
C14   C22   1.550141 S    
O5    V1    2.004403 S    
O17   C7    1.299376 A    
O6    V2    2.004404 S    
O10   C6    1.293722 A    
O18   C8    1.299377 A    
C15   C23   1.575398 S    
O2    V4    2.005508 S    
C16   C24   1.575398 S    
O15   C5    1.304312 A    
V3    O19   2.152796 S    
C13   H15   1.109127 S    
C8    C18   1.530503 S    
C15   H11   1.113254 S    
O9    C5    1.293721 A    
C9    H1    1.113811 S    
C20   C22   1.560337 S    
O14   V2    2.155571 S    
N2    O27   1.299783 A    
O2    C4    1.288838 A    
C15   C35   1.516341 S    
O4    V2    2.022105 S    
C14   C18   1.560436 S    
C16   C36   1.516343 S    
C2    O12   1.289399 A    
O32   H30   1.013802 S    
C34   O24   1.396800 S    
O24   H28   1.013837 S    
H7    C13   1.112419 S    
C26   H26   1.087183 S    
H8    C14   1.112419 S    
C25   H25   1.087183 S    
