data_mof_unit_49593.cif
_audit_creation_date              2013-03-05T15:52:20-0500
_audit_creation_method            fapswitch 2.2
_symmetry_space_group_name_H-M    P1
_symmetry_Int_Tables_number       1
_space_group_crystal_system       triclinic
_cell_length_a                    14.936424
_cell_length_b                    15.677178
_cell_length_c                    10.042727
_cell_angle_alpha                 91.086898
_cell_angle_beta                  92.057457
_cell_angle_gamma                 88.710433
_cell_volume                      2349.11534608

loop_
_atom_site_label
_atom_site_type_symbol
_atom_site_description
_atom_site_fract_x
_atom_site_fract_y
_atom_site_fract_z
_atom_type_partial_charge
O1    O     O_R   0.408390 0.908380 0.614690 -0.665490
O2    O     O_R   0.408390 0.091620 0.614690 -0.607325
O3    O     O_R   0.908390 0.408380 0.614690 -0.665516
O4    O     O_R   0.908390 0.591620 0.614690 -0.607088
O5    O     O_R   0.408370 0.908380 0.385360 -0.609408
O6    O     O_R   0.408370 0.091620 0.385360 -0.649946
O7    O     O_R   0.908370 0.408380 0.385360 -0.609268
O8    O     O_R   0.908370 0.591620 0.385360 -0.650755
C1    C     C_R   0.384618 0.876410 0.498356 0.865262
C2    C     C_R   0.392957 0.128637 0.499936 0.885605
C3    C     C_R   0.884604 0.376419 0.498356 0.865165
C4    C     C_R   0.892944 0.628630 0.499935 0.885695
Zn1   Zn    Zn3+2 0.500010 0.000000 0.653130 0.975567
Zn2   Zn    Zn3+2 0.000010 0.500000 0.653130 0.975666
Zn3   Zn    Zn3+2 0.499980 0.000000 0.346870 1.030423
Zn4   Zn    Zn3+2 0.999980 0.500000 0.346870 1.030094
O9    O     O_R   0.591620 0.091610 0.614640 -0.646609
O10   O     O_R   0.591620 0.908390 0.614640 -0.633460
O11   O     O_R   0.091620 0.591610 0.614640 -0.646608
O12   O     O_R   0.091620 0.408390 0.614640 -0.633536
O13   O     O_R   0.591610 0.091610 0.385310 -0.560252
O14   O     O_R   0.591610 0.908390 0.385310 -0.582644
O15   O     O_R   0.091610 0.591610 0.385310 -0.560238
O16   O     O_R   0.091610 0.408390 0.385310 -0.582479
C5    C     C_R   0.617909 0.122216 0.503369 0.867999
C6    C     C_R   0.621582 0.879997 0.501664 0.891780
C7    C     C_R   0.117938 0.622193 0.503372 0.868057
C8    C     C_R   0.121596 0.380004 0.501672 0.891804
H1    H     H_    0.334495 0.221091 0.286257 0.233511
H2    H     H_    0.278740 0.822025 0.294756 0.243977
H3    H     H_    0.834353 0.720937 0.286253 0.232633
H4    H     H_    0.778677 0.322096 0.294771 0.244025
C9    C     C_R   0.383395 0.248795 0.733256 -0.251659
C10   C     C_R   0.377309 0.758704 0.721137 -0.293893
C11   C     C_R   0.883385 0.748878 0.733185 -0.251475
C12   C     C_R   0.877200 0.258738 0.721158 -0.293969
H5    H     H_    0.453891 0.232362 0.724936 0.181703
H6    H     H_    0.444716 0.778355 0.704195 0.232129
H7    H     H_    0.953886 0.732461 0.724881 0.181710
H8    H     H_    0.944624 0.278340 0.704217 0.232181
C13   C     C_R   0.348486 0.264493 0.858088 0.417473
C14   C     C_R   0.357023 0.732905 0.847988 0.359409
C15   C     C_R   0.848471 0.764644 0.857990 0.417280
C16   C     C_R   0.856880 0.232964 0.848008 0.359203
C17   C     C_R   0.755007 0.770643 0.867153 0.374242
C18   C     C_R   0.773253 0.198907 0.868381 0.394871
C19   C     C_R   0.255020 0.270579 0.867229 0.374177
C20   C     C_R   0.273434 0.698778 0.868372 0.394532
C21   C     C_R   0.703208 0.793417 0.752680 -0.282870
C22   C     C_R   0.712297 0.189471 0.760009 -0.303166
C23   C     C_R   0.203245 0.293423 0.752749 -0.282947
C24   C     C_R   0.212472 0.689310 0.760012 -0.303331
H9    H     H_    0.631787 0.798624 0.758594 0.244393
H10   H     H_    0.647839 0.166099 0.783178 0.237267
H11   H     H_    0.131830 0.298711 0.758687 0.244356
H12   H     H_    0.148052 0.665873 0.783218 0.237344
C25   C     C_R   0.741973 0.792461 0.626799 0.045527
C26   C     C_R   0.733814 0.212820 0.629485 0.043049
C27   C     C_R   0.242007 0.292467 0.626853 0.045672
C28   C     C_R   0.233933 0.712718 0.629485 0.043168
C29   C     C_R   0.326321 0.252322 0.619271 0.077597
C30   C     C_R   0.312590 0.758631 0.615862 0.012078
C31   C     C_R   0.826296 0.752335 0.619218 0.077476
C32   C     C_R   0.812495 0.258693 0.615870 0.012136
C33   C     C_R   0.347406 0.211644 0.499393 -0.112667
C34   C     C_R   0.324234 0.804415 0.498095 -0.113450
C35   C     C_R   0.847361 0.711617 0.499369 -0.112644
C36   C     C_R   0.824175 0.304457 0.498097 -0.113426
C37   C     C_R   0.310183 0.242936 0.380909 -0.150011
C38   C     C_R   0.268672 0.789451 0.386583 -0.053431
C39   C     C_R   0.810085 0.742847 0.380884 -0.149717
C40   C     C_R   0.768598 0.289520 0.386591 -0.054188
H13   H     H_    0.714129 0.827403 0.293086 0.222147
H14   H     H_    0.660362 0.219268 0.301759 0.242962
H15   H     H_    0.214227 0.327495 0.293129 0.222136
H16   H     H_    0.160446 0.719197 0.301759 0.243213
C41   C     C_R   0.739211 0.800730 0.384963 -0.082296
C42   C     C_R   0.700076 0.231998 0.391913 -0.127864
C43   C     C_R   0.239294 0.300804 0.385005 -0.082908
C44   C     C_R   0.200162 0.731923 0.391913 -0.127727
C45   C     C_R   0.698751 0.820523 0.505924 -0.117902
C46   C     C_R   0.682299 0.191797 0.511285 -0.121984
C47   C     C_R   0.198797 0.320554 0.505961 -0.117744
C48   C     C_R   0.182385 0.691726 0.511291 -0.122036
C49   C     C_R   0.341046 0.984241 0.138523 -0.183722
C50   C     C_R   0.841050 0.484236 0.138529 -0.184672
H17   H     H_    0.338147 0.997678 0.242132 0.231952
H18   H     H_    0.838154 0.497674 0.242137 0.232005
C51   C     C_R   0.263029 0.956965 0.074664 0.459512
C52   C     C_R   0.763020 0.456990 0.074671 0.459755
C53   C     C_R   0.260753 0.946527 0.938265 -0.248511
C54   C     C_R   0.760740 0.446553 0.938273 -0.248396
H19   H     H_    0.197067 0.930003 0.889787 0.191818
H20   H     H_    0.697048 0.430044 0.889799 0.191785
C55   C     C_R   0.330840 0.975733 0.863225 -0.095452
C56   C     C_R   0.830835 0.475741 0.863229 -0.095502
C57   C     C_R   0.418044 0.992909 0.925641 0.198626
C58   C     C_R   0.918043 0.492911 0.925643 0.198962
C59   C     C_R   0.420195 0.994175 0.070051 0.156533
C60   C     C_R   0.920196 0.494178 0.070052 0.155425
N1    N     N_R   0.498810 0.000000 0.142780 -0.134350
N2    N     N_R   0.998810 0.500000 0.142780 -0.134568
C61   C     C_R   0.577019 0.993477 0.073330 0.056545
C62   C     C_R   0.077019 0.493480 0.073329 0.057128
H21   H     H_    0.638233 0.991955 0.878946 0.177856
H22   H     H_    0.138237 0.491981 0.878952 0.177682
C63   C     C_R   0.576322 0.997219 0.931266 -0.107492
C64   C     C_R   0.076323 0.497228 0.931267 -0.107400
N3    N     N_R   0.498740 1.000000 0.857170 -0.128066
N4    N     N_R   0.998740 0.500000 0.857170 -0.127992
C65   C     C_2   0.291145 0.013637 0.742399 0.603942
H23   H     H_    0.269600 0.973939 0.658390 0.050818
O17   O     O_2   0.265456 0.087947 0.745280 -0.544665
C66   C     C_2   0.791146 0.513627 0.742385 0.604131
H24   H     H_    0.769586 0.473915 0.658402 0.050586
O18   O     O_2   0.765476 0.587944 0.745228 -0.544454
S1    S     S_3+6 0.422497 0.279769 0.996610 0.090813
O19   O     O_2   0.502934 0.325922 0.951940 -0.226772
O20   O     O_2   0.376870 0.332392 0.102080 -0.291852
O21   O     O_3   0.456398 0.185292 0.058747 -0.511954
H25   H     H_    0.486826 0.199352 0.145480 0.393061
S2    S     S_3+6 0.436255 0.749708 0.978061 0.099295
O22   O     O_2   0.395484 0.802060 0.087934 -0.326046
O23   O     O_2   0.470490 0.665911 0.031859 -0.109062
O24   O     O_3   0.519867 0.803868 0.918036 -0.585486
H26   H     H_    0.533774 0.845680 0.989179 0.373370
S3    S     S_3+6 0.922460 0.779954 0.996493 0.091139
O25   O     O_2   0.002306 0.827117 0.952220 -0.225009
O26   O     O_2   0.876473 0.831618 0.102649 -0.293422
O27   O     O_3   0.957377 0.685440 0.057303 -0.511260
H27   H     H_    0.985582 0.698981 0.145745 0.392490
S4    S     S_3+6 0.936138 0.249687 0.978073 0.099364
O28   O     O_2   0.895436 0.302070 0.087971 -0.325907
O29   O     O_2   0.970296 0.165857 0.031847 -0.109316
O30   O     O_3   0.019794 0.303774 0.918015 -0.585171
H28   H     H_    0.033625 0.345706 0.989027 0.373313
S5    S     S_3+6 0.703235 0.713696 0.991846 0.093202
O31   O     O_2   0.658282 0.773078 0.087844 -0.364033
O32   O     O_2   0.634996 0.656308 0.926113 -0.155649
O33   O     O_3   0.777656 0.652978 0.076777 -0.543443
H29   H     H_    0.743837 0.632406 0.152446 0.386330
S6    S     S_3+6 0.750342 0.144958 0.014325 0.056960
O34   O     O_2   0.652072 0.154538 0.038233 -0.301343
O35   O     O_2   0.775938 0.053800 0.983581 -0.355834
O36   O     O_3   0.806725 0.174894 0.154137 -0.470745
H30   H     H_    0.814754 0.122575 0.207376 0.408991
S7    S     S_3+6 0.203136 0.213755 0.991972 0.093210
O37   O     O_2   0.158208 0.273241 0.087848 -0.364399
O38   O     O_2   0.134853 0.156417 0.926230 -0.155533
O39   O     O_3   0.277399 0.152970 0.077082 -0.542246
H31   H     H_    0.243505 0.132472 0.152729 0.386381
S8    S     S_3+6 0.250560 0.644833 0.014347 0.057099
O40   O     O_2   0.152307 0.654462 0.038339 -0.300038
O41   O     O_2   0.276093 0.553664 0.983577 -0.355805
O42   O     O_3   0.307001 0.674732 0.154133 -0.470647
H32   H     H_    0.314821 0.622456 0.207495 0.408940
C67   C     C_2   0.663296 0.968812 0.138977 0.588256
H33   H     H_    0.707374 0.923926 0.088581 0.096949
O43   O     O_2   0.690798 0.002666 0.241828 -0.527661
C68   C     C_2   0.163301 0.468832 0.138975 0.588302
H34   H     H_    0.207399 0.423973 0.088563 0.097058
O44   O     O_2   0.190787 0.502671 0.241846 -0.527804
S9    S     S_3+6 0.163682 0.947308 0.162284 0.043176
O45   O     O_2   0.091915 0.004340 0.101020 -0.162066
O46   O     O_2   0.134000 0.856514 0.151047 -0.267412
O47   O     O_3   0.180368 0.975041 0.323806 -0.620201
H35   H     H_    0.126055 0.956591 0.368099 0.391145
S10   S     S_3+6 0.663661 0.447397 0.162291 0.043347
O48   O     O_2   0.591897 0.504399 0.100954 -0.161463
O49   O     O_2   0.633971 0.356604 0.151159 -0.268312
O50   O     O_3   0.680342 0.475216 0.323782 -0.619706
H36   H     H_    0.626437 0.456003 0.368348 0.390816

loop_
_geom_bond_atom_site_label_1
_geom_bond_atom_site_label_2
_geom_bond_distance
_ccdc_geom_bond_type
O50   H36   0.990557 S    
C21   H9    1.071756 S    
C67   H33   1.083674 S    
C58   N4    1.416501 A    
C39   C41   1.379935 A    
Zn4   O16   1.994848 S    
C65   H23   1.082707 S    
O10   C6    1.301548 A    
O3    C3    1.303164 A    
C54   C56   1.401721 A    
C44   C48   1.401433 A    
C9    C29   1.403698 A    
C11   C15   1.390468 A    
C66   H24   1.082708 S    
O30   H28   0.980385 S    
H4    C40   1.079396 S    
C34   C38   1.389233 A    
C4    C35   1.454758 S    
C3    C36   1.460469 S    
O7    C3    1.312751 A    
H21   C63   1.080652 S    
C22   H10   1.072630 S    
Zn1   O10   2.003204 S    
C32   C36   1.413061 A    
C7    C48   1.469576 S    
S9    O46   1.501342 D    
C27   C47   1.426769 A    
S1    O20   1.503438 D    
O36   H30   0.990257 S    
C50   H18   1.059914 S    
C10   C30   1.406717 A    
C21   C25   1.408937 A    
C28   C30   1.403728 A    
O2    Zn1   1.994860 S    
C1    C34   1.460451 S    
Zn1   N3    2.049887 S    
C24   C28   1.417553 A    
S7    O37   1.493756 D    
C57   C59   1.449236 A    
O6    Zn3   2.003314 S    
C11   C31   1.403639 A    
Zn3   O14   1.994848 S    
S9    O45   1.502458 D    
S4    O28   1.501127 D    
C56   C58   1.453540 A    
C40   C42   1.382328 A    
H16   C44   1.082290 S    
O15   C7    1.320513 A    
C51   C53   1.375770 A    
C50   C60   1.401940 A    
O4    C4    1.310831 A    
C23   H11   1.071756 S    
C36   C40   1.389245 A    
C52   S10   1.763002 S    
H3    C39   1.076702 S    
C67   O43   1.214843 D    
C8    C47   1.466203 S    
C63   N3    1.354802 A    
S6    O36   1.675965 S    
C56   C66   1.461802 S    
C62   C68   1.473447 S    
C17   S5    1.762432 S    
H2    C38   1.079406 S    
C16   C18   1.392714 A    
C25   C31   1.399002 A    
H1    C37   1.076834 S    
C49   H17   1.059925 S    
C26   C32   1.403679 A    
S5    O33   1.668627 S    
C31   C35   1.394339 A    
C27   C29   1.399016 A    
C30   C34   1.413079 A    
C38   C44   1.382272 A    
C22   C26   1.417490 A    
Zn2   O12   2.003204 S    
C12   H8    1.079714 S    
S9    O47   1.682709 S    
O1    C1    1.303160 A    
O33   H29   0.990383 S    
C18   S6    1.754063 S    
C50   C52   1.382186 A    
S1    O21   1.678743 S    
C15   S3    1.761404 S    
C49   C51   1.382186 A    
C61   C67   1.473452 S    
C19   C23   1.409752 A    
O12   C8    1.301520 A    
C9    H5    1.084144 S    
C68   O44   1.214834 D    
C11   H7    1.084146 S    
S3    O26   1.503048 D    
O5    C1    1.312745 A    
C49   C59   1.401939 A    
C10   C14   1.389627 A    
C53   H19   1.087218 S    
S5    O32   1.501512 D    
C42   C46   1.401410 A    
C52   C54   1.375759 A    
S8    O42   1.675997 S    
C17   C21   1.409596 A    
O8    C4    1.304380 A    
S7    O39   1.668611 S    
C54   H20   1.087221 S    
C5    C46   1.469579 S    
C13   C19   1.403345 A    
C65   O17   1.218457 D    
C14   C20   1.392680 A    
Zn3   N1    2.049067 S    
N2    C62   1.382738 A    
C15   C17   1.403275 A    
O3    Zn2   2.028385 S    
S4    O29   1.502024 D    
O7    Zn4   2.057261 S    
C59   N1    1.364304 A    
S8    O41   1.500321 D    
Zn4   O15   2.028372 S    
C58   C60   1.449240 A    
C20   S8    1.754154 S    
O14   C6    1.318016 A    
O47   H35   0.990461 S    
C25   C45   1.426576 A    
C6    C45   1.466061 S    
C37   C43   1.379963 A    
C23   C27   1.409050 A    
S2    O23   1.502012 D    
S3    O25   1.502321 D    
O2    C2    1.310841 A    
C62   C64   1.428670 A    
S6    O35   1.500323 D    
O11   C7    1.301310 A    
O21   H25   0.991288 S    
C14   S2    1.751078 S    
C60   N2    1.364292 A    
N1    C61   1.382735 A    
C2    C33   1.454817 S    
Zn4   N2    2.049067 S    
Zn2   N4    2.049887 S    
O13   C5    1.320494 A    
S10   O48   1.502443 D    
S7    O38   1.501510 D    
C10   H6    1.079715 S    
Zn2   O11   2.057146 S    
O16   C8    1.318110 A    
O6    C2    1.304401 A    
C66   O18   1.218458 D    
C55   C57   1.453518 A    
C16   S4    1.751090 S    
S5    O31   1.493730 D    
C18   C22   1.401472 A    
O39   H31   0.990406 S    
Zn1   O9    2.057146 S    
C9    C13   1.390510 A    
C68   H34   1.083660 S    
S2    O24   1.662886 S    
C26   C46   1.428547 A    
C57   N3    1.416483 A    
S3    O27   1.678427 S    
O9    C5    1.301333 A    
C19   S7    1.762577 S    
C55   C65   1.461804 S    
S1    O19   1.502784 D    
C43   C47   1.402626 A    
C28   C48   1.428643 A    
O24   H26   0.980309 S    
Zn3   O13   2.028372 S    
H22   C64   1.080658 S    
S4    O30   1.662925 S    
C33   C37   1.388529 A    
S10   O49   1.501334 D    
C64   N4    1.354813 A    
O27   H27   0.990680 S    
C35   C39   1.388471 A    
O4    Zn2   1.994860 S    
O5    Zn3   2.057261 S    
C12   C16   1.389631 A    
C53   C55   1.401710 A    
C29   C33   1.394391 A    
C20   C24   1.401489 A    
O1    Zn1   2.028385 S    
S8    O40   1.499533 D    
O8    Zn4   2.003314 S    
C41   C45   1.402550 A    
H14   C42   1.082285 S    
O42   H32   0.990116 S    
H13   C41   1.072070 S    
S6    O34   1.499553 D    
C61   C63   1.428683 A    
S10   O50   1.682738 S    
C13   S1    1.761679 S    
S2    O22   1.501125 D    
C12   C32   1.406670 A    
H15   C43   1.072102 S    
C51   S9    1.762974 S    
C24   H12   1.072576 S    
