data_mof_unit_24696.cif
_audit_creation_date              2013-03-05T15:57:19-0500
_audit_creation_method            fapswitch 2.2
_symmetry_space_group_name_H-M    P1
_symmetry_Int_Tables_number       1
_space_group_crystal_system       triclinic
_cell_length_a                    7.370184
_cell_length_b                    16.991666
_cell_length_c                    19.171835
_cell_angle_alpha                 104.940116
_cell_angle_beta                  88.165095
_cell_angle_gamma                 89.285786
_cell_volume                      2318.03714166

loop_
_atom_site_label
_atom_site_type_symbol
_atom_site_description
_atom_site_fract_x
_atom_site_fract_y
_atom_site_fract_z
_atom_type_partial_charge
O1    O     O_R   0.505770 0.442340 0.559500 -0.564064
O2    O     O_R   0.168070 0.405470 0.411510 -0.481095
O3    O     O_R   0.005580 0.557660 0.440500 -0.555014
C1    C     C_R   0.339788 0.382038 0.384550 1.139975
O4    O     O_R   0.175550 0.432860 0.557160 -0.541230
O5    O     O_R   0.013110 0.585240 0.587190 -0.540857
C2    C     C_R   0.343036 0.417622 0.580572 1.050938
O6    O     O_R   0.498240 0.414760 0.412810 -0.575964
O7    O     O_3   0.341770 0.549960 0.509680 -0.237339
V1    V     V_3+5 0.063870 0.490730 0.498200 1.382917
O8    O     O_R   0.683850 0.594530 0.588490 -0.512014
C3    C     C_R   0.849371 0.616657 0.616880 1.159530
O9    O     O_R   0.676380 0.567140 0.442840 -0.543151
C4    C     C_R   0.845340 0.583301 0.420166 1.038052
V2    V     V_3+5 0.564820 0.509270 0.501800 1.399274
O10   O     O_3   0.836790 0.450040 0.490320 -0.275216
C5    C     C_1   0.856767 0.635315 0.367687 -0.140260
C6    C     C_1   0.867946 0.677983 0.323830 0.145499
C7    C     C_1   0.882118 0.728379 0.271704 0.086356
C8    C     C_1   0.894284 0.770870 0.227713 0.085392
C9    C     C_1   0.908523 0.821281 0.175603 0.147543
C10   C     C_1   0.919821 0.863972 0.131772 -0.064685
C11   C     C_3   0.716151 0.807970 0.791058 0.217244
H1    H     H_    0.699127 0.871067 0.788019 0.184082
C12   C     C_3   0.707694 0.754141 0.710744 0.349155
C13   C     C_3   0.920832 0.712307 0.833509 0.031244
C14   C     C_3   0.048885 0.809462 0.761456 -0.052368
C15   C     C_3   0.904397 0.802514 0.821511 -0.597293
H2    H     H_    0.172058 0.799785 0.787653 0.245025
C16   C     C_3   0.860284 0.683779 0.692357 -0.754264
C17   C     C_3   0.869665 0.638227 0.762913 0.527874
C18   C     C_3   0.034122 0.739301 0.686621 0.462105
H3    H     H_    0.065799 0.705331 0.837884 0.172014
C19   C     C_3   0.550076 0.268081 0.301921 -0.428908
H4    H     H_    0.647135 0.316052 0.303269 0.301627
H5    H     H_    0.592411 0.248800 0.348899 0.261247
C20   C     C_3   0.577985 0.195530 0.230577 0.323878
H6    H     H_    0.684686 0.214715 0.198160 0.224747
C21   C     C_3   0.332707 0.346393 0.240321 0.421304
C22   C     C_3   0.232368 0.233962 0.318481 0.650047
C23   C     C_3   0.355408 0.310324 0.312459 -0.578058
C24   C     C_3   0.404903 0.185642 0.186699 -0.660443
C25   C     C_3   0.347792 0.270616 0.166028 0.368715
C26   C     C_3   0.258198 0.164433 0.242352 0.037179
H7    H     H_    0.137290 0.166563 0.213467 0.213159
C27   C     C_1   0.351730 0.365616 0.633265 -0.162668
C28   C     C_1   0.364045 0.322885 0.677018 0.126125
C29   C     C_1   0.381351 0.272294 0.728892 0.056878
C30   C     C_1   0.396467 0.229585 0.772562 0.065435
C31   C     C_1   0.413686 0.178772 0.824272 0.136056
C32   C     C_1   0.425871 0.135684 0.867751 -0.188332
O11   O     O_R   0.278700 0.085270 0.087180 -0.545155
O12   O     O_R   0.601470 0.067150 0.942830 -0.569671
O13   O     O_R   0.763830 0.914750 0.912810 -0.543280
C33   C     C_R   0.434169 0.083115 0.919977 1.023597
O14   O     O_R   0.608870 0.094540 0.088490 -0.575471
O15   O     O_R   0.771290 0.942340 0.059510 -0.557436
C34   C     C_R   0.434609 0.116483 0.115152 1.184688
O16   O     O_R   0.271240 0.057690 0.940480 -0.548140
O17   O     O_3   0.435150 0.950050 0.990310 -0.219266
V3    V     V_3+5 0.713080 0.009270 0.001800 1.341982
O18   O     O_R   0.100490 0.932820 0.057180 -0.546873
C35   C     C_R   0.931432 0.916050 0.079349 0.970049
O19   O     O_R   0.093090 0.905430 0.911530 -0.554105
C36   C     C_R   0.924515 0.877335 0.889380 1.116752
V4    V     V_3+5 0.212120 0.990690 0.998230 1.365753
O20   O     O_3   0.940180 0.049940 0.009690 -0.290245
S1    S     S_3+6 0.523361 0.805808 0.857055 0.057511
O21   O     O_2   0.581264 0.808793 0.932255 -0.247314
O22   O     O_2   0.417100 0.881897 0.858357 -0.262321
O23   O     O_3   0.377713 0.731509 0.841355 -0.441363
H8    H     H_    0.329151 0.728820 0.889512 0.390046
N1    N     N_R   0.180594 0.681271 0.678440 0.262524
O24   O     O_R   0.230924 0.660392 0.734411 -0.333838
O25   O     O_R   0.278840 0.658472 0.618733 -0.216679
N2    N     N_R   0.012513 0.572986 0.751190 0.272484
O26   O     O_R   0.100223 0.561192 0.805878 -0.262848
O27   O     O_R   0.023362 0.514971 0.691680 -0.371398
S2    S     S_3+6 0.665599 0.094952 0.239304 0.082645
O28   O     O_2   0.655448 0.086692 0.315278 -0.089448
O29   O     O_2   0.575342 0.021499 0.193854 -0.287370
O30   O     O_3   0.881344 0.083762 0.209427 -0.466792
H9    H     H_    0.878012 0.076526 0.156739 0.360012
S3    S     S_3+6 0.515528 0.422626 0.238564 0.023301
O31   O     O_2   0.476820 0.472062 0.185764 -0.167259
O32   O     O_2   0.527970 0.482968 0.310455 -0.308175
O33   O     O_3   0.721167 0.378956 0.213709 -0.455065
H10   H     H_    0.792330 0.420740 0.197970 0.429337
N3    N     N_R   0.485774 0.290931 0.114779 0.265564
O34   O     O_R   0.634150 0.248373 0.093319 -0.352492
O35   O     O_R   0.445225 0.345138 0.080182 -0.221810
S4    S     S_3+6 0.993678 0.253988 0.327656 0.006537
O36   O     O_2   0.932371 0.272571 0.260338 -0.288345
O37   O     O_2   0.916730 0.175904 0.333884 -0.205687
O38   O     O_3   0.904534 0.322320 0.399362 -0.452529
H11   H     H_    0.865123 0.291543 0.434436 0.368157
S5    S     S_3+6 0.269506 0.203293 0.404695 0.031328
O39   O     O_2   0.147111 0.135457 0.412292 -0.153828
O40   O     O_2   0.458499 0.177374 0.416402 -0.233587
O41   O     O_3   0.212145 0.281740 0.474917 -0.607825
H12   H     H_    0.166796 0.257266 0.513614 0.363400
N4    N     N_R   0.258712 0.078176 0.246546 0.305348
O42   O     O_R   0.314012 0.054780 0.301603 -0.193834
O43   O     O_R   0.205214 0.021266 0.192349 -0.350464
N5    N     N_R   0.162743 0.396458 0.243105 0.262746
O44   O     O_R   0.049681 0.413184 0.298148 -0.331524
O45   O     O_R   0.149583 0.444902 0.200781 -0.272334
S6    S     S_3+6 0.141964 0.255510 0.108755 0.065702
O46   O     O_2   0.997923 0.201438 0.125873 -0.266379
O47   O     O_2   0.050139 0.333089 0.104302 -0.152746
O48   O     O_3   0.217742 0.211749 0.023946 -0.545361
H13   H     H_    0.111879 0.212221 0.993442 0.378915
N6    N     N_R   0.702509 0.802431 0.656133 0.266052
O49   O     O_R   0.668283 0.763824 0.589945 -0.295467
O50   O     O_R   0.660239 0.879986 0.675221 -0.281429
N7    N     N_R   0.539258 0.723205 0.708509 0.294352
O51   O     O_R   0.518742 0.645927 0.694395 -0.248297
O52   O     O_R   0.410990 0.776605 0.710568 -0.319851
N8    N     N_R   0.859381 0.707322 0.906242 0.293007
O53   O     O_R   0.730176 0.660594 0.917782 -0.215780
O54   O     O_R   0.950941 0.745177 0.961440 -0.431569
S7    S     S_3+6 0.689435 0.566393 0.776391 0.119147
O55   O     O_2   0.513109 0.600181 0.811969 -0.117025
O56   O     O_2   0.651723 0.508969 0.704567 -0.288784
O57   O     O_3   0.770409 0.507932 0.827895 -0.424615
H14   H     H_    0.687603 0.461275 0.821050 0.374042
N9    N     N_R   0.068974 0.893014 0.752180 0.282137
O58   O     O_R   0.229510 0.917777 0.738710 -0.282041
O59   O     O_R   0.937282 0.946996 0.766967 -0.372094
S8    S     S_3+6 0.067656 0.784085 0.605807 0.101792
O60   O     O_2   0.999810 0.727217 0.538665 -0.293130
O61   O     O_2   0.980895 0.866643 0.613853 -0.185185
O62   O     O_3   0.289961 0.796100 0.588755 -0.380543
H15   H     H_    0.306920 0.855210 0.595019 0.407768

loop_
_geom_bond_atom_site_label_1
_geom_bond_atom_site_label_2
_geom_bond_distance
_ccdc_geom_bond_type
O33   H10   0.989857 S    
C33   O16   1.361387 A    
C14   H2    1.082334 S    
C19   C20   1.593468 S    
N1    O24   1.278060 A    
S8    O61   1.503414 D    
C7    C8    1.245530 T    
S3    O33   1.678720 S    
C1    O6    1.366699 A    
C24   C34   1.566409 S    
C18   S8    1.904923 S    
S5    O39   1.505865 D    
C21   C23   1.663039 S    
O13   C36   1.344759 A    
S6    O46   1.495439 D    
N5    O45   1.301102 A    
O18   C35   1.360772 A    
S3    O32   1.497032 D    
C21   S3    1.886170 S    
C6    C7    1.476373 S    
O16   V4    1.828420 S    
O5    C3    1.359626 A    
C16   C17   1.725731 S    
C1    C23   1.589421 S    
V2    O10   2.210533 S    
N7    O51   1.282430 A    
C19   H4    1.087035 S    
C20   C24   1.537636 S    
S4    O36   1.487757 D    
C10   C35   1.501806 S    
C14   N9    1.484185 S    
S3    O31   1.504213 D    
O38   H11   0.991260 S    
N7    O52   1.294725 A    
S1    O21   1.505151 D    
C11   H1    1.094498 S    
O1    V2    1.826650 S    
N3    O35   1.303254 A    
O7    V1    2.285252 S    
C19   H5    1.087865 S    
N8    O54   1.301766 A    
V4    O20   2.210494 S    
O17   V4    1.761687 S    
C13   C17   1.650616 S    
O9    C4    1.360321 A    
N1    O25   1.302298 A    
C4    C5    1.501806 S    
C19   C23   1.579714 S    
C24   C26   1.603587 S    
O4    V1    1.880066 S    
S5    O40   1.496739 D    
O15   C35   1.356638 A    
O12   C33   1.368750 A    
O18   V4    1.858691 S    
C2    C27   1.506171 S    
C13   N8    1.475860 S    
C12   N7    1.351769 S    
N3    O34   1.298509 A    
C18   N1    1.430073 S    
O4    C2    1.371022 A    
C26   N4    1.488365 S    
C21   C25   1.655168 S    
C31   C32   1.247704 T    
S4    O38   1.664255 S    
C22   S4    1.782100 S    
O17   V3    2.285382 S    
O19   V4    2.124783 S    
C11   S1    1.879185 S    
O2    C1    1.366329 A    
N9    O59   1.299948 A    
C20   H6    1.091107 S    
C12   N6    1.488513 S    
C20   S2    1.868802 S    
V3    O20   1.814687 S    
C13   H3    1.081832 S    
C28   C29   1.480034 S    
O8    C3    1.369039 A    
S4    O37   1.480661 D    
C5    C6    1.245285 T    
C25   N3    1.496118 S    
C11   C15   1.533278 S    
N2    O26   1.306078 A    
N4    O43   1.299168 A    
O3    C4    1.356755 A    
O11   C34   1.340618 A    
C29   C30   1.247878 T    
C30   C31   1.480228 S    
O6    V2    2.095473 S    
O8    V2    2.124665 S    
O9    V2    1.858607 S    
O57   H14   0.990821 S    
S8    O62   1.685661 S    
C24   C25   1.646054 S    
O12   V3    1.880090 S    
N9    O58   1.300971 A    
O2    V1    2.024805 S    
C22   S5    1.883621 S    
S5    O41   1.670978 S    
O11   V4    2.095659 S    
C26   H7    1.069208 S    
S2    O29   1.502194 D    
N6    O49   1.303687 A    
C12   C16   1.594426 S    
C21   N5    1.497136 S    
C27   C28   1.247526 T    
C22   C23   1.618350 S    
O48   H13   0.991114 S    
C3    C16   1.599969 S    
C14   C18   1.619514 S    
O1    C2    1.359093 A    
C17   S7    1.871391 S    
N2    O27   1.300811 A    
O5    V1    2.039869 S    
S2    O30   1.664510 S    
N8    O53   1.296952 A    
S6    O47   1.497465 D    
O15   V3    1.835363 S    
O13   V3    2.039951 S    
N5    O44   1.293004 A    
C13   C15   1.611171 S    
S6    O48   1.678284 S    
O19   C36   1.376919 A    
S7    O57   1.687190 S    
S8    O60   1.500875 D    
O7    V2    1.762163 S    
O23   H8    0.991752 S    
O3    V1    1.835359 S    
V1    O10   1.814672 S    
C16   C18   1.618094 S    
C17   N2    1.488330 S    
O62   H15   0.990326 S    
S1    O23   1.641716 S    
O41   H12   0.990811 S    
O14   C34   1.377518 A    
C15   C36   1.579683 S    
C32   C33   1.505944 S    
C25   S6    1.882524 S    
C11   C12   1.578846 S    
N4    O42   1.295459 A    
S2    O28   1.498526 D    
C22   C26   1.627804 S    
C8    C9    1.476350 S    
S1    O22   1.497460 D    
O30   H9    0.986775 S    
C14   C15   1.571084 S    
O14   V3    2.024920 S    
S7    O55   1.485399 D    
C9    C10   1.245230 T    
S7    O56   1.504634 D    
N6    O50   1.304364 A    
