data_mof_unit_37637.cif
_audit_creation_date              2012-12-10T18:58:13-0500
_audit_creation_method            fapswitch 2.2
_symmetry_space_group_name_H-M    P1
_symmetry_Int_Tables_number       1
_space_group_crystal_system       triclinic
_cell_length_a                    10.968938
_cell_length_b                    10.848925
_cell_length_c                    9.637394
_cell_angle_alpha                 91.602655
_cell_angle_beta                  102.654919
_cell_angle_gamma                 95.591836
_cell_volume                      1112.23880638

loop_
_atom_site_label
_atom_site_type_symbol
_atom_type_description
_atom_site_fract_x
_atom_site_fract_y
_atom_site_fract_z
_atom_type_partial_charge
C1    C     C_R   0.494031 0.261182 0.495812 0.904393
C2    C     C_R   0.494172 0.125729 0.490888 -0.168059
C3    C     C_R   0.532324 0.057079 0.381554 0.302929
C4    C     C_R   0.585002 0.946305 0.417191 0.250636
C5    C     C_R   0.538616 0.875270 0.519382 -0.150445
C6    C     C_R   0.502924 0.941460 0.627579 0.066088
C7    C     C_3   0.400792 0.914159 0.705303 -0.434192
C8    C     C_3   0.377976 0.049777 0.690630 0.251214
C9    C     C_R   0.603286 0.550956 0.100452 0.072482
C10   C     C_R   0.403217 0.436801 0.044209 0.518204
C11   C     C_R   0.406719 0.436616 0.897732 -0.114299
C12   C     C_R   0.262143 0.495364 0.442276 0.881667
C13   C     C_R   0.600976 0.555152 0.953198 0.153675
C14   C     C_3   0.651075 0.690086 0.970561 0.135664
C15   C     C_3   0.669727 0.679709 0.132366 0.184976
C16   C     C_R   0.512703 0.738749 0.505130 0.869812
C17   C     C_R   0.735777 0.490524 0.557794 0.880845
C18   C     C_2   0.124959 0.475615 0.411664 -0.236294
C19   C     C_2   0.065412 0.466006 0.519037 -0.147955
C20   C     C_2   0.870649 0.480594 0.592669 -0.283431
C21   C     C_2   0.928856 0.445778 0.492534 -0.000608
C22   C     C_R   0.484682 0.065226 0.615372 -0.024788
Cu1   Cu    Cu3+1 0.499990 0.499980 0.640670 1.027422
Cu2   Cu    Cu3+1 0.500010 0.500020 0.359330 1.112271
H1    H     H_    0.398607 0.104101 0.794187 0.156941
H2    H     H_    0.330277 0.390095 0.817829 0.173325
H3    H     H_    0.923982 0.509695 0.699379 0.189932
H4    H     H_    0.437987 0.891997 0.817415 0.206102
N1    N     N_R   0.500780 0.500930 0.148120 -0.260584
N2    N     N_R   0.500790 0.500890 0.852210 -0.240724
O1    O     O_R   0.500000 0.319640 0.618810 -0.587754
O2    O     O_R   0.500010 0.319680 0.381230 -0.486186
O3    O     O_R   0.320680 0.500000 0.575130 -0.609150
O4    O     O_R   0.320690 0.500040 0.337550 -0.507236
O5    O     O_R   0.499990 0.680320 0.618770 -0.554371
O6    O     O_R   0.500000 0.680360 0.381190 -0.602351
O7    O     O_R   0.679310 0.499960 0.662450 -0.538410
O8    O     O_R   0.679320 0.500000 0.424870 -0.528181
H5    H     H_    0.875274 0.411904 0.387792 0.219579
S1    S     S_3+6 0.256862 0.365919 0.072332 0.068241
O9    O     O_2   0.171560 0.466026 0.074115 -0.291101
O10   O     O_2   0.196728 0.275489 0.949591 -0.274304
O11   O     O_3   0.266952 0.287449 0.221615 -0.453902
H6    H     H_    0.179709 0.252712 0.220139 0.395344
S2    S     S_3+6 0.787675 0.732961 0.900451 0.128438
O12   O     O_2   0.841970 0.862484 0.953962 -0.137281
O13   O     O_2   0.885357 0.644311 0.940054 -0.228348
O14   O     O_3   0.747324 0.734298 0.723921 -0.494185
H7    H     H_    0.823147 0.712208 0.693416 0.379805
H8    H     H_    0.575462 0.749146 0.928485 0.080377
S3    S     S_3+6 0.829412 0.673125 0.232655 0.103668
O15   O     O_2   0.831645 0.681432 0.388107 -0.301449
O16   O     O_2   0.872850 0.552191 0.194768 -0.297552
O17   O     O_3   0.932527 0.789336 0.204118 -0.368021
H9    H     H_    0.014672 0.772322 0.262915 0.381470
H10   H     H_    0.616261 0.743542 0.181572 0.123635
H11   H     H_    0.117461 0.479328 0.629166 0.183331
H12   H     H_    0.073072 0.463968 0.301929 0.229905
S4    S     S_3+6 0.530844 0.105754 0.206009 0.074935
O18   O     O_2   0.564706 0.003830 0.117135 -0.297765
O19   O     O_2   0.401183 0.132572 0.135654 -0.189087
O20   O     O_3   0.632435 0.232903 0.208183 -0.496975
H13   H     H_    0.715238 0.201754 0.214226 0.390954
S5    S     S_3+6 0.749768 0.969107 0.428712 0.093538
O21   O     O_2   0.776754 0.942382 0.285686 -0.191962
O22   O     O_2   0.796149 0.102615 0.472792 -0.280313
O23   O     O_3   0.830548 0.882745 0.548931 -0.457408
H14   H     H_    0.917685 0.894537 0.535265 0.422947
H15   H     H_    0.323346 0.846322 0.645245 0.217209
S6    S     S_3+6 0.226763 0.068104 0.580723 0.043750
O24   O     O_2   0.206604 0.993758 0.442070 -0.247292
O25   O     O_2   0.126925 0.023354 0.657676 -0.228589
O26   O     O_3   0.216252 0.218071 0.547098 -0.527260
H16   H     H_    0.195872 0.255219 0.633090 0.362107

loop_
_geom_bond_atom_site_label_1
_geom_bond_atom_site_label_2
_ccdc_geom_bond_type
Cu1   O1    S    
C2    C22   A    
C8    C22   S    
Cu1   Cu2   S    
S5    O23   S    
S4    O18   D    
C7    H15   S    
C6    C7    S    
O20   H13   S    
C20   H3    S    
C15   S3    S    
O26   H16   S    
C4    S5    S    
Cu2   O8    S    
C21   H5    S    
C9    N1    A    
O11   H6    S    
S3    O17   S    
S5    O21   D    
C17   C20   S    
S6    O26   S    
S1    O10   D    
C2    C3    A    
C9    C15   S    
C7    C8    S    
C14   H8    S    
C13   C14   S    
C15   H10   S    
Cu2   N1    S    
C8    H1    S    
C10   N1    A    
Cu2   O6    S    
O23   H14   S    
C19   H11   S    
S1    O9    D    
C19   C21   S    
C18   C19   D    
C14   S2    S    
Cu1   O5    S    
C17   O8    A    
S2    O13   D    
C16   O5    A    
C5    C6    A    
Cu2   O4    S    
S4    O19   D    
S6    O25   D    
C10   C11   A    
C12   O4    A    
C3    C4    A    
C6    C22   A    
Cu1   N2    S    
S2    O12   D    
C13   N2    A    
C1    O1    A    
S6    O24   D    
C20   C21   D    
Cu1   O3    S    
C10   S1    S    
C1    C2    S    
S2    O14   S    
C12   C18   S    
Cu2   O2    S    
C9    C13   A    
O17   H9    S    
O14   H7    S    
C5    C16   S    
C17   O7    A    
C14   C15   S    
C11   H2    S    
S3    O16   D    
C12   O3    A    
Cu1   O7    S    
C8    S6    S    
C18   H12   S    
C1    O2    A    
C16   O6    A    
C7    H4    S    
S3    O15   D    
C11   N2    A    
S5    O22   D    
C4    C5    A    
S4    O20   S    
S1    O11   S    
C3    S4    S    
