data_mof_unit_52057.cif
_audit_creation_date              2012-12-10T17:32:57-0500
_audit_creation_method            fapswitch 2.2
_symmetry_space_group_name_H-M    P1
_symmetry_Int_Tables_number       1
_space_group_crystal_system       triclinic
_cell_length_a                    12.408121
_cell_length_b                    13.240101
_cell_length_c                    14.485387
_cell_angle_alpha                 94.117795
_cell_angle_beta                  108.560709
_cell_angle_gamma                 117.005721
_cell_volume                      1942.9096209

loop_
_atom_site_label
_atom_site_type_symbol
_atom_type_description
_atom_site_fract_x
_atom_site_fract_y
_atom_site_fract_z
_atom_type_partial_charge
C1    C     C_R   0.654692 0.716142 0.514497 0.751153
C2    C     C_R   0.907271 0.571726 0.914717 0.081189
C3    C     C_R   0.907634 0.653821 0.983701 0.155410
C4    C     C_R   0.011795 0.546779 0.943560 0.065545
C5    C     C_R   0.106130 0.595544 0.044394 0.063680
C6    C     C_R   0.116373 0.692095 0.102323 -0.196731
C7    C     C_R   0.015991 0.717809 0.074348 -0.247553
C8    C     C_R   0.028172 0.477988 0.875814 -0.211459
C9    C     C_R   0.132411 0.456748 0.908181 -0.208952
C10   C     C_R   0.213686 0.491580 0.010288 0.138137
C11   C     C_R   0.192137 0.550809 0.081331 0.038242
C12   C     C_R   0.619940 0.517955 0.686294 0.774160
C13   C     C_R   0.322951 0.476464 0.041913 -0.267346
C14   C     C_R   0.399983 0.505826 0.144849 -0.018535
C15   C     C_R   0.251830 0.556118 0.185048 -0.099109
C16   C     C_R   0.259337 0.002018 0.560140 -0.221736
C17   C     C_R   0.268108 0.166164 0.493997 -0.038295
C18   C     C_R   0.682068 0.911941 0.499813 -0.243685
C19   C     C_R   0.756796 0.028588 0.501366 -0.190749
C20   C     C_R   0.890390 0.078580 0.517358 0.159436
C21   C     C_R   0.946274 0.003835 0.523383 0.048879
C22   C     C_R   0.875171 0.892612 0.540764 0.042195
C23   C     C_R   0.346558 0.285281 0.487059 0.812649
C24   C     C_R   0.071905 0.035088 0.520637 0.070394
C25   C     C_R   0.132905 0.968977 0.555968 0.157629
C26   C     C_R   0.068828 0.872546 0.589803 -0.262527
C27   C     C_R   0.943465 0.837282 0.584560 -0.170948
C28   C     C_R   0.136972 0.125921 0.480175 -0.242416
C29   C     C_R   0.328466 0.102670 0.532471 -0.203722
C30   C     C_R   0.739567 0.842272 0.520582 -0.100741
C31   C     C_R   0.253550 0.656759 0.685022 -0.140335
C32   C     C_R   0.654560 0.340874 0.360482 0.198229
C33   C     C_R   0.734057 0.312413 0.327687 -0.296941
C34   C     C_R   0.391502 0.497605 0.316203 0.799241
C35   C     C_R   0.868340 0.369191 0.381939 -0.261355
C36   C     C_R   0.927061 0.455392 0.471921 0.016115
C37   C     C_R   0.843577 0.486423 0.501429 0.274320
C38   C     C_R   0.066187 0.513167 0.532929 -0.038500
C39   C     C_R   0.116813 0.592314 0.627138 0.077653
C40   C     C_R   0.031253 0.612294 0.658401 -0.295254
C41   C     C_R   0.901386 0.567063 0.594029 -0.209809
C42   C     C_R   0.158022 0.495746 0.504958 0.004912
C43   C     C_R   0.338366 0.656874 0.639917 0.311890
C44   C     C_R   0.703017 0.546933 0.793168 -0.049397
C45   C     C_R   0.345706 0.518360 0.214292 -0.157961
C46   C     C_R   0.801643 0.673972 0.959859 -0.198458
C47   C     C_R   0.698404 0.618782 0.865680 -0.210861
C48   C     C_R   0.802593 0.518368 0.819728 -0.259466
Cu1   Cu    Cu3+1 0.416420 0.526630 0.522910 0.937035
Cu2   Cu    Cu3+1 0.583580 0.473370 0.477090 0.938217
H1    H     H_    0.023094 0.787793 0.123892 0.134158
H2    H     H_    0.354814 0.453671 0.986243 0.134547
H3    H     H_    0.430140 0.133045 0.544597 0.144748
H4    H     H_    0.115114 0.823395 0.619185 0.151047
H5    H     H_    0.306895 0.953010 0.589209 0.119977
H6    H     H_    0.088070 0.166727 0.437495 0.136756
H7    H     H_    0.579704 0.877882 0.486039 0.145462
H8    H     H_    0.709970 0.081269 0.492914 0.129015
H9    H     H_    0.902174 0.771324 0.621000 0.143203
H10   H     H_    0.066055 0.671655 0.730017 0.176120
H11   H     H_    0.126799 0.429373 0.439537 0.130795
H12   H     H_    0.922949 0.340818 0.353273 0.141927
H13   H     H_    0.690294 0.240457 0.262132 0.149040
H14   H     H_    0.849913 0.599585 0.619214 0.198033
H15   H     H_    0.147941 0.410694 0.853434 0.138121
H16   H     H_    0.800129 0.734475 0.013296 0.144239
H17   H     H_    0.619018 0.637420 0.847961 0.156232
H18   H     H_    0.797609 0.456319 0.763872 0.152401
H19   H     H_    0.202608 0.749708 0.169220 0.160598
H20   H     H_    0.967141 0.445250 0.796380 0.150757
N1    N     N_R   0.290690 0.566960 0.557640 -0.193415
N2    N     N_R   0.709100 0.433710 0.442970 -0.217204
O1    O     O_R   0.545970 0.684450 0.528810 -0.582946
O2    O     O_R   0.687130 0.639470 0.490120 -0.580988
O3    O     O_R   0.519670 0.535100 0.660030 -0.575831
O4    O     O_R   0.660830 0.490120 0.621340 -0.610363
O5    O     O_R   0.312870 0.360530 0.509880 -0.580882
O6    O     O_R   0.454030 0.315550 0.471190 -0.574433
O7    O     O_R   0.339170 0.509880 0.378660 -0.570141
O8    O     O_R   0.480330 0.464900 0.339970 -0.569803
C49   C     C_3   0.969642 0.212342 0.546593 -0.391642
C50   C     C_3   0.081294 0.262594 0.651143 -0.804890
H21   H     H_    0.041995 0.227141 0.707795 0.241392
H22   H     H_    0.158700 0.241664 0.653022 0.262812
H23   H     H_    0.127617 0.359552 0.672214 0.236590
H24   H     H_    0.005519 0.248641 0.489555 0.184341
H25   H     H_    0.905362 0.248507 0.550064 0.203313
C51   C     C_3   0.458003 0.775801 0.658631 -0.348313
C52   C     C_3   0.585732 0.800316 0.741446 -0.794899
H26   H     H_    0.572147 0.786545 0.812362 0.237909
H27   H     H_    0.623164 0.745734 0.718685 0.267583
H28   H     H_    0.662132 0.893295 0.756228 0.228244
H29   H     H_    0.470054 0.790302 0.588010 0.212012
H30   H     H_    0.438898 0.846505 0.680002 0.157878
C53   C     C_R   0.217716 0.601507 0.261604 0.157874
C54   C     C_R   0.312918 0.708576 0.333686 -0.112252
C55   C     C_R   0.277839 0.761102 0.397072 -0.170012
C56   C     C_R   0.147955 0.706838 0.389255 -0.119237
C57   C     C_R   0.053480 0.599696 0.318632 -0.159521
C58   C     C_R   0.088064 0.545929 0.255940 -0.141409
H31   H     H_    0.412099 0.753301 0.336562 0.099535
H32   H     H_    0.350425 0.845108 0.450507 0.105381
H33   H     H_    0.120111 0.747826 0.437417 0.141629
H34   H     H_    0.952685 0.559065 0.311474 0.164556
H35   H     H_    0.013060 0.464139 0.200103 0.121659
C59   C     C_R   0.311069 0.725519 0.791398 0.126594
C60   C     C_R   0.321391 0.835166 0.815449 -0.174627
C61   C     C_R   0.376964 0.898078 0.915987 -0.118202
C62   C     C_R   0.425521 0.853503 0.993186 -0.110921
C63   C     C_R   0.419568 0.746442 0.969865 -0.134226
C64   C     C_R   0.362189 0.682394 0.869449 -0.131307
H36   H     H_    0.288576 0.872901 0.756904 0.114296
H37   H     H_    0.383635 0.982025 0.933989 0.127924
H38   H     H_    0.469186 0.902566 0.070971 0.121509
H39   H     H_    0.459813 0.713365 0.029698 0.142089
H40   H     H_    0.358626 0.599669 0.852338 0.118584
C65   C     C_R   0.512787 0.252075 0.314080 0.167338
C66   C     C_R   0.429102 0.255545 0.224282 -0.137081
C67   C     C_R   0.297838 0.165547 0.176486 -0.163451
C68   C     C_R   0.250716 0.068157 0.215319 -0.117173
C69   C     C_R   0.335551 0.059679 0.300763 -0.149242
C70   C     C_R   0.466504 0.150542 0.349313 -0.146293
H41   H     H_    0.465358 0.327410 0.191158 0.138528
H42   H     H_    0.233208 0.170647 0.108585 0.135198
H43   H     H_    0.149134 0.998631 0.178276 0.121076
H44   H     H_    0.299893 0.982803 0.329346 0.139254
H45   H     H_    0.531828 0.142343 0.414768 0.103821
C71   C     C_R   0.544743 0.555413 0.177588 0.129693
C72   C     C_R   0.631914 0.661913 0.252851 -0.085402
C73   C     C_R   0.767033 0.718075 0.276615 -0.122359
C74   C     C_R   0.817032 0.669405 0.225365 -0.154302
C75   C     C_R   0.732526 0.563094 0.151666 -0.125633
C76   C     C_R   0.596867 0.507096 0.126656 -0.182014
H46   H     H_    0.595084 0.704057 0.290934 0.094334
H47   H     H_    0.832782 0.800659 0.333349 0.137051
H48   H     H_    0.921365 0.714899 0.242512 0.137787
H49   H     H_    0.771938 0.525085 0.112608 0.145728
H50   H     H_    0.532914 0.426405 0.067465 0.116261

loop_
_geom_bond_atom_site_label_1
_geom_bond_atom_site_label_2
_ccdc_geom_bond_type
C6    H19   S    
C40   H10   S    
C17   C29   A    
C60   H36   S    
C53   C54   A    
C32   C65   S    
C4    C8    A    
C71   C72   A    
C49   C50   S    
C28   H6    S    
C32   N2    A    
C67   H42   S    
C58   H35   S    
C17   C23   S    
C31   C43   A    
C1    O2    A    
C21   C22   A    
C36   C37   A    
C5    C11   A    
C3    C7    A    
Cu2   O2    S    
C15   C53   S    
C38   C39   A    
C59   C60   A    
C56   H33   S    
C56   C57   A    
Cu2   O6    S    
C14   C71   S    
C61   C62   A    
C18   C19   A    
C46   C47   A    
C70   H45   S    
Cu2   N2    S    
C63   C64   A    
C42   N1    A    
C20   C49   S    
C34   O8    A    
C66   C67   A    
C11   C15   A    
C19   C20   A    
C31   C39   A    
C75   C76   A    
C60   C61   A    
Cu1   O3    S    
C64   H40   S    
C18   C30   A    
C52   H27   S    
C9    C10   A    
C49   H24   S    
C44   C47   A    
C57   H34   S    
C76   H50   S    
C54   H31   S    
C37   N2    A    
C71   C76   A    
C26   H4    S    
C47   H17   S    
C55   C56   A    
C14   C45   A    
C59   C64   A    
C19   H8    S    
C51   H30   S    
C24   C28   A    
C24   C25   A    
C74   H48   S    
C39   C40   A    
C53   C58   A    
C8    C9    A    
C2    C48   A    
C16   C29   A    
C48   H18   S    
Cu1   O7    S    
C35   C36   A    
C61   H37   S    
C2    C4    A    
C65   C70   A    
Cu2   O4    S    
C34   O7    A    
C13   H2    S    
C18   H7    S    
C57   C58   A    
C33   H13   S    
C54   C55   A    
C20   C21   A    
C26   C27   A    
C34   C45   S    
C23   O5    A    
C52   H28   S    
C42   H11   S    
C69   C70   A    
C49   H25   S    
C62   H38   S    
C40   C41   A    
C73   H47   S    
C50   H21   S    
C50   H22   S    
C22   C27   A    
C12   O4    A    
C31   C59   S    
Cu1   O1    S    
C12   O3    A    
C43   C51   S    
C74   C75   A    
C68   C69   A    
C72   C73   A    
C16   C25   A    
C51   H29   S    
C43   N1    A    
C22   C30   A    
C68   H43   S    
C17   C28   A    
C55   H32   S    
C4    C5    A    
C10   C13   A    
Cu2   O8    S    
C67   C68   A    
C46   H16   S    
C6    C7    A    
C50   H23   S    
C3    C46   A    
C8    H20   S    
C1    O1    A    
C32   C33   A    
C36   C38   A    
C73   C74   A    
C25   C26   A    
C16   H5    S    
C7    H1    S    
C69   H44   S    
C12   C44   S    
C27   H9    S    
C65   C66   A    
C5    C6    A    
C29   H3    S    
C1    C30   S    
C33   C35   A    
Cu1   O5    S    
C2    C3    A    
C35   H12   S    
C66   H41   S    
C23   O6    A    
C37   C41   A    
C9    H15   S    
C10   C11   A    
C72   H46   S    
C38   C42   A    
C51   C52   S    
Cu1   Cu2   S    
Cu1   N1    S    
C21   C24   A    
C62   C63   A    
C15   C45   A    
C75   H49   S    
C41   H14   S    
C52   H26   S    
C13   C14   A    
C63   H39   S    
C44   C48   A    
