data_mof_unit_50189.cif
_audit_creation_date              2012-12-10T16:47:56-0500
_audit_creation_method            fapswitch 2.2
_symmetry_space_group_name_H-M    P1
_symmetry_Int_Tables_number       1
_space_group_crystal_system       triclinic
_cell_length_a                    7.779855
_cell_length_b                    8.612652
_cell_length_c                    10.684178
_cell_angle_alpha                 90.918595
_cell_angle_beta                  86.739189
_cell_angle_gamma                 93.38737
_cell_volume                      713.429845738

loop_
_atom_site_label
_atom_site_type_symbol
_atom_type_description
_atom_site_fract_x
_atom_site_fract_y
_atom_site_fract_z
_atom_type_partial_charge
C1    C     C_R   0.545337 0.793718 0.492069 0.954216
C2    C     C_2   0.570512 0.953908 0.471429 -0.075901
C3    C     C_3   0.791752 0.667144 0.863356 -0.853326
C4    C     C_2   0.435856 0.042172 0.500754 -0.435933
C5    C     C_R   0.504309 0.501301 0.737250 0.920369
C6    C     C_R   0.455320 0.205538 0.498996 0.961370
C7    C     C_R   0.498402 0.512001 0.263027 0.878669
C8    C     C_2   0.643256 0.557486 0.062686 -0.173192
C9    C     C_2   0.496398 0.557250 0.134373 -0.096767
C10   C     C_2   0.643433 0.574063 0.928392 0.226385
C11   C     C_2   0.515331 0.497497 0.869247 -0.298455
H1    H     H_    0.765506 0.534338 0.101065 0.156674
H2    H     H_    0.809886 0.067829 0.477930 0.214665
H3    H     H_    0.716103 0.075572 0.334887 0.205108
H4    H     H_    0.056442 0.720840 0.648611 0.176271
H5    H     H_    0.021058 0.762207 0.500851 0.191761
H6    H     H_    0.414520 0.426932 0.919543 0.130380
H7    H     H_    0.310684 0.993243 0.536147 0.157727
H8    H     H_    0.007555 0.364274 0.424610 0.165054
H9    H     H_    0.242018 0.528234 0.101585 0.185234
H10   H     H_    0.308487 0.711106 0.143592 0.197073
H11   H     H_    0.869334 0.733747 0.932454 0.223402
H12   H     H_    0.877929 0.587170 0.811632 0.256795
H13   H     H_    0.743097 0.751615 0.798332 0.236798
N1    N     N_2   0.950320 0.457950 0.466680 -0.132047
N2    N     N_2   0.049680 0.542050 0.533320 -0.048281
N3    N     N_3   0.341546 0.614524 0.088792 -0.449524
N4    N     N_3   0.734517 0.007852 0.412880 -0.455953
N5    N     N_3   0.986506 0.682803 0.572228 -0.314148
O1    O     O_R   0.389250 0.738570 0.508180 -0.651266
O2    O     O_R   0.678390 0.711630 0.486820 -0.594957
O3    O     O_R   0.355470 0.513470 0.691600 -0.618299
O4    O     O_R   0.644610 0.486520 0.670240 -0.593271
O5    O     O_R   0.321610 0.288370 0.513180 -0.633716
O6    O     O_R   0.610750 0.261430 0.491820 -0.622950
O7    O     O_R   0.355390 0.513480 0.329760 -0.633172
O8    O     O_R   0.644530 0.486530 0.308400 -0.631416
Zn1   Zn    Zn3+2 0.306940 0.517990 0.514260 0.928137
Zn2   Zn    Zn3+2 0.693060 0.482010 0.485740 0.946486

loop_
_geom_bond_atom_site_label_1
_geom_bond_atom_site_label_2
_ccdc_geom_bond_type
C2    C4    D    
H2    N4    S    
C5    C11   S    
H9    N3    S    
O3    Zn1   S    
C7    O7    A    
C3    H12   S    
C8    H1    S    
C5    O3    A    
C4    H7    S    
O7    Zn1   S    
H10   N3    S    
O8    Zn2   S    
C3    C10   S    
N1    Zn2   S    
O1    Zn1   S    
C3    H13   S    
O4    Zn2   S    
C8    C10   S    
C1    O1    A    
N1    N2    D    
O2    Zn2   S    
H4    N5    S    
C7    O8    A    
O6    Zn2   S    
H8    N1    S    
C10   C11   D    
C1    O2    A    
C6    O6    A    
C9    N3    S    
N2    N5    S    
C4    C6    S    
C1    C2    S    
C7    C9    S    
N2    Zn1   S    
C3    H11   S    
C2    N4    S    
H3    N4    S    
H5    N5    S    
O5    Zn1   S    
C11   H6    S    
C6    O5    A    
C8    C9    D    
C5    O4    A    
