data_mof_unit_54173.cif
_audit_creation_date              2013-03-05T15:46:25-0500
_audit_creation_method            fapswitch 2.2
_symmetry_space_group_name_H-M    P1
_symmetry_Int_Tables_number       1
_space_group_crystal_system       triclinic
_cell_length_a                    15.913539
_cell_length_b                    11.038227
_cell_length_c                    9.850208
_cell_angle_alpha                 111.373208
_cell_angle_beta                  98.234818
_cell_angle_gamma                 90.784625
_cell_volume                      1590.57005717

loop_
_atom_site_label
_atom_site_type_symbol
_atom_site_description
_atom_site_fract_x
_atom_site_fract_y
_atom_site_fract_z
_atom_type_partial_charge
O1    O     O_R   0.507820 0.332330 0.577400 -0.580065
O2    O     O_R   0.483070 0.295500 0.332660 -0.579439
C1    C     C_R   0.493755 0.254025 0.440471 0.860796
O3    O     O_R   0.391820 0.518430 0.622420 -0.570964
O4    O     O_R   0.367070 0.481600 0.377680 -0.569580
C2    C     C_R   0.340472 0.500027 0.501131 0.810061
Cu1   Cu    Cu3+1 0.514650 0.521810 0.644910 0.982620
Cu2   Cu    Cu3+1 0.485350 0.478190 0.355090 0.998008
O5    O     O_R   0.516930 0.704500 0.667340 -0.567064
O6    O     O_R   0.492180 0.667670 0.422600 -0.588971
O7    O     O_R   0.632930 0.518400 0.622320 -0.567333
O8    O     O_R   0.608180 0.481570 0.377580 -0.560824
C3    C     C_R   0.505907 0.745994 0.559544 0.866021
C4    C     C_R   0.659520 0.499575 0.498696 0.823280
C5    C     C_3   0.060544 0.502950 0.648241 0.127176
C6    C     C_3   0.037830 0.363507 0.371483 -0.086783
C7    C     C_3   0.938936 0.347155 0.378951 0.499326
H1    H     H_    0.940247 0.439205 0.687849 0.209132
H2    H     H_    0.073264 0.409510 0.661012 0.121677
H3    H     H_    0.039437 0.380965 0.268028 0.231973
C8    C     C_1   0.748436 0.495958 0.495062 -0.064052
C9    C     C_3   0.083069 0.493241 0.494704 -0.124089
C10   C     C_3   0.962876 0.515525 0.650471 -0.103623
C11   C     C_3   0.915327 0.487009 0.487888 -0.185275
C12   C     C_3   0.946280 0.599673 0.439655 0.053637
C13   C     C_3   0.046036 0.611922 0.458455 0.065415
C14   C     C_1   0.823351 0.491708 0.491419 0.143917
C15   C     C_1   0.175800 0.496850 0.500337 0.127178
C16   C     C_1   0.251312 0.498975 0.502581 -0.109928
H4    H     H_    0.067882 0.701543 0.555787 0.178763
H5    H     H_    0.928509 0.693637 0.517909 0.145760
H6    H     H_    0.486164 0.864138 0.368717 0.185526
H7    H     H_    0.511501 0.135907 0.631371 0.179447
C17   C     C_2   0.490088 0.114454 0.406929 -0.319088
C18   C     C_2   0.500441 0.069644 0.516433 -0.130623
H8    H     H_    0.520073 0.952163 0.707916 0.156970
C19   C     C_2   0.508757 0.885603 0.593141 -0.324182
C20   C     C_2   0.497473 0.930409 0.483670 -0.126333
H9    H     H_    0.478995 0.047939 0.292148 0.155070
H10   H     H_    0.436309 0.428650 0.844126 0.196606
H11   H     H_    0.555465 0.582694 0.150326 0.118592
N1    N     N_2   0.463320 0.445430 0.137380 -0.081873
C21   C     C_2   0.505243 0.510998 0.078602 0.095860
H12   H     H_    0.587270 0.614851 0.933296 0.211565
N2    N     N_2   0.536720 0.554500 0.862620 -0.296054
C22   C     C_2   0.488982 0.493982 0.917551 -0.045383
N3    N     N_R   0.115056 0.602631 0.774790 0.154811
O9    O     O_R   0.112990 0.726590 0.799588 -0.323048
O10   O     O_R   0.167022 0.566075 0.864897 -0.326282
N4    N     N_2   0.944848 0.641514 0.757164 -0.405664
H13   H     H_    0.893793 0.685947 0.723755 0.254667
C23   C     C_3   0.944398 0.647352 0.906539 -0.363099
H14   H     H_    0.944227 0.750566 0.981824 0.251666
H15   H     H_    0.001529 0.605464 0.945922 0.279396
H16   H     H_    0.886383 0.592528 0.910836 0.216472
N5    N     N_R   0.902590 0.588883 0.292678 0.183421
O11   O     O_R   0.838233 0.658530 0.283534 -0.327365
O12   O     O_R   0.930056 0.519111 0.171708 -0.295224
N6    N     N_2   0.399073 0.355014 0.046136 -0.326259
H17   H     H_    0.349796 0.347830 0.100750 0.296537
C24   C     C_3   0.428415 0.228073 0.969575 -0.622381
H18   H     H_    0.374565 0.163911 0.890421 0.215942
H19   H     H_    0.453232 0.182327 0.049204 0.243126
H20   H     H_    0.479417 0.236230 0.906727 0.213747
N7    N     N_2   0.084038 0.245024 0.349788 -0.366038
H21   H     H_    0.125499 0.230006 0.274515 0.275355
C25   C     C_3   0.117277 0.204689 0.470622 -0.517597
H22   H     H_    0.139469 0.105057 0.424515 0.245655
H23   H     H_    0.067949 0.199663 0.537292 0.254900
H24   H     H_    0.172733 0.270207 0.541774 0.184715
N8    N     N_R   0.920009 0.240266 0.429855 0.115146
O13   O     O_R   0.864148 0.251738 0.517452 -0.363750
O14   O     O_R   0.934734 0.121952 0.349217 -0.251083
N9    N     N_R   0.889017 0.309324 0.228616 0.173618
O15   O     O_R   0.806438 0.310157 0.211465 -0.303376
O16   O     O_R   0.922298 0.238696 0.114308 -0.281504
N10   N     N_R   0.077209 0.635535 0.335429 0.171083
O17   O     O_R   0.062270 0.744665 0.317093 -0.289834
O18   O     O_R   0.123413 0.554827 0.249701 -0.330602

loop_
_geom_bond_atom_site_label_1
_geom_bond_atom_site_label_2
_geom_bond_distance
_ccdc_geom_bond_type
C12   H5    1.112505 S    
C11   C14   1.470218 S    
C5    N3    1.476959 S    
Cu1   Cu2   2.685090 S    
N3    O10   1.301692 A    
N10   O17   1.301664 A    
H12   N2    1.030730 S    
Cu1   O7    1.926038 S    
N9    O16   1.303223 A    
Cu1   N2    2.017211 S    
C4    C8    1.421271 S    
C15   C16   1.198439 T    
Cu2   N1    2.017036 S    
O4    C2    1.291802 A    
O7    C4    1.292532 A    
N5    O11   1.301396 A    
C17   C18   1.332453 D    
C24   H19   1.109770 S    
O5    C3    1.292798 A    
C5    C9    1.570182 S    
C6    C7    1.596801 S    
N7    C25   1.451567 S    
N4    C23   1.450196 S    
C10   C11   1.585962 S    
C12   N5    1.475559 S    
H6    C20   1.088080 S    
C3    C19   1.452037 S    
C23   H16   1.111266 S    
C6    H3    1.107565 S    
C5    C10   1.564895 S    
C8    C14   1.198881 T    
N6    H17   1.029972 S    
C9    C15   1.468199 S    
H11   C21   1.085166 S    
O3    Cu1   1.933675 S    
C23   H15   1.109989 S    
N10   O18   1.301859 A    
N6    C24   1.448692 S    
C13   N10   1.476965 S    
N9    O15   1.301316 A    
H1    C10   1.109354 S    
C7    C11   1.612361 S    
C18   C20   1.449345 S    
C11   C12   1.579829 S    
O3    C2    1.294304 A    
N8    O14   1.302683 A    
C10   N4    1.467252 S    
C1    C17   1.451584 S    
C12   C13   1.569810 S    
N2    C22   1.297480 D    
C17   H9    1.087542 S    
O1    C1    1.294172 A    
C24   H20   1.110246 S    
C5    H2    1.101628 S    
C25   H22   1.110396 S    
C19   C20   1.332405 D    
N3    O9    1.301103 A    
Cu2   O8    1.933673 S    
N4    H13   1.030016 S    
O8    C4    1.293758 A    
C13   H4    1.105659 S    
C7    N9    1.483738 S    
N1    C21   1.306512 D    
H10   C22   1.084138 S    
C23   H14   1.110318 S    
Cu1   O5    1.946190 S    
H8    C19   1.087659 S    
C6    C9    1.580111 S    
O1    Cu1   1.946227 S    
O2    Cu2   1.946188 S    
O6    C3    1.294280 A    
N1    N6    1.379917 S    
O4    Cu2   1.926040 S    
C7    N8    1.482891 S    
C25   H24   1.108567 S    
O2    C1    1.292681 A    
N8    O13   1.301504 A    
H7    C18   1.087918 S    
N5    O12   1.301363 A    
C24   H18   1.110564 S    
C21   C22   1.510872 S    
C2    C16   1.420900 S    
Cu2   O6    1.946228 S    
N7    H21   1.032529 S    
C9    C13   1.578853 S    
C6    N7    1.471211 S    
C25   H23   1.106155 S    
