data_mof_unit_39976.cif
_audit_creation_date              2012-12-11T14:00:03-0500
_audit_creation_method            fapswitch 2.2
_symmetry_space_group_name_H-M    P1
_symmetry_Int_Tables_number       1
_space_group_crystal_system       triclinic
_cell_length_a                    11.6479
_cell_length_b                    11.647896
_cell_length_c                    19.272414
_cell_angle_alpha                 90.522673
_cell_angle_beta                  89.477302
_cell_angle_gamma                 120.240449
_cell_volume                      2258.81393631

loop_
_atom_site_label
_atom_site_type_symbol
_atom_type_description
_atom_site_fract_x
_atom_site_fract_y
_atom_site_fract_z
_atom_type_partial_charge
C1    C     C_R   0.544461 0.477983 0.853050 0.545487
C2    C     C_R   0.478518 0.547717 0.352243 0.546634
C3    C     C_R   0.120420 0.544462 0.359343 0.554943
C4    C     C_R   0.454548 0.936575 0.350798 0.544053
C5    C     C_2   0.019363 0.497542 0.585250 -0.111163
C6    C     C_2   0.519536 0.498343 0.576231 -0.111032
C7    C     C_2   0.530476 0.088614 0.565016 -0.138878
C8    C     C_2   0.497541 0.019362 0.414750 -0.111163
C9    C     C_2   0.498344 0.519536 0.423769 -0.111032
C10   C     C_2   0.088609 0.530474 0.434984 -0.138878
C11   C     C_2   0.090295 0.433229 0.474071 -0.056636
C12   C     C_R   0.524830 0.070647 0.854554 0.539941
C13   C     C_2   0.607768 0.605576 0.461007 -0.011126
C14   C     C_2   0.413739 0.049387 0.451767 0.000616
C15   C     C_2   0.433229 0.090297 0.525929 -0.056635
C16   C     C_2   0.605576 0.607768 0.538993 -0.011127
C17   C     C_2   0.049388 0.413740 0.548234 0.000616
C18   C     C_2   0.001883 0.502042 0.920416 -0.121830
C19   C     C_2   0.503403 0.501327 0.922465 -0.128249
C20   C     C_2   0.512581 0.015260 0.926273 -0.146558
C21   C     C_2   0.502042 0.001883 0.079584 -0.121830
C22   C     C_2   0.501327 0.503404 0.077535 -0.128249
C23   C     C_R   0.933122 0.456078 0.852812 0.545097
C24   C     C_2   0.015260 0.512581 0.073726 -0.146559
C25   C     C_2   0.036902 0.620721 0.034409 -0.041983
C26   C     C_2   0.402754 0.406354 0.038984 -0.022273
C27   C     C_2   0.606153 0.010273 0.042566 -0.007867
C28   C     C_2   0.620721 0.036902 0.965591 -0.041983
C29   C     C_2   0.406354 0.402755 0.961016 -0.022273
C30   C     C_2   0.010273 0.606153 0.957434 -0.007867
C31   C     C_3   0.102608 0.325702 0.433410 -0.237885
C32   C     C_3   0.125309 0.208830 0.430284 -0.372984
C33   C     C_3   0.130275 0.170793 0.353591 -0.442670
C34   C     C_R   0.477983 0.544461 0.146950 0.545487
C35   C     C_3   0.738679 0.702471 0.424607 -0.192923
C36   C     C_3   0.760664 0.845426 0.416154 -0.246004
C37   C     C_3   0.813980 0.908661 0.344807 -0.409614
C38   C     C_3   0.280024 0.017687 0.424680 -0.191680
C39   C     C_3   0.176611 0.872935 0.441025 -0.259975
C40   C     C_3   0.056941 0.826934 0.395295 -0.434298
C41   C     C_3   0.325701 0.102607 0.566590 -0.237884
C42   C     C_3   0.208831 0.125313 0.569714 -0.372983
C43   C     C_3   0.170794 0.130282 0.646408 -0.442669
C44   C     C_3   0.702469 0.738680 0.575394 -0.192923
C45   C     C_R   0.070647 0.524830 0.145446 0.539940
C46   C     C_3   0.845425 0.760667 0.583847 -0.246004
C47   C     C_3   0.908658 0.813983 0.655194 -0.409616
C48   C     C_3   0.017688 0.280025 0.575320 -0.191682
C49   C     C_3   0.872935 0.176612 0.558974 -0.259976
C50   C     C_3   0.826932 0.056943 0.604705 -0.434297
C51   C     C_3   0.087894 0.753039 0.073531 -0.220829
C52   C     C_3   0.122716 0.893285 0.053923 -0.345015
C53   C     C_3   0.162268 0.980465 0.120144 -0.432975
C54   C     C_3   0.279412 0.298233 0.073938 -0.225352
C55   C     C_3   0.168563 0.328374 0.067333 -0.236416
C56   C     C_R   0.456078 0.933122 0.147187 0.545098
C57   C     C_3   0.046626 0.220088 0.104465 -0.415047
C58   C     C_3   0.712630 0.997237 0.078591 -0.206683
C59   C     C_3   0.701147 0.863280 0.063472 -0.260737
C60   C     C_3   0.797842 0.845349 0.108629 -0.421368
C61   C     C_3   0.753039 0.087894 0.926469 -0.220829
C62   C     C_3   0.893285 0.122716 0.946076 -0.345014
C63   C     C_3   0.980465 0.162268 0.879856 -0.432974
C64   C     C_3   0.298233 0.279413 0.926062 -0.225352
C65   C     C_3   0.328374 0.168563 0.932667 -0.236416
C66   C     C_3   0.220088 0.046626 0.895535 -0.415047
C67   C     C_R   0.547717 0.478518 0.647757 0.546633
C68   C     C_3   0.997237 0.712630 0.921409 -0.206682
C69   C     C_3   0.863280 0.701147 0.936528 -0.260737
C70   C     C_3   0.845349 0.797842 0.891371 -0.421368
C71   C     C_R   0.544463 0.120423 0.640656 0.554942
C72   C     C_R   0.936575 0.454548 0.649202 0.544052
Cr1   Cr    Cr6+3 0.464030 0.233680 0.750360 0.958821
Cr2   Cr    Cr6+3 0.766320 0.230350 0.750360 0.956955
Cr3   Cr    Cr6+3 0.769650 0.535970 0.750360 0.955969
Cr4   Cr    Cr6+3 0.233680 0.464030 0.249640 0.958821
Cr5   Cr    Cr6+3 0.230350 0.766320 0.249640 0.956955
Cr6   Cr    Cr6+3 0.535970 0.769650 0.249640 0.955969
H1    H     H_    0.064040 0.599716 0.457888 0.073157
H2    H     H_    0.414477 0.967275 0.949264 0.078616
H3    H     H_    0.569654 0.596163 0.946397 0.076315
H4    H     H_    0.031484 0.437134 0.943986 0.074567
H5    H     H_    0.064100 0.187894 0.319505 0.163422
H6    H     H_    0.232734 0.228946 0.332575 0.167481
H7    H     H_    0.100256 0.065410 0.348673 0.117188
H8    H     H_    0.225507 0.243823 0.449558 0.145458
H9    H     H_    0.045876 0.121399 0.457856 0.155750
H10   H     H_    0.003761 0.276439 0.407360 0.202793
H11   H     H_    0.198693 0.394297 0.408583 0.222176
H12   H     H_    0.409627 0.445592 0.449397 0.062929
H13   H     H_    0.889361 0.886386 0.323918 0.110204
H14   H     H_    0.735702 0.876080 0.305418 0.209732
H15   H     H_    0.856626 0.017429 0.349683 0.115500
H16   H     H_    0.667106 0.846345 0.426639 0.183068
H17   H     H_    0.834265 0.912354 0.454910 0.111400
H18   H     H_    0.818406 0.704765 0.455155 0.098976
H19   H     H_    0.750437 0.660905 0.374665 0.165693
H20   H     H_    0.006705 0.880425 0.413101 0.135655
H21   H     H_    0.085426 0.848869 0.339778 0.178311
H22   H     H_    0.989693 0.718652 0.400508 0.144396
H23   H     H_    0.594555 0.044875 0.433918 0.066702
H24   H     H_    0.219264 0.807640 0.433469 0.191506
H25   H     H_    0.144817 0.862527 0.496218 0.124613
H26   H     H_    0.247211 0.079704 0.448129 0.140762
H27   H     H_    0.285948 0.049970 0.370242 0.162019
H28   H     H_    0.187904 0.064115 0.680496 0.163426
H29   H     H_    0.228940 0.232744 0.667420 0.167474
H30   H     H_    0.065407 0.100252 0.651325 0.117190
H31   H     H_    0.243828 0.225512 0.550439 0.145456
H32   H     H_    0.121400 0.045881 0.542143 0.155750
H33   H     H_    0.276436 0.003760 0.592641 0.202789
H34   H     H_    0.599720 0.064050 0.542111 0.073156
H35   H     H_    0.394295 0.198691 0.591418 0.222179
H36   H     H_    0.886377 0.889359 0.676084 0.110205
H37   H     H_    0.876081 0.735704 0.694582 0.209731
H38   H     H_    0.017427 0.856637 0.650317 0.115500
H39   H     H_    0.846345 0.667109 0.573362 0.183068
H40   H     H_    0.912353 0.834268 0.545091 0.111399
H41   H     H_    0.704762 0.818406 0.544845 0.098976
H42   H     H_    0.660902 0.750436 0.625335 0.165694
H43   H     H_    0.880422 0.006705 0.586898 0.135654
H44   H     H_    0.848867 0.085427 0.660221 0.178313
H45   H     H_    0.445593 0.409626 0.550603 0.062930
H46   H     H_    0.718650 0.989695 0.599491 0.144397
H47   H     H_    0.807642 0.219267 0.566531 0.191505
H48   H     H_    0.862527 0.144818 0.503781 0.124613
H49   H     H_    0.079704 0.247211 0.551871 0.140765
H50   H     H_    0.049970 0.285948 0.629757 0.162020
H51   H     H_    0.137956 0.922699 0.169001 0.174757
H52   H     H_    0.269992 0.054439 0.119691 0.158995
H53   H     H_    0.108258 0.034105 0.124718 0.107330
H54   H     H_    0.209534 0.934312 0.018770 0.147201
H55   H     H_    0.039557 0.896070 0.029013 0.157967
H56   H     H_    0.044878 0.594556 0.566083 0.066702
H57   H     H_    0.013490 0.728117 0.115970 0.175607
H58   H     H_    0.188014 0.774136 0.087926 0.220910
H59   H     H_    0.012276 0.127923 0.074610 0.112534
H60   H     H_    0.069176 0.206121 0.158626 0.161741
H61   H     H_    0.966276 0.243833 0.105778 0.151557
H62   H     H_    0.208863 0.431665 0.083566 0.217651
H63   H     H_    0.140797 0.336348 0.014137 0.107347
H64   H     H_    0.243126 0.200674 0.051450 0.134374
H65   H     H_    0.297442 0.279077 0.127818 0.155971
H66   H     H_    0.898848 0.917702 0.093103 0.119478
H67   H     H_    0.967275 0.414477 0.050736 0.078616
H68   H     H_    0.786307 0.862760 0.164359 0.168921
H69   H     H_    0.784756 0.744947 0.101948 0.146935
H70   H     H_    0.597220 0.784134 0.071865 0.204641
H71   H     H_    0.722021 0.854882 0.008223 0.133570
H72   H     H_    0.805619 0.076241 0.061375 0.118362
H73   H     H_    0.723190 0.023381 0.134410 0.156572
H74   H     H_    0.922699 0.137956 0.830999 0.174756
H75   H     H_    0.054439 0.269992 0.880309 0.158995
H76   H     H_    0.034105 0.108258 0.875282 0.107330
H77   H     H_    0.934312 0.209534 0.981230 0.147201
H78   H     H_    0.596163 0.569654 0.053603 0.076315
H79   H     H_    0.896070 0.039558 0.970987 0.157966
H80   H     H_    0.728117 0.013490 0.884030 0.175607
H81   H     H_    0.774136 0.188014 0.912074 0.220910
H82   H     H_    0.127923 0.012276 0.925389 0.112534
H83   H     H_    0.206121 0.069176 0.841374 0.161741
H84   H     H_    0.243833 0.966276 0.894222 0.151557
H85   H     H_    0.431665 0.208863 0.916434 0.217650
H86   H     H_    0.336348 0.140797 0.985862 0.107347
H87   H     H_    0.200674 0.243126 0.948550 0.134374
H88   H     H_    0.279077 0.297442 0.872182 0.155971
H89   H     H_    0.437134 0.031484 0.056014 0.074567
H90   H     H_    0.917702 0.898849 0.906897 0.119478
H91   H     H_    0.862760 0.786307 0.835641 0.168921
H92   H     H_    0.744947 0.784756 0.898052 0.146935
H93   H     H_    0.784134 0.597220 0.928135 0.204641
H94   H     H_    0.854882 0.722021 0.991777 0.133570
H95   H     H_    0.076241 0.805619 0.938625 0.118361
H96   H     H_    0.023381 0.723190 0.865590 0.156572
O1    O     O_R   0.434100 0.092480 0.829780 -0.531520
O2    O     O_R   0.362730 0.477510 0.175360 -0.509777
O3    O     O_R   0.114780 0.637270 0.175360 -0.522600
O4    O     O_R   0.522490 0.885220 0.175360 -0.509004
O5    O     O_R   0.432250 0.092620 0.670380 -0.542390
O6    O     O_R   0.907380 0.339630 0.670380 -0.534937
O7    O     O_R   0.660370 0.567750 0.670380 -0.525270
O8    O     O_R   0.092620 0.432250 0.329620 -0.542390
O9    O     O_R   0.339630 0.907380 0.329620 -0.534937
O10   O     O_R   0.567750 0.660370 0.329620 -0.525270
O11   O     O_R   0.475790 0.362860 0.676880 -0.542510
O12   O     O_R   0.907520 0.341620 0.829780 -0.551698
O13   O     O_R   0.637140 0.112930 0.676880 -0.506346
O14   O     O_R   0.887070 0.524210 0.676880 -0.524520
O15   O     O_R   0.362860 0.475790 0.323120 -0.542512
O16   O     O_R   0.112930 0.637140 0.323120 -0.506347
O17   O     O_R   0.524210 0.887070 0.323120 -0.524521
O18   O     O_3   0.666667 0.333333 0.749450 -0.268437
O19   O     O_3   0.333333 0.666667 0.250550 -0.268436
O20   O     O_R   0.658380 0.565900 0.829780 -0.540260
O21   O     O_R   0.092480 0.434100 0.170220 -0.531520
O22   O     O_R   0.341620 0.907520 0.170220 -0.551698
O23   O     O_R   0.565900 0.658380 0.170220 -0.540260
O24   O     O_R   0.477510 0.362730 0.824640 -0.509777
O25   O     O_R   0.637270 0.114780 0.824640 -0.522601
O26   O     O_R   0.885220 0.522490 0.824640 -0.509004

loop_
_geom_bond_atom_site_label_1
_geom_bond_atom_site_label_2
_ccdc_geom_bond_type
C45   O21   A    
C47   H36   S    
C34   O23   A    
C55   H63   S    
C41   C42   S    
C54   C55   S    
C1    O24   A    
C50   H44   S    
C2    O15   A    
C4    C8    S    
C40   H21   S    
C66   H82   S    
C58   H72   S    
C56   O4    A    
Cr3   O26   S    
C62   H77   S    
C47   H37   S    
C49   H48   S    
C46   H40   S    
C64   H87   S    
Cr5   O16   S    
C36   C37   S    
C70   H91   S    
C13   C35   S    
C5    C72   S    
C35   H19   S    
C24   H67   S    
C61   H81   S    
C7    C71   S    
C38   C39   S    
C5    C17   D    
C44   H42   S    
C7    H34   S    
C57   H61   S    
C69   H93   S    
C71   O5    A    
C9    C13   D    
C72   O14   A    
C38   H26   S    
Cr4   O15   S    
C67   O7    A    
Cr5   O9    S    
C56   O22   A    
C51   H57   S    
Cr3   O14   S    
C68   C69   S    
C31   H11   S    
C64   H88   S    
C17   C48   S    
C24   C45   S    
C18   C30   D    
Cr6   O23   S    
C8    H23   S    
C16   C44   S    
C45   O3    A    
C59   H70   S    
C42   H32   S    
C7    C15   D    
C54   H65   S    
C21   C27   D    
C29   C64   S    
C11   C31   S    
C59   C60   S    
C52   H55   S    
C4    O17   A    
C65   H85   S    
C47   H38   S    
C50   H43   S    
C60   H68   S    
C6    H45   S    
Cr4   O8    S    
C26   C54   S    
Cr5   O22   S    
C33   H6    S    
C44   C46   S    
C59   H71   S    
C5    H56   S    
C22   C34   S    
C1    C19   S    
C20   H2    S    
C28   C61   S    
C57   H59   S    
C18   C23   S    
C52   H54   S    
Cr4   O2    S    
C69   H94   S    
C50   H46   S    
C24   C25   D    
C63   H75   S    
Cr4   O19   S    
C3    O16   A    
C41   H35   S    
C39   C40   S    
C37   H13   S    
C22   H78   S    
C20   C28   D    
C44   H41   S    
C58   C59   S    
C35   H18   S    
C32   H9    S    
C23   O26   A    
Cr5   O3    S    
C55   H62   S    
C51   C52   S    
C66   H83   S    
Cr6   O19   S    
Cr1   O1    S    
C25   C51   S    
C62   C63   S    
Cr4   O21   S    
C70   H90   S    
C48   H50   S    
C51   H58   S    
C31   C32   S    
C68   H95   S    
C32   H8    S    
Cr1   O24   S    
C12   C20   S    
C62   H79   S    
C37   H15   S    
C2    O10   A    
Cr2   O25   S    
C33   H5    S    
C15   C41   S    
C12   O1    A    
Cr2   O18   S    
C58   H73   S    
C48   C49   S    
C60   H69   S    
C49   C50   S    
C55   C57   S    
C41   H33   S    
C8    C14   D    
C66   H84   S    
C53   H51   S    
C42   C43   S    
C72   O6    A    
C14   C38   S    
C19   C29   D    
C52   C53   S    
C39   H24   S    
Cr2   O13   S    
C25   C30   S    
C46   C47   S    
C11   C17   S    
C68   H96   S    
C31   H10   S    
C37   H14   S    
C54   H64   S    
Cr5   O19   S    
Cr6   O4    S    
C42   H31   S    
C53   H53   S    
C63   H76   S    
C71   O13   A    
C27   C58   S    
C9    H12   S    
C40   H22   S    
C23   O12   A    
Cr1   O11   S    
C10   H1    S    
C39   H25   S    
C53   H52   S    
C49   H47   S    
C21   H89   S    
C65   H86   S    
C32   C33   S    
C38   H27   S    
C1    O20   A    
Cr6   O17   S    
C3    C10   S    
C6    C67   S    
C61   H80   S    
C60   H66   S    
C48   H49   S    
C40   H20   S    
C2    C9    S    
C36   H17   S    
C64   C65   S    
C18   H4    S    
C12   O25   A    
C57   H60   S    
Cr3   O18   S    
Cr6   O10   S    
C43   H30   S    
C4    O9    A    
C70   H92   S    
C61   C62   S    
C3    O8    A    
C69   C70   S    
C63   H74   S    
Cr1   O18   S    
C34   O2    A    
C10   C11   D    
C33   H7    S    
C6    C16   D    
Cr1   O5    S    
Cr3   O20   S    
C36   H16   S    
Cr2   O6    S    
C21   C56   S    
C46   H39   S    
C26   C29   S    
C65   C66   S    
C22   C26   D    
C13   C16   S    
C27   C28   S    
C14   C15   S    
C35   C36   S    
C19   H3    S    
C43   H29   S    
C43   H28   S    
C30   C68   S    
C67   O11   A    
Cr2   O12   S    
Cr3   O7    S    
