data_mof_unit_58816.cif
_audit_creation_date              2012-12-10T20:37:31-0500
_audit_creation_method            fapswitch 2.2
_symmetry_space_group_name_H-M    P1
_symmetry_Int_Tables_number       1
_space_group_crystal_system       triclinic
_cell_length_a                    15.708009
_cell_length_b                    10.678713
_cell_length_c                    9.868809
_cell_angle_alpha                 89.939956
_cell_angle_beta                  90.09348
_cell_angle_gamma                 90.077722
_cell_volume                      1655.40241612

loop_
_atom_site_label
_atom_site_type_symbol
_atom_type_description
_atom_site_fract_x
_atom_site_fract_y
_atom_site_fract_z
_atom_type_partial_charge
C1    C     C_R   0.502488 0.259943 0.500087 0.866977
C2    C     C_3   0.082729 0.499162 0.499103 0.213671
C3    C     C_3   0.972158 0.594786 0.575242 -0.164151
C4    C     C_3   0.917529 0.499032 0.499126 0.215708
C5    C     C_3   0.028292 0.607998 0.447387 -0.167483
C6    C     C_3   0.971875 0.512244 0.371240 -0.169420
C7    C     C_1   0.173605 0.499408 0.499502 -0.105500
C8    C     C_1   0.826574 0.499272 0.499635 -0.088851
C9    C     C_R   0.515055 0.063685 0.623127 0.142939
C10   C     C_R   0.515914 0.128551 0.500739 -0.099819
C11   C     C_R   0.533096 0.064937 0.379533 -0.233478
C12   C     C_R   0.337902 0.499907 0.499908 0.911702
C13   C     C_R   0.533293 0.935423 0.379482 -0.227098
C14   C     C_R   0.516283 0.871402 0.500633 -0.100616
C15   C     C_R   0.515330 0.935942 0.623097 0.122532
C16   C     C_3   0.453961 0.928216 0.738471 -0.470422
C17   C     C_3   0.453453 0.070142 0.738222 -0.497171
C18   C     C_R   0.458976 0.407499 0.070839 0.118766
C19   C     C_R   0.546217 0.585267 0.072014 -0.103541
C20   C     C_R   0.546056 0.585476 0.928049 -0.115275
C21   C     C_R   0.459898 0.406633 0.928458 0.134165
C22   C     C_3   0.367916 0.373555 0.920192 -0.565391
C23   C     C_R   0.502698 0.740023 0.499953 0.871850
C24   C     C_3   0.366163 0.375768 0.074467 0.348110
C25   C     C_R   0.662145 0.500009 0.500086 0.899213
C26   C     C_3   0.972003 0.390165 0.550785 -0.161037
C27   C     C_3   0.028169 0.403398 0.422921 -0.176578
C28   C     C_1   0.248949 0.499668 0.499781 -0.183866
C29   C     C_1   0.751185 0.499624 0.500066 -0.186882
C30   C     C_3   0.028397 0.485935 0.626934 -0.162222
H1    H     H_    0.053415 0.325350 0.360620 0.123418
H2    H     H_    0.483575 0.887493 0.830918 0.202729
H3    H     H_    0.391058 0.110641 0.707918 0.198328
H4    H     H_    0.482534 0.111532 0.830710 0.201717
H5    H     H_    0.582246 0.655578 0.126334 0.131778
H6    H     H_    0.581863 0.656062 0.873796 0.137719
H7    H     H_    0.329183 0.448385 0.871755 0.241529
H8    H     H_    0.357612 0.278449 0.877906 0.153831
H9    H     H_    0.354771 0.283096 0.123556 0.056490
H10   H     H_    0.946796 0.301166 0.593028 0.129364
H11   H     H_    0.946601 0.522959 0.266755 0.130058
H12   H     H_    0.053563 0.696940 0.405098 0.130783
H13   H     H_    0.947082 0.672998 0.637466 0.129607
H14   H     H_    0.053745 0.475209 0.731383 0.127490
H15   H     H_    0.540464 0.114085 0.284162 0.167231
H16   H     H_    0.540769 0.886543 0.284100 0.167135
H17   H     H_    0.391807 0.886262 0.708879 0.206249
N1    N     N_R   0.499430 0.499140 0.142800 -0.083572
N2    N     N_R   0.499430 0.499180 0.857150 -0.087470
O1    O     O_R   0.500010 0.316790 0.614690 -0.612814
O2    O     O_R   0.500000 0.316760 0.385350 -0.637095
O3    O     O_R   0.376780 0.500010 0.614650 -0.623063
O4    O     O_R   0.376770 0.499970 0.385310 -0.554393
O5    O     O_R   0.500000 0.683240 0.614650 -0.622152
O6    O     O_R   0.499990 0.683210 0.385310 -0.621655
O7    O     O_R   0.623230 0.500030 0.614690 -0.616234
O8    O     O_R   0.623220 0.499990 0.385350 -0.621451
Zn1   Zn    Zn3+2 0.500010 0.500020 0.653130 0.948163
Zn2   Zn    Zn3+2 0.499990 0.499980 0.346870 0.975382
O9    O     O_3   0.317298 0.476431 0.124854 -0.545179
C31   C     C_3   0.232338 0.436774 0.141909 -0.289358
H18   H     H_    0.227748 0.362529 0.220756 0.151773
H19   H     H_    0.204375 0.403398 0.044737 0.145925
H20   H     H_    0.193937 0.517623 0.176844 0.190905

loop_
_geom_bond_atom_site_label_1
_geom_bond_atom_site_label_2
_ccdc_geom_bond_type
C14   C23   S    
C3    C30   S    
C4    C26   S    
C5    H12   S    
N1    Zn2   S    
C23   O6    A    
C20   N2    A    
N2    Zn1   S    
O6    Zn2   S    
C16   H2    S    
C18   C21   A    
C1    O2    A    
C9    C10   A    
C2    C7    S    
C25   O7    A    
C2    C30   S    
C4    C8    S    
C3    H13   S    
C19   C20   A    
C21   N2    A    
O4    Zn2   S    
C17   H4    S    
C19   H5    S    
C21   C22   S    
C31   H20   S    
C5    C6    S    
C11   C13   A    
C26   H10   S    
C26   C27   S    
C2    C27   S    
C12   O4    A    
C17   H3    S    
C12   C28   S    
C18   C24   S    
C8    C29   T    
C16   H17   S    
C9    C17   S    
C12   O3    A    
O7    Zn1   S    
C26   C30   S    
C30   H14   S    
C25   C29   S    
C31   H18   S    
O3    Zn1   S    
C22   C24   S    
C11   H15   S    
C2    C5    S    
O8    Zn2   S    
C10   C11   A    
C1    C10   S    
C27   H1    S    
C15   C16   S    
O1    Zn1   S    
C25   O8    A    
C24   H9    S    
O2    Zn2   S    
C3    C4    S    
C23   O5    A    
C4    C6    S    
C1    O1    A    
O5    Zn1   S    
C31   H19   S    
C13   H16   S    
O9    C31   S    
C24   O9    S    
C19   N1    A    
C13   C14   A    
C14   C15   A    
C22   H7    S    
C22   H8    S    
C7    C28   T    
C6    C27   S    
C9    C15   A    
C18   N1    A    
C16   C17   S    
C3    C5    S    
C6    H11   S    
C20   H6    S    
