data_mof_unit_7618.cif
_audit_creation_date              2012-12-10T18:05:47-0500
_audit_creation_method            fapswitch 2.2
_symmetry_space_group_name_H-M    P1
_symmetry_Int_Tables_number       1
_space_group_crystal_system       triclinic
_cell_length_a                    10.837536
_cell_length_b                    10.895633
_cell_length_c                    9.475188
_cell_angle_alpha                 88.659591
_cell_angle_beta                  90.319976
_cell_angle_gamma                 90.683554
_cell_volume                      1118.4458806

loop_
_atom_site_label
_atom_site_type_symbol
_atom_type_description
_atom_site_fract_x
_atom_site_fract_y
_atom_site_fract_z
_atom_type_partial_charge
C1    C     C_R   0.501589 0.261937 0.502277 0.795009
C2    C     C_R   0.498406 0.738063 0.497721 0.794991
C3    C     C_R   0.871634 0.496873 0.502196 -0.100000
C4    C     C_R   0.128364 0.503135 0.497806 -0.099982
C5    C     C_R   0.938730 0.447734 0.618144 -0.056559
C6    C     C_R   0.061266 0.552263 0.381852 -0.056591
C7    C     C_R   0.520381 0.070158 0.377690 -0.114985
C8    C     C_R   0.479601 0.929845 0.622299 -0.115101
C9    C     C_R   0.515260 0.943382 0.368192 0.035316
C10   C     C_R   0.484708 0.056620 0.631789 0.035202
C11   C     C_R   0.495998 0.871977 0.493464 -0.127280
C12   C     C_R   0.503988 0.128024 0.506525 -0.127275
C13   C     C_R   0.431473 0.415552 0.076324 0.009444
C14   C     C_R   0.568529 0.584446 0.923676 0.009483
C15   C     C_R   0.431169 0.415865 0.927219 -0.025686
C16   C     C_R   0.568834 0.584132 0.072781 -0.025596
C17   C     C_R   0.262139 0.502206 0.499264 0.804064
C18   C     C_R   0.737861 0.497796 0.500735 0.804072
C19   C     C_R   0.213621 0.793343 0.141714 -0.091637
C20   C     C_R   0.786348 0.206513 0.858077 -0.091641
C21   C     C_R   0.160779 0.737086 0.262328 0.026902
C22   C     C_R   0.839215 0.262838 0.737517 0.026914
C23   C     C_R   0.121055 0.612578 0.257001 -0.015244
C24   C     C_R   0.878934 0.387345 0.742949 -0.015304
C25   C     C_R   0.137172 0.546228 0.131273 0.083580
C26   C     C_R   0.862785 0.453623 0.868725 0.083605
C27   C     C_R   0.190201 0.605906 0.012851 -0.107871
C28   C     C_R   0.809728 0.393877 0.987090 -0.107773
C29   C     C_R   0.228115 0.728175 0.018371 -0.173527
C30   C     C_R   0.771821 0.271610 0.981467 -0.173530
C31   C     C_R   0.933361 0.548151 0.385348 -0.220897
C32   C     C_R   0.066636 0.451858 0.614654 -0.220902
Cu1   Cu    Cu3+1 0.500000 0.500020 0.640660 0.948678
Cu2   Cu    Cu3+1 0.500000 0.499980 0.359340 0.948681
H1    H     H_    0.269251 0.772700 0.926433 0.169200
H2    H     H_    0.730664 0.227031 0.073361 0.169248
H3    H     H_    0.375002 0.349511 0.872173 0.161827
H4    H     H_    0.625001 0.650487 0.127827 0.161825
H5    H     H_    0.244088 0.888356 0.142619 0.188712
H6    H     H_    0.755883 0.111500 0.857090 0.188647
H7    H     H_    0.202487 0.557847 0.915272 0.161993
H8    H     H_    0.797414 0.441880 0.084703 0.162013
H9    H     H_    0.881893 0.587414 0.297105 0.190552
H10   H     H_    0.118103 0.412584 0.702891 0.190465
H11   H     H_    0.534700 0.124440 0.281632 0.178446
H12   H     H_    0.465276 0.875566 0.718359 0.178425
H13   H     H_    0.376219 0.348353 0.134147 0.155370
H14   H     H_    0.623784 0.651644 0.865853 0.155345
N1    N     N_R   0.500030 0.500030 0.852070 -0.185401
N2    N     N_R   0.499970 0.499970 0.147930 -0.185410
O1    O     O_R   0.499990 0.319660 0.618740 -0.607810
O2    O     O_R   0.500010 0.680340 0.381260 -0.607836
O3    O     O_R   0.499990 0.319630 0.381170 -0.588672
O4    O     O_R   0.500010 0.680370 0.618830 -0.588666
O5    O     O_R   0.319650 0.500020 0.618780 -0.588801
O6    O     O_R   0.680350 0.499980 0.381220 -0.588791
O7    O     O_R   0.319640 0.500000 0.381210 -0.580952
O8    O     O_R   0.680360 0.500000 0.618790 -0.580947
C33   C     C_2   0.147531 0.809213 0.392625 0.346823
H15   H     H_    0.104681 0.768830 0.486119 0.090701
O9    O     O_2   0.184776 0.915287 0.397461 -0.538862
C34   C     C_2   0.852496 0.190785 0.607165 0.346823
H16   H     H_    0.895353 0.231226 0.513706 0.090684
O10   O     O_2   0.815272 0.084710 0.602245 -0.538872
C35   C     C_2   0.101042 0.414452 0.123158 0.319732
H17   H     H_    0.059008 0.366612 0.212601 0.103814
O11   O     O_2   0.118412 0.356987 0.016065 -0.567459
C36   C     C_2   0.898905 0.585395 0.876947 0.319664
H18   H     H_    0.940958 0.633287 0.787551 0.103838
O12   O     O_2   0.881506 0.642799 0.984078 -0.567588
C37   C     C_2   0.527613 0.892202 0.225017 0.365937
H19   H     H_    0.471257 0.815468 0.191960 0.098634
O13   O     O_2   0.598677 0.939220 0.139366 -0.542963
C38   C     C_2   0.472277 0.107807 0.774944 0.365986
H20   H     H_    0.528674 0.184492 0.808070 0.098585
O14   O     O_2   0.401080 0.060858 0.860495 -0.542817

loop_
_geom_bond_atom_site_label_1
_geom_bond_atom_site_label_2
_ccdc_geom_bond_type
Cu1   O5    S    
Cu2   O6    S    
Cu1   O8    S    
C27   C29   A    
C31   H9    S    
C20   C30   A    
C38   O14   D    
C19   H5    S    
C19   C21   A    
C24   C26   A    
C21   C33   S    
C20   H6    S    
C14   N1    A    
Cu1   N1    S    
C3    C18   S    
C1    O3    A    
C15   H3    S    
C34   O10   D    
C18   O8    A    
C36   H18   S    
C35   O11   D    
Cu2   O7    S    
C17   O5    A    
C18   O6    A    
C5    C32   A    
C23   C25   A    
C6    C31   A    
C33   H15   S    
C1    C12   S    
C2    C11   S    
C10   C12   A    
C21   C23   A    
C7    C12   A    
Cu2   N2    S    
C33   O9    D    
C38   H20   S    
C25   C35   S    
C4    C6    A    
C2    O4    A    
C37   O13   D    
C14   H14   S    
C34   H16   S    
C22   C34   S    
C9    C11   A    
C27   H7    S    
Cu1   Cu2   S    
C32   H10   S    
C3    C31   A    
C1    O1    A    
C4    C32   A    
C2    O2    A    
C4    C17   S    
C36   O12   D    
C20   C22   A    
C13   C15   A    
C22   C24   A    
C25   C27   A    
C19   C29   A    
C7    H11   S    
C13   H13   S    
Cu1   O4    S    
C7    C9    A    
Cu2   O2    S    
C9    C37   S    
C16   N2    A    
C3    C5    A    
Cu1   O1    S    
C29   H1    S    
C26   C28   A    
C30   H2    S    
C26   C36   S    
C28   C30   A    
C37   H19   S    
C10   C38   S    
C5    C24   S    
C8    C11   A    
C6    C23   S    
C28   H8    S    
C14   C16   A    
C15   N1    A    
C8    H12   S    
C13   N2    A    
Cu2   O3    S    
C8    C10   A    
C35   H17   S    
C17   O7    A    
C16   H4    S    
