data_mof_unit_10679.cif
_audit_creation_date              2012-12-10T18:14:21-0500
_audit_creation_method            fapswitch 2.2
_symmetry_space_group_name_H-M    P1
_symmetry_Int_Tables_number       1
_space_group_crystal_system       triclinic
_cell_length_a                    12.58593
_cell_length_b                    13.138258
_cell_length_c                    18.989658
_cell_angle_alpha                 91.516138
_cell_angle_beta                  103.034279
_cell_angle_gamma                 81.976657
_cell_volume                      3029.18707845

loop_
_atom_site_label
_atom_site_type_symbol
_atom_type_description
_atom_site_fract_x
_atom_site_fract_y
_atom_site_fract_z
_atom_type_partial_charge
C1    C     C_R   0.438380 0.691176 0.488220 0.888088
C2    C     C_R   0.511142 0.478270 0.710623 -0.108081
C3    C     C_R   0.523835 0.419804 0.071354 0.281912
C4    C     C_R   0.527401 0.409689 0.929725 0.373582
C5    C     C_R   0.420978 0.426550 0.169358 -0.137520
C6    C     C_R   0.413466 0.449156 0.240146 -0.178200
C7    C     C_R   0.502569 0.482789 0.289209 -0.029933
C8    C     C_R   0.598876 0.494158 0.266486 -0.196503
C9    C     C_R   0.606472 0.471359 0.195981 -0.136216
C10   C     C_R   0.517663 0.437383 0.146814 0.085699
C11   C     C_R   0.710936 0.058832 0.463648 0.366791
C12   C     C_R   0.502147 0.497741 0.634606 0.925583
C13   C     C_R   0.596452 0.196657 0.508717 -0.220276
C14   C     C_R   0.294322 0.838779 0.490023 -0.173925
C15   C     C_R   0.261386 0.943987 0.490647 -0.100857
C16   C     C_R   0.334158 0.011481 0.483294 -0.183375
C17   C     C_R   0.440251 0.974002 0.471685 0.139158
C18   C     C_R   0.464711 0.868549 0.458442 0.105186
C19   C     C_R   0.524448 0.036488 0.475315 0.029162
C20   C     C_R   0.623402 0.998159 0.453455 -0.013556
C21   C     C_R   0.633615 0.898373 0.425348 -0.087734
C22   C     C_R   0.556235 0.834164 0.428690 -0.225166
C23   C     C_R   0.561457 0.307958 0.509779 0.909641
C24   C     C_R   0.513508 0.135428 0.502361 -0.278006
C25   C     C_R   0.701752 0.152441 0.501739 0.307466
C26   C     C_R   0.397400 0.800404 0.476217 -0.116685
C27   C     C_R   0.087983 0.346318 0.396302 -0.269712
C28   C     C_R   0.808001 0.632409 0.585474 0.396332
C29   C     C_R   0.901030 0.680137 0.581653 0.333276
C30   C     C_R   0.971914 0.634370 0.540811 -0.333238
C31   C     C_R   0.953266 0.543353 0.503867 -0.069462
C32   C     C_R   0.848884 0.510182 0.495930 0.133539
C33   C     C_R   0.035245 0.485860 0.473636 0.041821
C34   C     C_R   0.499474 0.497628 0.365222 0.823844
C35   C     C_R   0.007198 0.404363 0.426127 0.161874
C36   C     C_R   0.899779 0.380298 0.410905 -0.192095
C37   C     C_R   0.822844 0.430168 0.447300 -0.086286
C38   C     C_R   0.146262 0.503059 0.492269 -0.037346
C39   C     C_R   0.195801 0.368301 0.415582 0.003584
C40   C     C_R   0.419982 0.505446 0.740865 -0.160457
C41   C     C_R   0.425596 0.478520 0.811778 -0.182258
C42   C     C_R   0.522020 0.423218 0.853065 -0.079482
C43   C     C_R   0.613020 0.391796 0.821714 0.442971
C44   C     C_R   0.606585 0.420581 0.750575 -0.164074
H1    H     H_    0.344835 0.548016 0.709728 0.172323
H2    H     H_    0.704035 0.866126 0.404577 0.214542
H3    H     H_    0.440261 0.167306 0.519852 0.189914
H4    H     H_    0.240161 0.787576 0.501941 0.173680
H5    H     H_    0.181038 0.973383 0.500090 0.191768
H6    H     H_    0.258923 0.324408 0.392555 0.139413
H7    H     H_    0.877242 0.317854 0.374625 0.190058
H8    H     H_    0.068308 0.283986 0.359264 0.170204
H9    H     H_    0.355304 0.503551 0.835081 0.186803
H10   H     H_    0.746236 0.400414 0.439147 0.207029
H11   H     H_    0.674495 0.394805 0.725263 0.239029
H12   H     H_    0.350977 0.401031 0.132389 0.165074
H13   H     H_    0.338614 0.438938 0.256585 0.163024
H14   H     H_    0.669174 0.519482 0.303305 0.162204
H15   H     H_    0.681852 0.481050 0.180072 0.163009
N1    N     N_R   0.616198 0.432724 0.979286 -0.077378
N2    N     N_R   0.614664 0.437172 0.048916 -0.148179
N3    N     N_R   0.435629 0.394898 0.021802 -0.158466
N4    N     N_R   0.437212 0.390323 0.952099 -0.151385
N5    N     N_R   0.222200 0.444680 0.463280 -0.104405
N6    N     N_R   0.776960 0.554780 0.536340 -0.187925
O1    O     O_R   0.366740 0.627160 0.482470 -0.624596
O2    O     O_R   0.544830 0.662520 0.505920 -0.574605
O3    O     O_R   0.410920 0.482320 0.590130 -0.627508
O4    O     O_R   0.589010 0.517690 0.613590 -0.512166
O5    O     O_R   0.455170 0.337480 0.494080 -0.628682
O6    O     O_R   0.633260 0.372840 0.517530 -0.588024
O7    O     O_R   0.410990 0.482310 0.386410 -0.615394
O8    O     O_R   0.589080 0.517680 0.409870 -0.664071
Zn1   Zn    Zn3+2 0.381090 0.476390 0.484340 0.949869
Zn2   Zn    Zn3+2 0.618910 0.523610 0.515660 1.033767
S1    S     S_3+6 0.824725 0.023891 0.422545 0.042926
O9    O     O_2   0.781032 0.011013 0.342823 -0.324283
O10   O     O_2   0.900686 0.104276 0.433242 -0.251001
O11   O     O_3   0.895358 0.911559 0.456865 -0.508316
H16   H     H_    0.953278 0.894872 0.429055 0.379789
H17   H     H_    0.304201 0.092231 0.485499 0.140950
H18   H     H_    0.569102 0.757098 0.407813 0.161582
H19   H     H_    0.175572 0.559898 0.531062 0.131847
S2    S     S_3+6 0.748879 0.657228 0.662737 0.104505
O12   O     O_2   0.630209 0.703224 0.640286 -0.285405
O13   O     O_2   0.759607 0.556626 0.701118 -0.297240
O14   O     O_3   0.810501 0.736364 0.724645 -0.440356
H20   H     H_    0.770707 0.738586 0.764234 0.390460
H21   H     H_    0.042608 0.670993 0.538698 0.209515
S3    S     S_3+6 0.937174 0.794897 0.626825 0.121490
O15   O     O_2   0.835559 0.870506 0.626095 -0.180921
O16   O     O_2   0.998141 0.769649 0.703314 -0.228465
O17   O     O_3   0.021696 0.848692 0.586353 -0.541575
H22   H     H_    0.045123 0.906228 0.618160 0.406791
S4    S     S_3+6 0.733241 0.312921 0.867524 0.064831
O18   O     O_2   0.808877 0.379272 0.914071 -0.258941
O19   O     O_2   0.703565 0.235523 0.914145 -0.272013
O20   O     O_3   0.798277 0.250657 0.807354 -0.496429
H23   H     H_    0.865539 0.211047 0.836943 0.404541
S5    S     S_3+6 0.816612 0.182411 0.568629 0.108396
O21   O     O_2   0.777612 0.241985 0.628888 -0.265174
O22   O     O_2   0.885660 0.084056 0.599022 -0.204910
O23   O     O_3   0.895375 0.251578 0.534429 -0.533364
H24   H     H_    0.953307 0.267628 0.576313 0.382781

loop_
_geom_bond_atom_site_label_1
_geom_bond_atom_site_label_2
_ccdc_geom_bond_type
C12   O4    A    
O17   H22   S    
C38   H19   S    
C28   S2    S    
C41   C42   A    
C5    H12   S    
S4    O18   D    
C6    H13   S    
S1    O11   S    
O14   H20   S    
C2    C12   S    
S4    O20   S    
C7    C8    A    
C39   N5    A    
C12   O3    A    
C4    N4    A    
N3    N4    A    
C22   H18   S    
C36   C37   A    
S2    O13   D    
C11   S1    S    
C5    C6    A    
C11   C25   A    
O3    Zn1   S    
C15   C16   A    
O1    Zn1   S    
C13   C23   S    
S5    O21   D    
C8    H14   S    
C35   C36   A    
C2    C44   A    
C8    C9    A    
C18   C26   A    
O5    Zn1   S    
C43   S4    S    
S2    O14   S    
C9    C10   A    
C21   C22   A    
O8    Zn2   S    
C23   O5    A    
C13   C25   A    
C30   H21   S    
S5    O22   D    
C29   S3    S    
C1    O1    A    
C38   N5    A    
C3    N2    A    
C40   H1    S    
C11   C20   A    
C23   O6    A    
S2    O12   D    
O7    Zn1   S    
C27   C39   A    
C17   C19   A    
C14   H4    S    
C27   C35   A    
C28   N6    A    
S5    O23   S    
C14   C26   A    
C13   C24   A    
N1    N2    A    
C9    H15   S    
C43   C44   A    
C29   C30   A    
C25   S5    S    
S3    O16   D    
C31   C32   A    
C30   C31   A    
C4    N1    A    
C31   C33   A    
C17   C18   A    
C32   C37   A    
S1    O9    D    
C41   H9    S    
C36   H7    S    
C37   H10   S    
C40   C41   A    
C1    C26   S    
C7    C34   S    
O2    Zn2   S    
C42   C43   A    
C34   O7    A    
C27   H8    S    
S3    O17   S    
C21   H2    S    
C3    N3    A    
C28   C29   A    
C18   C22   A    
C24   H3    S    
S1    O10   D    
S4    O19   D    
C6    C7    A    
C1    O2    A    
C33   C38   A    
N6    Zn2   S    
C19   C20   A    
C19   C24   A    
C5    C10   A    
C3    C10   S    
O6    Zn2   S    
C44   H11   S    
S3    O15   D    
C16   C17   A    
C4    C42   S    
C16   H17   S    
C33   C35   A    
O4    Zn2   S    
C15   H5    S    
C34   O8    A    
O11   H16   S    
C2    C40   A    
C39   H6    S    
C20   C21   A    
O20   H23   S    
O23   H24   S    
N5    Zn1   S    
C14   C15   A    
C32   N6    A    
