data_mof_unit_59182.cif
_audit_creation_date              2012-10-26T19:28:27-0400
_audit_creation_method            fapswitch 2.2
_symmetry_space_group_name_H-M    P1
_symmetry_Int_Tables_number       1
_space_group_crystal_system       triclinic
_cell_length_a                    14.76219
_cell_length_b                    14.606914
_cell_length_c                    14.360364
_cell_angle_alpha                 77.439639
_cell_angle_beta                  102.79778
_cell_angle_gamma                 114.844783
_cell_volume                      2712.92532556

loop_
_atom_site_label
_atom_site_type_symbol
_atom_type_description
_atom_site_fract_x
_atom_site_fract_y
_atom_site_fract_z
_atom_type_partial_charge
C1    C     C_R   0.880179 0.311803 0.513258 0.542818
C2    C     C_R   0.495667 0.124751 0.418692 -0.128579
C3    C     C_R   0.610617 0.894705 0.497430 0.134159
C4    C     C_R   0.391825 0.101739 0.401855 0.124402
C5    C     C_R   0.706165 0.655950 0.333829 -0.106486
C6    C     C_R   0.286916 0.332723 0.656989 -0.095831
C7    C     C_R   0.793539 0.638583 0.368357 0.239664
C8    C     C_R   0.209520 0.367035 0.636782 0.233455
C9    C     C_R   0.711874 0.504351 0.485733 0.011604
C10   C     C_R   0.280193 0.481942 0.502629 0.009378
C11   C     C_R   0.621127 0.522882 0.455591 -0.039943
C12   C     C_R   0.120074 0.688265 0.485039 0.544213
C13   C     C_R   0.364131 0.451924 0.523355 -0.044823
C14   C     C_R   0.618987 0.598566 0.375478 0.018037
C15   C     C_R   0.364938 0.374422 0.601879 0.030663
C16   C     C_R   0.000282 0.499881 0.668920 0.543795
C17   C     C_R   0.999733 0.500123 0.331081 0.541004
C18   C     C_R   0.533816 0.470639 0.502724 -0.020449
C19   C     C_R   0.447812 0.497394 0.470837 -0.024306
C20   C     C_R   0.447327 0.567807 0.386938 -0.112999
C21   C     C_R   0.529308 0.391572 0.579875 -0.130821
C22   C     C_R   0.531424 0.618829 0.339174 0.131364
C23   C     C_R   0.641051 0.074510 0.484408 -0.022227
C24   C     C_R   0.445238 0.341633 0.627040 0.129771
C25   C     C_1   0.000762 0.499710 0.771432 -0.049970
C26   C     C_1   0.999336 0.500318 0.228584 -0.049298
C27   C     C_1   0.000705 0.499749 0.856821 -0.045910
C28   C     C_1   0.999493 0.500287 0.143218 -0.046942
C29   C     C_1   0.000337 0.499928 0.957388 -0.004578
C30   C     C_1   0.999933 0.500111 0.042668 -0.005446
C31   C     C_R   0.812622 0.203293 0.512993 -0.043087
C32   C     C_R   0.189216 0.796739 0.470974 -0.042121
C33   C     C_R   0.787391 0.025752 0.524923 0.150086
C34   C     C_R   0.361638 0.922801 0.459124 -0.023912
C35   C     C_R   0.219117 0.976521 0.429628 0.155481
C36   C     C_R   0.851253 0.128277 0.527660 -0.113321
C37   C     C_R   0.153742 0.874603 0.448781 -0.109328
C38   C     C_R   0.708395 0.175602 0.493864 -0.149959
C39   C     C_R   0.292834 0.821834 0.480189 -0.152370
C40   C     C_3   0.617173 0.733808 0.581527 -0.313314
C41   C     C_3   0.391138 0.272190 0.376470 -0.314939
C42   C     C_3   0.871952 0.940726 0.469678 -0.282324
C43   C     C_3   0.113926 0.062970 0.330678 -0.293347
C44   C     C_3   0.461462 0.742461 0.236531 -0.314988
C45   C     C_R   0.680164 0.996756 0.503396 0.079658
C46   C     C_3   0.389618 0.159476 0.666791 -0.317109
C47   C     C_R   0.323970 0.001703 0.430727 0.071417
C48   C     C_R   0.535193 0.049723 0.459110 -0.006300
C49   C     C_R   0.467252 0.946877 0.467740 -0.003615
C50   C     C_R   0.506800 0.871558 0.480906 -0.125529
Cu1   Cu    Cu3+1 0.081740 0.475690 0.523180 0.916191
Cu2   Cu    Cu3+1 0.918260 0.524310 0.476820 0.919322
H1    H     H_    0.380670 0.582066 0.355398 0.102466
H2    H     H_    0.718713 0.446350 0.543979 0.122304
H3    H     H_    0.708948 0.717990 0.275728 0.142356
H4    H     H_    0.287446 0.275896 0.719592 0.162578
H5    H     H_    0.625208 0.787950 0.436343 0.270377
H6    H     H_    0.657201 0.683408 0.584688 0.157948
H7    H     H_    0.534734 0.687256 0.572472 0.146017
H8    H     H_    0.640643 0.765689 0.650630 0.151754
H9    H     H_    0.360871 0.182008 0.270973 0.252723
H10   H     H_    0.346409 0.315925 0.333001 0.154133
H11   H     H_    0.471772 0.317383 0.368644 0.144445
H12   H     H_    0.588479 0.363433 0.603530 0.094433
H13   H     H_    0.380915 0.260749 0.452854 0.163688
H14   H     H_    0.804954 0.891169 0.597054 0.282406
H15   H     H_    0.911552 0.888015 0.496807 0.144073
H16   H     H_    0.926351 0.014719 0.438410 0.150189
H17   H     H_    0.808650 0.907889 0.412469 0.163116
H18   H     H_    0.224958 0.117818 0.448294 0.273904
H19   H     H_    0.083962 0.120503 0.332869 0.136528
H20   H     H_    0.048980 0.989657 0.319843 0.140346
H21   H     H_    0.156946 0.088682 0.269001 0.169301
H22   H     H_    0.539782 0.671351 0.192700 0.250600
H23   H     H_    0.318592 0.760794 0.506278 0.132388
H24   H     H_    0.485678 0.809084 0.179717 0.150472
H25   H     H_    0.463596 0.770739 0.303103 0.152237
H26   H     H_    0.383342 0.690842 0.211204 0.140426
H27   H     H_    0.511589 0.265080 0.740612 0.252555
H28   H     H_    0.385191 0.098046 0.728852 0.150730
H29   H     H_    0.430689 0.152360 0.614281 0.148533
H30   H     H_    0.311513 0.149402 0.631985 0.155465
H31   H     H_    0.153273 0.384296 0.746287 0.252072
H32   H     H_    0.066280 0.295640 0.673671 0.270591
H33   H     H_    0.915388 0.673393 0.300330 0.274453
H34   H     H_    0.680483 0.234225 0.488756 0.127284
H35   H     H_    0.929413 0.756251 0.377150 0.235291
H36   H     H_    0.075292 0.857110 0.449960 0.122652
H37   H     H_    0.932126 0.148863 0.543257 0.146949
H38   H     H_    0.458400 0.793431 0.473204 0.101691
H39   H     H_    0.544475 0.200967 0.392567 0.115748
H40   H     H_    0.274122 0.540592 0.444672 0.118055
N1    N     N_R   0.795420 0.560790 0.441960 -0.213038
N2    N     N_3   0.880845 0.709315 0.326783 -0.645491
N3    N     N_R   0.204580 0.439210 0.558040 -0.212695
N4    N     N_2   0.643221 0.814965 0.501365 -0.529525
N5    N     N_2   0.355620 0.174824 0.342826 -0.529424
N6    N     N_2   0.834696 0.954873 0.548347 -0.509687
N7    N     N_2   0.178597 0.051543 0.420325 -0.514343
N8    N     N_2   0.529287 0.690226 0.253533 -0.541425
N9    N     N_2   0.442197 0.257675 0.700542 -0.535033
N10   N     N_3   0.140745 0.327893 0.705603 -0.639419
O1    O     O_R   0.977910 0.338120 0.530560 -0.508024
O2    O     O_R   0.022090 0.661880 0.469440 -0.505787
O3    O     O_R   0.839850 0.379180 0.491410 -0.500542
O4    O     O_R   0.160150 0.620820 0.508590 -0.498866
O5    O     O_R   0.069040 0.479460 0.643530 -0.487919
O6    O     O_R   0.930960 0.520540 0.356470 -0.485907
O7    O     O_R   0.930990 0.520530 0.604380 -0.477044
O8    O     O_R   0.069010 0.479470 0.395620 -0.481422

loop_
_geom_bond_atom_site_label_1
_geom_bond_atom_site_label_2
_ccdc_geom_bond_type
C36   H37   S    
C43   H21   S    
C46   H28   S    
C11   C18   A    
C43   H20   S    
C40   H8    S    
H31   N10   S    
C27   C29   S    
C18   C21   A    
C33   C45   A    
C37   H36   S    
C19   C20   A    
C35   C47   A    
C17   O8    A    
C38   H34   S    
C23   C45   A    
C17   C26   S    
C10   N3    A    
C44   H25   S    
C35   C37   A    
C43   N7    S    
C33   N6    S    
C42   N6    S    
C11   C14   A    
Cu1   O1    S    
H35   N2    S    
C1    C31   S    
C33   C36   A    
H32   N10   S    
C24   N9    S    
C32   C39   A    
C44   H24   S    
C21   H12   S    
C16   O5    A    
C6    C15   A    
C46   H30   S    
C50   H38   S    
Cu2   O2    S    
H5    N4    S    
C3    N4    S    
C39   H23   S    
C1    O1    A    
C10   H40   S    
C40   H7    S    
C4    N5    S    
C12   C32   S    
C42   H16   S    
C8    N3    A    
C41   H10   S    
C40   N4    S    
C35   N7    S    
C3    C50   A    
C16   O7    A    
C7    N1    A    
C46   N9    S    
C40   H6    S    
C13   C19   A    
Cu1   Cu2   S    
C22   N8    S    
C17   O6    A    
C5    C7    A    
C18   C19   A    
C6    C8    A    
C2    C48   A    
C3    C45   A    
C42   H17   S    
C34   C39   A    
C2    C4    A    
C29   C30   T    
C46   H29   S    
H33   N2    S    
Cu2   N1    S    
C32   C37   A    
C9    C11   A    
C5    C14   A    
C48   C49   A    
C20   C22   A    
Cu2   O3    S    
Cu1   O8    S    
C13   C15   A    
C42   H15   S    
C41   N5    S    
C41   H11   S    
C9    N1    A    
H18   N7    S    
C16   C25   S    
C7    N2    S    
C15   C24   A    
C34   C49   A    
C43   H19   S    
C23   C48   A    
C5    H3    S    
H9    N5    S    
C6    H4    S    
C20   H1    S    
C10   C13   A    
H22   N8    S    
C12   O2    A    
C9    H2    S    
C25   C27   T    
C23   C38   A    
C26   C28   T    
C31   C38   A    
C14   C22   A    
C44   H26   S    
C12   O4    A    
C44   N8    S    
H14   N6    S    
Cu2   O7    S    
Cu1   O4    S    
C28   C30   S    
C41   H13   S    
C2    H39   S    
Cu2   O6    S    
Cu1   O5    S    
C49   C50   A    
C21   C24   A    
C1    O3    A    
C31   C36   A    
H27   N9    S    
C34   C47   A    
C8    N10   S    
Cu1   N3    S    
C4    C47   A    
