data_mof_unit_30208.cif
_audit_creation_date              2012-10-26T19:25:19-0400
_audit_creation_method            fapswitch 2.2
_symmetry_space_group_name_H-M    P1
_symmetry_Int_Tables_number       1
_space_group_crystal_system       triclinic
_cell_length_a                    12.473248
_cell_length_b                    13.1871
_cell_length_c                    19.301956
_cell_angle_alpha                 74.916996
_cell_angle_beta                  101.183927
_cell_angle_gamma                 117.141742
_cell_volume                      2717.46986191

loop_
_atom_site_label
_atom_site_type_symbol
_atom_type_description
_atom_site_fract_x
_atom_site_fract_y
_atom_site_fract_z
_atom_type_partial_charge
C1    C     C_R   0.854525 0.285394 0.509913 0.635611
C2    C     C_R   0.003919 0.507602 0.145395 0.063399
C3    C     C_R   0.283470 0.033614 0.403886 0.238418
C4    C     C_R   0.000433 0.500282 0.632055 0.596209
C5    C     C_R   0.226818 0.840198 0.479291 -0.007851
C6    C     C_R   0.791290 0.087389 0.588188 0.021793
C7    C     C_R   0.694886 0.001615 0.628567 0.147225
C8    C     C_R   0.577322 0.988439 0.604136 0.314053
C9    C     C_R   0.550805 0.034341 0.531129 -0.031523
C10   C     C_R   0.647130 0.126217 0.492661 -0.013777
C11   C     C_R   0.431740 0.993032 0.495893 0.008119
C12   C     C_R   0.002103 0.503085 0.707784 0.063810
C13   C     C_R   0.404709 0.064629 0.433356 -0.048711
C14   C     C_R   0.500092 0.158528 0.397184 -0.121674
C15   C     C_R   0.620722 0.183133 0.422955 0.262358
C16   C     C_R   0.144816 0.714494 0.489944 0.550539
C17   C     C_R   0.343209 0.878111 0.516796 0.196430
C18   C     C_R   0.195262 0.920716 0.426148 0.106570
C19   C     C_R   0.767469 0.160767 0.525722 0.035122
C20   C     C_R   0.312975 0.286948 0.586651 0.125058
C21   C     C_R   0.765732 0.650945 0.403440 0.031854
C22   C     C_R   0.665704 0.671695 0.370337 0.106568
C23   C     C_R   0.005529 0.510314 0.068739 0.398914
C24   C     C_R   0.552159 0.602379 0.397583 0.183840
C25   C     C_R   0.542415 0.521159 0.464073 -0.012225
C26   C     C_R   0.644392 0.493934 0.490865 0.171479
C27   C     C_R   0.434404 0.460212 0.503180 -0.018543
C28   C     C_R   0.000317 0.501005 0.367773 0.630987
C29   C     C_R   0.416227 0.352550 0.549276 -0.035583
C30   C     C_R   0.507336 0.316291 0.564578 -0.145238
C31   C     C_R   0.623251 0.392372 0.546618 0.117705
C32   C     C_R   0.346627 0.502778 0.501454 0.353589
C33   C     C_R   0.232072 0.333084 0.584218 0.382995
C34   C     C_R   0.006280 0.511494 0.928419 0.396965
C35   C     C_R   0.009164 0.411477 0.762452 0.057887
C36   C     C_R   0.011021 0.414556 0.835092 0.072995
C37   C     C_R   0.004767 0.508863 0.852564 0.077874
C38   C     C_R   0.996267 0.599927 0.797790 0.070435
C39   C     C_R   0.995196 0.597135 0.725137 0.054322
C40   C     C_R   0.021172 0.418886 0.198756 0.054752
C41   C     C_R   0.020380 0.416750 0.272448 0.210903
C42   C     C_R   0.000811 0.502737 0.291412 0.067422
C43   C     C_R   0.983007 0.590826 0.238145 0.036478
C44   C     C_R   0.984926 0.593492 0.164994 0.067198
Cu1   Cu    Cu3+1 0.098280 0.475420 0.516260 1.031089
Cu2   Cu    Cu3+1 0.901720 0.524580 0.483740 1.010919
H1    H     H_    0.481996 0.206220 0.345045 0.121636
H2    H     H_    0.428741 0.964811 0.636978 0.319737
H3    H     H_    0.803721 0.948358 0.711077 0.205070
H4    H     H_    0.666411 0.846373 0.693765 0.263664
H5    H     H_    0.679482 0.291143 0.333220 0.322704
H6    H     H_    0.100572 0.316279 0.630517 0.391398
H7    H     H_    0.289014 0.175922 0.683645 0.263114
H8    H     H_    0.208678 0.113399 0.612338 0.260667
H9    H     H_    0.940222 0.243767 0.883098 0.239291
H10   H     H_    0.093914 0.311828 0.889429 0.246542
H11   H     H_    0.295846 0.608687 0.433656 0.346088
H12   H     H_    0.495715 0.236014 0.602564 0.159094
H13   H     H_    0.369641 0.525226 0.363621 0.238689
H14   H     H_    0.437600 0.675165 0.345498 0.281508
H15   H     H_    0.767399 0.809082 0.295888 0.217354
H16   H     H_    0.635918 0.713886 0.262512 0.250245
H17   H     H_    0.711997 0.384018 0.645011 0.221490
H18   H     H_    0.697189 0.282425 0.601889 0.203664
H19   H     H_    0.912659 0.703092 0.791951 0.238778
H20   H     H_    0.066220 0.772475 0.797594 0.236622
H21   H     H_    0.065103 0.767852 0.676891 0.225731
H22   H     H_    0.911404 0.698978 0.670464 0.237842
H23   H     H_    0.851434 0.700223 0.380146 0.162197
H24   H     H_    0.118868 0.330713 0.198533 0.247289
H25   H     H_    0.965747 0.248911 0.196135 0.246525
H26   H     H_    0.053182 0.278764 0.308119 0.333954
H27   H     H_    0.036235 0.760333 0.240833 0.230234
H28   H     H_    0.883874 0.678824 0.235406 0.232158
H29   H     H_    0.040313 0.764802 0.119688 0.238688
H30   H     H_    0.887906 0.684175 0.113130 0.244200
H31   H     H_    0.039736 0.940254 0.398434 0.262607
H32   H     H_    0.079638 0.897107 0.335978 0.256294
H33   H     H_    0.934282 0.238827 0.762108 0.232196
H34   H     H_    0.088073 0.304320 0.768362 0.250021
H35   H     H_    0.303111 0.189412 0.356777 0.324166
H36   H     H_    0.308819 0.751213 0.598845 0.344027
H37   H     H_    0.923278 0.031935 0.616141 0.238448
H38   H     H_    0.930935 0.126253 0.664892 0.257665
N1    N     N_R   0.922756 0.533437 0.949644 -0.189018
N2    N     N_3   0.292428 0.174183 0.630278 -0.642622
N3    N     N_3   0.015483 0.320553 0.891495 -0.597406
N4    N     N_3   0.448161 0.599790 0.348923 -0.606688
N5    N     N_3   0.676433 0.757755 0.305330 -0.599480
N6    N     N_3   0.715341 0.370061 0.594659 -0.537663
N7    N     N_3   0.992070 0.696323 0.816697 -0.601094
N8    N     N_3   0.990204 0.690774 0.668573 -0.613225
N9    N     N_3   0.034790 0.329560 0.176930 -0.601083
N10   N     N_3   0.966875 0.679446 0.259159 -0.634977
N11   N     N_3   0.971191 0.685176 0.110232 -0.594515
N12   N     N_R   0.922339 0.532749 0.018620 -0.184232
N13   N     N_3   0.074997 0.885808 0.391155 -0.597348
N14   N     N_R   0.089526 0.489196 0.047313 -0.184318
N15   N     N_R   0.089780 0.489576 0.978403 -0.184746
N16   N     N_R   0.246290 0.438200 0.540910 -0.253219
N17   N     N_R   0.754310 0.561190 0.459520 -0.244636
N18   N     N_3   0.009988 0.313670 0.743458 -0.645102
N19   N     N_3   0.913319 0.107469 0.613371 -0.565136
N20   N     N_3   0.713594 0.933959 0.697627 -0.560586
O1    O     O_R   0.972510 0.318130 0.520450 -0.455455
O2    O     O_3   0.376216 0.799696 0.567621 -0.611324
O3    O     O_3   0.493172 0.937607 0.654476 -0.638647
O4    O     O_3   0.713355 0.259157 0.379823 -0.666995
O5    O     O_3   0.139818 0.268587 0.627927 -0.707695
O6    O     O_3   0.369336 0.613875 0.465778 -0.659487
O7    O     O_3   0.034252 0.330690 0.327254 -0.667101
O8    O     O_R   0.806530 0.359650 0.492990 -0.463510
O9    O     O_R   0.083010 0.479220 0.613590 -0.522634
O10   O     O_R   0.917030 0.520740 0.586130 -0.449055
O11   O     O_R   0.193470 0.640350 0.507010 -0.475736
O12   O     O_R   0.027490 0.681870 0.479550 -0.475702
O13   O     O_R   0.082970 0.479260 0.413870 -0.497636
O14   O     O_R   0.916990 0.520780 0.386410 -0.473196
O15   O     O_3   0.248851 0.108701 0.350736 -0.707088

loop_
_geom_bond_atom_site_label_1
_geom_bond_atom_site_label_2
_ccdc_geom_bond_type
C16   O11   A    
H4    N20   S    
Cu2   O8    S    
C27   C29   A    
C34   C37   S    
C41   C42   A    
H28   N10   S    
C35   C36   A    
H18   N6    S    
C40   N9    S    
C35   N18   S    
H3    N20   S    
H14   N4    S    
H29   N11   S    
C7    C8    A    
Cu1   Cu2   S    
C6    C19   A    
C29   C30   A    
H37   N19   S    
C4    O10   A    
C36   C37   A    
C10   C15   A    
C1    O8    A    
C30   C31   A    
N1    N12   A    
H2    O3    S    
C5    C17   A    
H16   N5    S    
C43   N10   S    
C23   N12   A    
Cu2   O14   S    
C3    C18   A    
C32   O6    S    
H13   N4    S    
C5    C16   S    
C14   H1    S    
Cu1   O1    S    
H5    O4    S    
C20   N2    S    
H33   N18   S    
H31   N13   S    
H7    N2    S    
C18   N13   S    
C4    C12   S    
C9    C10   A    
C3    C13   A    
C21   N17   A    
H26   O7    S    
C26   C31   A    
C21   C22   A    
H27   N10   S    
C16   O12   A    
H15   N5    S    
C20   C29   A    
C36   N3    S    
Cu2   N17   S    
C1    C19   S    
Cu2   O10   S    
C4    O9    A    
H24   N9    S    
C24   C25   A    
C2    C44   A    
H8    N2    S    
C8    C9    A    
H10   N3    S    
C5    C18   A    
C25   C26   A    
C38   N7    S    
C32   N16   A    
C21   H23   S    
C34   N1    A    
C15   O4    S    
C43   C44   A    
C37   C38   A    
Cu1   O9    S    
C9    C11   A    
Cu1   O11   S    
H11   O6    S    
C10   C19   A    
C31   N6    S    
H32   N13   S    
C34   N15   A    
C6    N19   S    
C12   C35   A    
H30   N11   S    
C24   N4    S    
C6    C7    A    
C3    O15   S    
C20   C33   A    
C40   C41   A    
C7    N20   S    
C22   C24   A    
C33   O5    S    
C42   C43   A    
C8    O3    S    
C39   N8    S    
Cu1   O13   S    
H19   N7    S    
C11   C17   A    
C27   C32   A    
Cu1   N16   S    
H20   N7    S    
H25   N9    S    
C25   C27   A    
H35   O15   S    
Cu2   O12   S    
C28   O13   A    
C33   N16   A    
C12   C39   A    
C26   N17   A    
C44   N11   S    
C28   O14   A    
C17   O2    S    
C11   C13   A    
C38   C39   A    
H6    O5    S    
C30   H12   S    
H17   N6    S    
C28   C42   S    
H21   N8    S    
H22   N8    S    
C22   N5    S    
H36   O2    S    
H9    N3    S    
C2    C40   A    
C23   N14   A    
N14   N15   A    
C41   O7    S    
H34   N18   S    
C2    C23   S    
H38   N19   S    
C14   C15   A    
C13   C14   A    
C1    O1    A    
