data_mof_unit_65444.cif
_audit_creation_date              2013-03-05T16:38:38-0500
_audit_creation_method            fapswitch 2.2
_symmetry_space_group_name_H-M    P1
_symmetry_Int_Tables_number       1
_space_group_crystal_system       triclinic
_cell_length_a                    15.916995
_cell_length_b                    16.00131
_cell_length_c                    14.771033
_cell_angle_alpha                 90.01962
_cell_angle_beta                  90.018433
_cell_angle_gamma                 89.991216
_cell_volume                      3762.07486978

loop_
_atom_site_label
_atom_site_type_symbol
_atom_site_description
_atom_site_fract_x
_atom_site_fract_y
_atom_site_fract_z
_atom_type_partial_charge
O1    O     O_R   0.500040 0.380310 0.575320 -0.567565
O2    O     O_R   0.499960 0.619690 0.424680 -0.567565
O3    O     O_R   0.500000 0.380310 0.424640 -0.558062
O4    O     O_R   0.500000 0.619690 0.575360 -0.558061
C1    C     C_R   0.500022 0.340850 0.499964 0.815687
C2    C     C_R   0.499978 0.659150 0.500035 0.815687
O5    O     O_R   0.379100 0.499990 0.575330 -0.546429
O6    O     O_R   0.620900 0.500010 0.424670 -0.546429
O7    O     O_R   0.379060 0.499990 0.424640 -0.573658
O8    O     O_R   0.620940 0.500010 0.575360 -0.573658
C3    C     C_R   0.339516 0.500014 0.499982 0.812913
C4    C     C_R   0.660484 0.499986 0.500017 0.812912
Cu1   Cu    Cu3+1 0.500020 0.500000 0.589220 1.059326
Cu2   Cu    Cu3+1 0.499980 0.500000 0.410780 1.059326
C5    C     C_3   0.971736 0.428459 0.539693 -0.389711
C6    C     C_3   0.028264 0.571541 0.460307 -0.389712
C7    C     C_3   0.028748 0.433989 0.454518 0.641962
C8    C     C_3   0.971252 0.566011 0.545482 0.641963
H1    H     H_    0.949116 0.370259 0.572497 0.225397
H2    H     H_    0.050884 0.629740 0.427503 0.225397
C9    C     C_1   0.250155 0.500256 0.499999 -0.093356
C10   C     C_1   0.749845 0.499744 0.500001 -0.093357
C11   C     C_3   0.026806 0.496468 0.584335 0.233325
C12   C     C_3   0.973194 0.503531 0.415665 0.233326
C13   C     C_3   0.083550 0.500877 0.500538 -0.171961
C14   C     C_3   0.916450 0.499123 0.499462 -0.171961
C15   C     C_1   0.174884 0.500528 0.500172 0.174240
C16   C     C_1   0.825116 0.499472 0.499828 0.174240
H3    H     H_    0.491572 0.077599 0.645346 0.211337
H4    H     H_    0.508428 0.922401 0.354654 0.211337
C17   C     C_R   0.495227 0.956678 0.582266 0.676422
C18   C     C_R   0.504773 0.043322 0.417734 0.676422
C19   C     C_R   0.499978 0.912757 0.500326 -0.097236
C20   C     C_R   0.500022 0.087243 0.499674 -0.097236
C21   C     C_R   0.504744 0.956092 0.418183 -0.308677
C22   C     C_R   0.495256 0.043908 0.581816 -0.308677
C23   C     C_1   0.499979 0.823277 0.500178 0.112580
C24   C     C_1   0.500021 0.176723 0.499821 0.112580
C25   C     C_1   0.500022 0.251751 0.499915 -0.107172
C26   C     C_1   0.499978 0.748249 0.500085 -0.107172
C27   C     C_R   0.559790 0.546066 0.951956 -0.291319
C28   C     C_R   0.440210 0.453934 0.048044 -0.291319
H5    H     H_    0.606679 0.582193 0.916031 0.211020
H6    H     H_    0.393321 0.417807 0.083969 0.211020
C29   C     C_R   0.499786 0.499868 0.902869 -0.191102
C30   C     C_R   0.500214 0.500131 0.097131 -0.191102
C31   C     C_R   0.439875 0.453711 0.952266 0.689183
C32   C     C_R   0.560125 0.546288 0.047734 0.689183
C33   C     C_1   0.499904 0.499971 0.802698 0.324809
C34   C     C_1   0.500096 0.500029 0.197302 0.324809
N1    N     N_1   0.500030 0.499980 0.276710 -0.143198
N2    N     N_1   0.499970 0.500020 0.723290 -0.143198
F1    F     F_    0.058821 0.366526 0.405805 -0.578693
F2    F     F_    0.941179 0.633474 0.594195 -0.578693
N3    N     N_R   0.945509 0.506195 0.321687 0.185535
O9    O     O_R   0.000826 0.509367 0.257029 -0.249229
O10   O     O_R   0.865932 0.505650 0.301779 -0.290059
N4    N     N_R   0.054491 0.493805 0.678313 0.185535
O11   O     O_R   0.999174 0.490633 0.742971 -0.249229
O12   O     O_R   0.134068 0.494350 0.698220 -0.290059
F3    F     F_    0.490585 0.915222 0.662292 -0.611198
F4    F     F_    0.509415 0.084778 0.337708 -0.611198
F5    F     F_    0.619170 0.591745 0.092127 -0.605110
F6    F     F_    0.380830 0.408255 0.907873 -0.605110

loop_
_geom_bond_atom_site_label_1
_geom_bond_atom_site_label_2
_geom_bond_distance
_ccdc_geom_bond_type
C11   N4    1.456913 S    
O5    C3    1.278754 A    
O7    Cu2   1.935606 S    
C17   C19   1.401433 A    
C7    F1    1.382646 S    
C13   C15   1.453791 S    
Cu1   N2    1.980353 S    
C27   H5    1.083225 S    
C30   C34   1.479628 S    
C14   C16   1.453791 S    
Cu2   N1    1.980353 S    
C8    C14   1.538794 S    
C29   C33   1.479628 S    
O6    C4    1.278755 A    
C33   N2    1.172942 T    
C7    C13   1.538792 S    
N3    O9    1.300215 A    
C5    C11   1.544947 S    
C34   N1    1.172942 T    
C9    C15   1.198089 T    
C18   F4    1.357706 S    
C6    C12   1.544947 S    
N3    O10   1.300246 A    
C10   C16   1.198089 T    
Cu1   Cu2   2.635742 S    
C12   N3    1.456913 S    
C5    H1    1.110050 S    
O7    C3    1.278729 A    
H3    C22   1.083678 S    
O2    C2    1.279507 A    
O3    Cu2   1.926179 S    
C28   H6    1.083225 S    
H4    C21   1.083678 S    
O1    C1    1.279507 A    
O8    C4    1.278729 A    
O4    C2    1.279484 A    
C6    H2    1.110050 S    
C19   C21   1.399784 A    
C27   C32   1.414757 A    
C12   C14   1.534142 S    
C23   C26   1.200553 T    
C30   C32   1.410053 A    
C28   C31   1.414757 A    
C1    C25   1.425707 S    
C24   C25   1.200553 T    
O2    Cu2   1.926099 S    
C2    C26   1.425707 S    
C7    C12   1.532749 S    
O1    Cu1   1.926101 S    
C8    F2    1.382644 S    
N4    O12   1.300246 A    
C8    C11   1.532750 S    
C18   C21   1.395813 A    
C4    C10   1.422362 S    
C31   F6    1.357127 S    
C11   C13   1.534142 S    
C20   C22   1.399784 A    
C6    C8    1.554034 S    
C28   C30   1.408462 A    
C29   C31   1.410053 A    
C6    C13   1.551082 S    
C5    C7    1.554033 S    
C17   F3    1.357706 S    
C17   C22   1.395813 A    
C5    C14   1.551082 S    
C27   C29   1.408462 A    
O5    Cu1   1.935523 S    
O6    Cu2   1.935522 S    
O3    C1    1.279484 A    
N4    O11   1.300215 A    
C20   C24   1.431798 S    
C3    C9    1.422362 S    
C19   C23   1.431798 S    
O4    Cu1   1.926178 S    
C32   F5    1.357128 S    
O8    Cu1   1.935605 S    
C18   C20   1.401433 A    
