data_mof_unit_48837.cif
_audit_creation_date              2012-12-11T15:21:43-0500
_audit_creation_method            fapswitch 2.2
_symmetry_space_group_name_H-M    P1
_symmetry_Int_Tables_number       1
_space_group_crystal_system       triclinic
_cell_length_a                    18.977656
_cell_length_b                    7.16121
_cell_length_c                    17.796272
_cell_angle_alpha                 89.99862
_cell_angle_beta                  108.877661
_cell_angle_gamma                 89.999847
_cell_volume                      2288.47552747

loop_
_atom_site_label
_atom_site_type_symbol
_atom_type_description
_atom_site_fract_x
_atom_site_fract_y
_atom_site_fract_z
_atom_type_partial_charge
O1    O     O_R   0.562310 0.505770 0.439670 -0.533212
O2    O     O_R   0.437690 0.005770 0.560330 -0.533218
O3    O     O_R   0.411650 0.169150 0.405330 -0.537838
O4    O     O_R   0.588350 0.669150 0.594670 -0.537840
C1    C     C_R   0.384017 0.345886 0.383627 0.621960
C2    C     C_R   0.615984 0.845882 0.616372 0.621976
O5    O     O_R   0.560140 0.175610 0.430010 -0.535373
O6    O     O_R   0.439860 0.675610 0.569990 -0.535379
O7    O     O_R   0.587240 0.012100 0.585200 -0.540419
O8    O     O_R   0.412760 0.512100 0.414800 -0.540418
C3    C     C_R   0.581141 0.344476 0.415424 0.697607
C4    C     C_R   0.418859 0.844475 0.584577 0.697601
O9    O     O_3   0.508720 0.341420 0.550890 -0.370368
O10   O     O_3   0.491280 0.841420 0.449110 -0.370358
V1    V     V_3+5 0.498380 0.063930 0.490560 1.396104
V2    V     V_3+5 0.501620 0.563930 0.509440 1.396098
C5    C     C_R   0.210143 0.964986 0.903428 0.034920
C6    C     C_R   0.789842 0.464775 0.096543 0.034902
C7    C     C_R   0.133597 0.917225 0.869166 -0.083958
C8    C     C_R   0.866408 0.417239 0.130838 -0.083905
C9    C     C_R   0.106708 0.852892 0.790612 -0.243672
C10   C     C_R   0.893325 0.353184 0.209434 -0.243677
C11   C     C_R   0.153797 0.838173 0.744313 0.103365
C12   C     C_R   0.846239 0.338494 0.255738 0.103391
C13   C     C_R   0.228916 0.894382 0.775924 0.023188
C14   C     C_R   0.771084 0.394379 0.224076 0.023196
C15   C     C_R   0.257365 0.960757 0.855107 0.080669
C16   C     C_R   0.742603 0.460442 0.144844 0.080660
C17   C     C_R   0.126778 0.767776 0.666551 -0.179150
C18   C     C_R   0.873297 0.268429 0.333554 -0.179157
C19   C     C_R   0.173714 0.751595 0.620326 -0.190160
C20   C     C_R   0.826365 0.252272 0.379786 -0.190173
C21   C     C_R   0.248377 0.807947 0.650523 0.105976
C22   C     C_R   0.751666 0.308296 0.349537 0.105999
C23   C     C_R   0.275999 0.881314 0.728318 0.057862
C24   C     C_R   0.724000 0.381304 0.271681 0.057861
C25   C     C_R   0.350781 0.940833 0.758538 0.107804
C26   C     C_R   0.649174 0.440453 0.241400 0.107843
C27   C     C_R   0.378231 0.010211 0.835975 -0.191967
C28   C     C_R   0.621680 0.509458 0.163904 -0.191969
C29   C     C_R   0.332648 0.018922 0.883721 -0.199411
C30   C     C_R   0.667270 0.518204 0.116166 -0.199426
C31   C     C_R   0.295890 0.792648 0.604317 -0.220484
C32   C     C_R   0.704157 0.293011 0.395749 -0.220513
C33   C     C_R   0.369998 0.854489 0.634140 -0.059656
C34   C     C_R   0.630004 0.354490 0.365863 -0.059576
C35   C     C_R   0.396985 0.929640 0.710911 -0.213332
C36   C     C_R   0.602967 0.429260 0.289025 -0.213313
H1    H     H_    0.048675 0.812456 0.765722 0.107235
H2    H     H_    0.951378 0.312955 0.234355 0.107189
H3    H     H_    0.069243 0.723916 0.641556 0.120479
H4    H     H_    0.930858 0.224816 0.358587 0.120477
H5    H     H_    0.151469 0.695612 0.560723 0.120403
H6    H     H_    0.848641 0.196555 0.439432 0.120406
H7    H     H_    0.275034 0.735868 0.544684 0.099418
H8    H     H_    0.725047 0.236509 0.455429 0.099373
H9    H     H_    0.454286 0.977036 0.733781 0.101961
H10   H     H_    0.545631 0.476370 0.266106 0.101873
H11   H     H_    0.435539 0.056530 0.860136 0.123454
H12   H     H_    0.564337 0.555460 0.139694 0.123437
H13   H     H_    0.357705 0.072310 0.943145 0.134247
H14   H     H_    0.642177 0.571282 0.056698 0.134282
C37   C     C_3   0.747211 0.855650 0.837499 -0.323877
C38   C     C_3   0.252784 0.355612 0.162500 -0.323858
H15   H     H_    0.760599 0.723948 0.871705 0.141986
H16   H     H_    0.239391 0.223894 0.128309 0.142050
H17   H     H_    0.737922 0.963876 0.877952 0.130906
H18   H     H_    0.262073 0.463827 0.122037 0.130880
C39   C     C_3   0.674596 0.827962 0.766101 -0.328301
C40   C     C_3   0.325399 0.327928 0.233899 -0.328349
H19   H     H_    0.630604 0.923239 0.772601 0.121729
H20   H     H_    0.369393 0.423181 0.227387 0.121757
H21   H     H_    0.653740 0.683030 0.765989 0.142766
H22   H     H_    0.346247 0.182985 0.234031 0.142777
H23   H     H_    0.837202 0.622057 0.783167 0.148071
H24   H     H_    0.162783 0.122094 0.216864 0.148071
H25   H     H_    0.730795 0.585324 0.678018 0.141370
H26   H     H_    0.269195 0.085367 0.322013 0.141378
C41   C     C_3   0.822894 0.757892 0.751499 -0.308895
C42   C     C_3   0.177101 0.257940 0.248518 -0.308915
C43   C     C_3   0.793336 0.095521 0.761703 -0.333941
C44   C     C_3   0.206673 0.595540 0.238277 -0.333900
C45   C     C_3   0.813892 0.912302 0.809671 0.122131
C46   C     C_3   0.186108 0.412303 0.190328 0.122113
H27   H     H_    0.839147 0.136611 0.738772 0.131546
H28   H     H_    0.160865 0.636677 0.261205 0.131551
H29   H     H_    0.786584 0.210456 0.800708 0.145446
H30   H     H_    0.213426 0.710439 0.199256 0.145361
C47   C     C_3   0.688431 0.867179 0.686594 0.122023
C48   C     C_3   0.311570 0.367193 0.313405 0.122020
C49   C     C_3   0.750105 0.732533 0.679881 -0.330734
C50   C     C_3   0.249891 0.232585 0.320135 -0.330712
C51   C     C_3   0.720246 0.070911 0.691394 -0.288257
C52   C     C_3   0.279765 0.570937 0.308586 -0.288245
H31   H     H_    0.678808 0.173234 0.698820 0.151552
H32   H     H_    0.321206 0.673230 0.301146 0.151545
H33   H     H_    0.730770 0.106076 0.635026 0.125189
H34   H     H_    0.269243 0.606143 0.364951 0.125191
H35   H     H_    0.869645 0.794628 0.729343 0.118203
H36   H     H_    0.130355 0.294725 0.270675 0.118199
H37   H     H_    0.761807 0.759536 0.623492 0.125859
H38   H     H_    0.238194 0.259631 0.376523 0.125842
O11   O     O_R   0.087220 0.271820 0.085230 -0.543739
O12   O     O_R   0.912780 0.771820 0.914770 -0.543737
O13   O     O_R   0.939860 0.595540 0.069990 -0.538585
O14   O     O_R   0.060140 0.095540 0.930010 -0.538580
C53   C     C_R   0.918854 0.426532 0.084706 0.695621
C54   C     C_R   0.081150 0.926532 0.915297 0.695598
O15   O     O_R   0.088340 0.601930 0.094680 -0.538480
O16   O     O_R   0.911660 0.101930 0.905320 -0.538479
O17   O     O_R   0.062310 0.765410 0.939660 -0.531653
O18   O     O_R   0.937690 0.265410 0.060340 -0.531659
C55   C     C_R   0.115210 0.431676 0.118668 0.639397
C56   C     C_R   0.884789 0.931678 0.881332 0.639381
O19   O     O_3   0.991270 0.429630 0.949130 -0.371667
O20   O     O_3   0.008730 0.929630 0.050870 -0.371669
V3    V     V_3+5 0.001620 0.707150 0.009440 1.387000
V4    V     V_3+5 0.998380 0.207150 0.990560 1.387000
C57   C     C_3   0.242386 0.002502 0.992262 -0.369654
C58   C     C_3   0.286939 0.832318 0.034947 -0.296575
C59   C     C_3   0.327527 0.872521 0.122382 -0.809624
H39   H     H_    0.368113 0.987818 0.128329 0.230753
H40   H     H_    0.287187 0.911377 0.152930 0.222492
H41   H     H_    0.358205 0.745976 0.151418 0.217176
H42   H     H_    0.248075 0.713471 0.030041 0.186639
H43   H     H_    0.328824 0.789332 0.006875 0.200864
H44   H     H_    0.276926 0.130999 0.003647 0.164398
H45   H     H_    0.198204 0.030483 0.018908 0.163278
C60   C     C_3   0.757616 0.502261 0.007707 -0.369699
C61   C     C_3   0.713214 0.331905 0.965009 -0.296619
C62   C     C_3   0.672551 0.372120 0.877584 -0.809726
H46   H     H_    0.631792 0.486976 0.871695 0.230749
H47   H     H_    0.712812 0.411605 0.847032 0.222554
H48   H     H_    0.642047 0.245403 0.848517 0.217180
H49   H     H_    0.752199 0.213339 0.969876 0.186655
H50   H     H_    0.671397 0.288527 0.993101 0.200860
H51   H     H_    0.722975 0.630586 0.996296 0.164471
H52   H     H_    0.801800 0.530542 0.981095 0.163258

loop_
_geom_bond_atom_site_label_1
_geom_bond_atom_site_label_2
_ccdc_geom_bond_type
O18   V4    S    
C37   H15   S    
O4    V2    S    
C46   C55   S    
C28   H12   S    
C53   O18   A    
C61   H49   S    
O1    C3    A    
C29   H13   S    
C42   C46   S    
C62   H48   S    
O2    C4    A    
O16   V4    S    
C2    O7    A    
C9    H1    S    
C6    C60   S    
O15   V3    S    
C27   C29   A    
O5    C3    A    
O13   C53   A    
C44   C52   S    
C11   C17   A    
C41   H35   S    
C23   C25   A    
C12   C14   A    
O12   V3    S    
C38   H18   S    
C58   H43   S    
C52   H34   S    
O20   V3    S    
C6    C8    A    
C39   H19   S    
C32   H8    S    
C38   C46   S    
C59   H41   S    
C18   H4    S    
C5    C7    A    
C60   H52   S    
C37   C39   S    
C41   C45   S    
C40   H22   S    
C19   C21   A    
C39   H21   S    
C38   C40   S    
C25   C35   A    
C30   H14   S    
C41   C49   S    
C1    C48   S    
O15   C55   A    
C10   H2    S    
C8    C53   S    
C7    C54   S    
C28   C30   A    
O6    V2    S    
C26   C28   A    
C42   H36   S    
C45   C56   S    
O13   V3    S    
C40   C48   S    
C49   H37   S    
C39   C47   S    
C20   H6    S    
C43   C45   S    
C32   C34   A    
C43   H27   S    
C48   C52   S    
C34   C36   A    
C33   C35   A    
C37   H17   S    
C21   C31   A    
C6    C16   A    
O4    C2    A    
C58   H42   S    
O5    V1    S    
C62   H47   S    
C20   C22   A    
C44   H28   S    
C37   C45   S    
C5    C15   A    
C42   C50   S    
C35   H9    S    
C43   C51   S    
C15   C29   A    
C48   C50   S    
O6    C4    A    
O19   V4    S    
C27   H11   S    
C22   C32   A    
O1    V2    S    
C19   H5    S    
C52   H32   S    
O2    V1    S    
C31   C33   A    
C59   H39   S    
C43   H29   S    
C13   C23   A    
O12   C56   A    
C14   C24   A    
C8    C10   A    
C44   C46   S    
C9    C11   A    
C10   C12   A    
O11   V4    S    
C47   C49   S    
C62   H46   S    
C51   H33   S    
O3    V1    S    
C58   C59   S    
C60   C61   S    
C17   H3    S    
C31   H7    S    
O16   C56   A    
H25   C49   S    
O11   C55   A    
C26   C36   A    
C61   H50   S    
H24   C42   S    
C4    C33   S    
O3    C1    A    
C57   C58   S    
C36   H10   S    
C50   H38   S    
C13   C15   A    
C2    C47   S    
C14   C16   A    
C54   O17   A    
O17   V3    S    
H26   C50   S    
C24   C26   A    
C61   C62   S    
O7    V1    S    
C1    O8    A    
C25   C27   A    
O8    V2    S    
C57   H45   S    
C18   C20   A    
C51   H31   S    
O14   C54   A    
C44   H30   S    
C16   C30   A    
C21   C23   A    
C22   C24   A    
C11   C13   A    
C47   C51   S    
C12   C18   A    
C59   H40   S    
C5    C57   S    
C60   H51   S    
C17   C19   A    
O9    V2    S    
O10   V1    S    
C3    C34   S    
C40   H20   S    
H23   C41   S    
O14   V4    S    
C38   H16   S    
C7    C9    A    
C57   H44   S    
