data_mof_unit_35869.cif
_audit_creation_date              2012-12-11T14:31:07-0500
_audit_creation_method            fapswitch 2.2
_symmetry_space_group_name_H-M    P1
_symmetry_Int_Tables_number       1
_space_group_crystal_system       triclinic
_cell_length_a                    6.894272
_cell_length_b                    14.299351
_cell_length_c                    16.435039
_cell_angle_alpha                 89.674503
_cell_angle_beta                  90.211395
_cell_angle_gamma                 89.816713
_cell_volume                      1620.17998862

loop_
_atom_site_label
_atom_site_type_symbol
_atom_type_description
_atom_site_fract_x
_atom_site_fract_y
_atom_site_fract_z
_atom_type_partial_charge
O1    O     O_R   0.469910 0.836130 0.163900 -0.532808
O2    O     O_R   0.530090 0.163870 0.836100 -0.534477
O3    O     O_R   0.530090 0.163870 0.663900 -0.543571
O4    O     O_R   0.469910 0.836130 0.336100 -0.540045
O5    O     O_R   0.969910 0.663870 0.336100 -0.535026
O6    O     O_R   0.030090 0.336130 0.663900 -0.529369
O7    O     O_R   0.030090 0.336130 0.836100 -0.542401
O8    O     O_R   0.969910 0.663870 0.163900 -0.537868
O9    O     O_R   0.140100 0.847470 0.335520 -0.536355
O10   O     O_R   0.859900 0.152530 0.664480 -0.536627
O11   O     O_R   0.859900 0.152530 0.835520 -0.545335
O12   O     O_R   0.140100 0.847470 0.164480 -0.544026
O13   O     O_R   0.640100 0.652530 0.164480 -0.536993
O14   O     O_R   0.359900 0.347470 0.835520 -0.530107
O15   O     O_R   0.359900 0.347470 0.664480 -0.537538
O16   O     O_R   0.640100 0.652530 0.335520 -0.549479
C1    C     C_R   0.310894 0.871176 0.362444 0.759347
C2    C     C_R   0.689106 0.129147 0.637279 0.758188
C3    C     C_R   0.690283 0.131436 0.864803 0.780042
C4    C     C_R   0.309718 0.868557 0.135193 0.790114
C5    C     C_R   0.810886 0.629597 0.136913 0.780217
C6    C     C_R   0.189059 0.371113 0.862453 0.773934
C7    C     C_R   0.188412 0.368842 0.635126 0.764982
C8    C     C_R   0.811218 0.628066 0.361879 0.787883
O17   O     O_3   0.303300 0.689750 0.250000 -0.374137
O18   O     O_3   0.696700 0.310250 0.750000 -0.358932
O19   O     O_3   0.803300 0.810250 0.250000 -0.374419
O20   O     O_3   0.196700 0.189750 0.750000 -0.377485
V1    V     V_3+5 0.028490 0.761170 0.250000 1.553439
V2    V     V_3+5 0.971510 0.238830 0.750000 1.559512
V3    V     V_3+5 0.528490 0.738830 0.250000 1.550097
V4    V     V_3+5 0.471510 0.261170 0.750000 1.574713
C9    C     C_2   0.828641 0.560839 0.430278 -0.345225
C10   C     C_2   0.168623 0.434336 0.564468 -0.355889
C11   C     C_2   0.173559 0.438143 0.930662 -0.328179
C12   C     C_2   0.826347 0.563724 0.067744 -0.325878
C13   C     C_2   0.325999 0.943513 0.072834 -0.341492
C14   C     C_2   0.674008 0.056480 0.927164 -0.341689
C15   C     C_2   0.673825 0.063457 0.568002 -0.340612
C16   C     C_2   0.325996 0.937330 0.431358 -0.347501
C17   C     C_2   0.990491 0.507925 0.446086 -0.068448
C18   C     C_2   0.998799 0.449952 0.522356 -0.035200
C19   C     C_2   0.002374 0.473309 0.960070 -0.049804
C20   C     C_2   0.997696 0.530941 0.036436 -0.042666
C21   C     C_2   0.485261 0.955534 0.024383 -0.040265
C22   C     C_2   0.514755 0.044463 0.975621 -0.041280
C23   C     C_2   0.502970 0.028291 0.538372 -0.044621
C24   C     C_2   0.496498 0.973647 0.460219 -0.042288
H1    H     H_    0.300303 0.469082 0.545523 0.190580
H2    H     H_    0.708264 0.560365 0.472694 0.159815
H3    H     H_    0.689597 0.545755 0.039247 0.174810
H4    H     H_    0.309662 0.454609 0.960411 0.177366
H5    H     H_    0.790314 0.005500 0.926986 0.175382
H6    H     H_    0.209694 0.994493 0.073015 0.175978
H7    H     H_    0.190867 0.951196 0.462480 0.181093
H8    H     H_    0.809258 0.048848 0.537383 0.183260
C25   C     C_2   0.811774 0.407831 0.547664 0.816834
O21   O     O_2   0.727286 0.437894 0.607387 -0.546643
O22   O     O_R   0.728572 0.337505 0.500435 -0.650303
H9    H     H_    0.599707 0.315420 0.522864 0.292158
C26   C     C_2   0.141683 0.493538 0.382573 0.837673
O23   O     O_2   0.092314 0.480649 0.311984 -0.530240
O24   O     O_R   0.338537 0.492481 0.402961 -0.675968
H10   H     H_    0.424939 0.480790 0.354249 0.303647
C27   C     C_2   0.185202 0.549742 0.077613 0.827099
O25   O     O_2   0.293698 0.609666 0.050480 -0.551639
O26   O     O_R   0.237815 0.497390 0.146242 -0.620289
H11   H     H_    0.370273 0.514911 0.168167 0.305131
C28   C     C_2   0.816959 0.457833 0.916121 0.817482
O27   O     O_2   0.695725 0.404903 0.944675 -0.551799
O28   O     O_R   0.782910 0.503602 0.842059 -0.641159
H12   H     H_    0.650741 0.488658 0.818345 0.309322
C29   C     C_2   0.370524 0.121683 0.982966 0.808259
O29   O     O_2   0.423160 0.198729 0.006098 -0.535729
O30   O     O_R   0.176766 0.106822 0.961564 -0.662203
H13   H     H_    0.093600 0.164592 0.969723 0.295990
C30   C     C_2   0.629495 0.878316 0.017036 0.805206
O31   O     O_2   0.576878 0.801284 0.993865 -0.537503
O32   O     O_R   0.823239 0.893165 0.038469 -0.661713
H14   H     H_    0.906405 0.835395 0.030303 0.295017
C31   C     C_2   0.679527 0.961559 0.414129 0.815053
O33   O     O_2   0.808356 0.911475 0.441550 -0.571466
O34   O     O_R   0.702215 0.006660 0.339120 -0.644807
H15   H     H_    0.833333 0.993695 0.313760 0.301946
C32   C     C_2   0.319002 0.041631 0.583550 0.805639
O35   O     O_2   0.192536 0.092702 0.555548 -0.565754
O36   O     O_R   0.292379 0.996173 0.658159 -0.651119
H16   H     H_    0.160665 0.009722 0.682723 0.299159

loop_
_geom_bond_atom_site_label_1
_geom_bond_atom_site_label_2
_ccdc_geom_bond_type
O17   V3    S    
O36   H16   S    
O18   V4    S    
O12   V1    S    
O19   V1    S    
C17   C18   S    
C10   C18   D    
C17   C26   S    
C19   C20   S    
C31   O33   D    
O15   V4    S    
C5    C12   S    
C30   O31   D    
O16   V3    S    
C6    C11   S    
C14   H5    S    
O11   C3    A    
O8    V1    S    
C23   C32   S    
C25   O22   S    
O1    V3    S    
C24   C31   S    
O3    C2    A    
O2    V4    S    
C29   O29   D    
C26   O24   S    
C2    C15   S    
C15   H8    S    
O11   V2    S    
C10   H1    S    
C11   C19   D    
O9    V1    S    
C7    C10   S    
O15   C7    A    
O22   H9    S    
C19   C28   S    
O7    V2    S    
C29   O30   S    
C20   C27   S    
C26   O23   D    
C18   C25   S    
C31   O34   S    
O5    V1    S    
C30   O32   S    
O17   V1    S    
C28   O28   S    
C32   O36   S    
O19   V3    S    
O26   H11   S    
C23   C24   S    
O20   V4    S    
C27   O26   S    
C9    H2    S    
C32   O35   D    
O32   H14   S    
C1    C16   S    
O30   H13   S    
C3    C14   S    
O10   V2    S    
O34   H15   S    
C16   H7    S    
O12   C4    A    
O8    C5    A    
O13   C5    A    
O3    V4    S    
C12   H3    S    
C13   H6    S    
O9    C1    A    
O6    V2    S    
O18   V2    S    
C12   C20   D    
O4    C1    A    
C13   C21   D    
C15   C23   D    
C16   C24   D    
O1    C4    A    
O2    C3    A    
O13   V3    S    
O14   V4    S    
O7    C6    A    
C8    C9    S    
C9    C17   D    
O14   C6    A    
O20   V2    S    
O28   H12   S    
C4    C13   S    
C25   O21   D    
O5    C8    A    
O10   C2    A    
O6    C7    A    
C28   O27   D    
C14   C22   D    
O4    V3    S    
O24   H10   S    
C21   C22   S    
O16   C8    A    
C27   O25   D    
C11   H4    S    
C21   C30   S    
C22   C29   S    
