data_mof_unit_51776.cif
_audit_creation_date              2012-12-10T19:18:40-0500
_audit_creation_method            fapswitch 2.2
_symmetry_space_group_name_H-M    P1
_symmetry_Int_Tables_number       1
_space_group_crystal_system       triclinic
_cell_length_a                    15.781374
_cell_length_b                    14.984435
_cell_length_c                    10.532365
_cell_angle_alpha                 90.396987
_cell_angle_beta                  89.916185
_cell_angle_gamma                 89.949582
_cell_volume                      2490.57729238

loop_
_atom_site_label
_atom_site_type_symbol
_atom_type_description
_atom_site_fract_x
_atom_site_fract_y
_atom_site_fract_z
_atom_type_partial_charge
C1    C     C_R   0.338081 0.500027 0.500355 0.895718
C2    C     C_3   0.948850 0.533168 0.377974 -0.491017
C3    C     C_3   0.047746 0.543249 0.377644 -0.036919
C4    C     C_1   0.825438 0.499371 0.505535 -0.008263
C5    C     C_1   0.174561 0.499464 0.502726 -0.049070
C6    C     C_R   0.501120 0.499669 0.257206 0.937000
C7    C     C_1   0.249590 0.499973 0.501563 -0.109702
C8    C     C_3   0.408447 0.051452 0.468822 -0.418861
C9    C     C_3   0.409405 0.947371 0.464686 -0.327440
C10   C     C_3   0.525034 0.052962 0.625434 -0.461699
C11   C     C_3   0.527602 0.948598 0.623702 -0.480571
C12   C     C_3   0.503811 0.499248 0.123192 -0.028387
C13   C     C_3   0.498773 0.090001 0.493270 0.075050
C14   C     C_3   0.499295 0.909899 0.492732 0.112526
C15   C     C_3   0.561409 0.945378 0.388823 0.319292
C16   C     C_3   0.565023 0.050449 0.395419 0.344219
C17   C     C_1   0.498656 0.809239 0.495588 0.064325
C18   C     C_1   0.498668 0.190725 0.495796 0.074598
C19   C     C_R   0.662048 0.499966 0.500364 0.977811
C20   C     C_R   0.501619 0.500448 0.743158 0.927838
C21   C     C_3   0.435119 0.544582 0.043537 -0.124972
C22   C     C_3   0.502009 0.414816 0.039947 -0.220592
C23   C     C_3   0.049727 0.553914 0.621944 -0.249032
C24   C     C_3   0.433407 0.460315 0.957644 -0.185222
C25   C     C_3   0.504404 0.501550 0.877514 -0.065108
C26   C     C_3   0.506439 0.584993 0.962086 -0.029483
C27   C     C_3   0.572418 0.456711 0.958196 -0.045093
C28   C     C_3   0.574535 0.540129 0.043553 -0.102626
C29   C     C_3   0.496638 0.106443 0.209015 0.154004
C30   C     C_3   0.517426 0.130403 0.071593 -0.329207
C31   C     C_3   0.437479 0.151701 0.996212 -0.969868
C32   C     C_3   0.588364 0.849391 0.214698 0.117304
C33   C     C_3   0.662285 0.892066 0.142971 -0.360620
C34   C     C_3   0.048859 0.399448 0.508807 -0.270103
C35   C     C_3   0.717524 0.821449 0.078545 -0.885601
C36   C     C_2   0.510157 0.679922 0.918473 0.414967
C37   C     C_2   0.649872 0.407307 0.914169 0.385608
C38   C     C_2   0.654460 0.584347 0.088392 0.320756
C39   C     C_2   0.905044 0.558242 0.740142 0.468700
C40   C     C_2   0.916924 0.355073 0.641649 0.517866
C41   C     C_2   0.081393 0.519296 0.748376 0.448473
C42   C     C_2   0.095206 0.337965 0.599585 0.365767
C43   C     C_2   0.071707 0.641860 0.372105 0.467136
C44   C     C_2   0.083300 0.499435 0.257548 0.464745
C45   C     C_3   0.950145 0.400575 0.523441 -0.201496
C46   C     C_3   0.951308 0.563178 0.613617 -0.279023
C47   C     C_1   0.750469 0.499829 0.502855 -0.070177
C48   C     C_3   0.082775 0.498456 0.503923 0.025378
C49   C     C_3   0.916861 0.498430 0.508448 0.095320
H1    H     H_    0.375807 0.427716 0.918622 0.162149
H2    H     H_    0.627540 0.065140 0.439916 0.087375
H3    H     H_    0.626363 0.920805 0.413038 0.017585
H4    H     H_    0.379079 0.078030 0.381637 0.153113
H5    H     H_    0.387250 0.923756 0.370072 0.210390
H6    H     H_    0.379080 0.580311 0.082625 0.185189
H7    H     H_    0.500341 0.345394 0.075756 0.162862
H8    H     H_    0.062179 0.368415 0.414697 0.155142
H9    H     H_    0.076140 0.622668 0.614942 0.192957
H10   H     H_    0.924329 0.361012 0.442058 0.179144
H11   H     H_    0.938666 0.632130 0.578897 0.182647
H12   H     H_    0.916997 0.597340 0.354417 0.182382
H13   H     H_    0.461933 0.163714 0.251732 0.125668
H14   H     H_    0.455977 0.046114 0.207731 0.190907
H15   H     H_    0.560092 0.189382 0.070321 0.225523
H16   H     H_    0.550956 0.073676 0.025147 0.230904
H17   H     H_    0.395618 0.092226 0.991282 0.278960
H18   H     H_    0.455150 0.171206 0.898188 0.268685
H19   H     H_    0.402438 0.207959 0.041215 0.264481
H20   H     H_    0.550291 0.809451 0.146377 0.202819
H21   H     H_    0.611738 0.801538 0.287266 0.141176
H22   H     H_    0.637051 0.937837 0.069591 0.238767
H23   H     H_    0.927718 0.485649 0.302509 0.210110
H24   H     H_    0.701893 0.931607 0.209860 0.230154
H25   H     H_    0.743836 0.774960 0.150142 0.283181
H26   H     H_    0.770921 0.854311 0.028571 0.277988
H27   H     H_    0.679856 0.783128 0.007868 0.249023
H28   H     H_    0.563834 0.702556 0.862962 0.050842
H29   H     H_    0.690564 0.375639 0.983469 0.078408
H30   H     H_    0.698971 0.610094 0.019227 0.100794
H31   H     H_    0.907943 0.499290 0.798474 0.054639
H32   H     H_    0.948000 0.363703 0.732339 0.036219
H33   H     H_    0.057200 0.457824 0.787510 0.036504
H34   H     H_    0.363620 0.921437 0.535898 0.187607
H35   H     H_    0.143935 0.362922 0.662886 0.082876
H36   H     H_    0.025351 0.693343 0.393716 0.055149
H37   H     H_    0.134177 0.450840 0.262557 0.050614
H38   H     H_    0.365488 0.073621 0.546840 0.199723
H39   H     H_    0.588256 0.079325 0.653454 0.189096
H40   H     H_    0.592990 0.925596 0.645603 0.178242
H41   H     H_    0.479567 0.076135 0.699506 0.207592
H42   H     H_    0.485537 0.922793 0.699970 0.223668
N1    N     N_1   0.498630 0.731150 0.497460 -0.084988
N2    N     N_1   0.498630 0.268850 0.497460 -0.082526
O1    O     O_R   0.377210 0.574260 0.500130 -0.587520
O2    O     O_3   0.534635 0.916058 0.266528 -0.644023
O3    O     O_2   0.453211 0.731919 0.945080 -0.556065
O4    O     O_2   0.667909 0.402768 0.801660 -0.547241
O5    O     O_2   0.670172 0.591237 0.201374 -0.578694
O6    O     O_2   0.863575 0.621811 0.778461 -0.559822
O7    O     O_2   0.855058 0.306368 0.635405 -0.529796
O8    O     O_2   0.133972 0.561382 0.809023 -0.515921
O9    O     O_2   0.079937 0.258086 0.599348 -0.537004
O10   O     O_2   0.144296 0.664730 0.348313 -0.544901
O11   O     O_2   0.056941 0.520676 0.152964 -0.536117
O12   O     O_R   0.377210 0.425740 0.500130 -0.634268
O13   O     O_R   0.500050 0.574220 0.314080 -0.592726
O14   O     O_R   0.500050 0.425780 0.314080 -0.641839
O15   O     O_R   0.622930 0.574200 0.500140 -0.608355
O16   O     O_R   0.622930 0.425800 0.500140 -0.582482
O17   O     O_R   0.500090 0.574240 0.686180 -0.641960
O18   O     O_R   0.500090 0.425760 0.686180 -0.587160
O19   O     O_3   0.573332 0.092497 0.274840 -0.634537
Zn1   Zn    Zn3+2 0.500090 0.599130 0.500180 1.021240
Zn2   Zn    Zn3+2 0.500090 0.400870 0.500180 1.011201

loop_
_geom_bond_atom_site_label_1
_geom_bond_atom_site_label_2
_ccdc_geom_bond_type
C31   H17   S    
C21   C26   S    
C29   H14   S    
C35   H25   S    
C8    C13   S    
C30   H15   S    
C23   H9    S    
C29   O19   S    
C34   C42   S    
C16   H2    S    
C38   O5    D    
C37   O4    D    
C44   O11   D    
C31   H18   S    
C46   C49   S    
C10   H39   S    
C13   C18   S    
C12   C28   S    
C36   H28   S    
C15   O2    S    
C30   C31   S    
C11   C14   S    
C2    H23   S    
C20   C25   S    
C15   C16   S    
C12   C22   S    
C3    C48   S    
C11   H40   S    
C8    C9    S    
C34   H8    S    
C6    O14   A    
C28   C38   S    
N1    Zn1   S    
C2    H12   S    
C19   O15   A    
C23   C46   S    
C14   C17   S    
C40   C45   S    
C17   N1    T    
C44   H37   S    
C42   O9    D    
O1    Zn1   S    
C19   O16   A    
C24   H1    S    
C31   H19   S    
C35   H27   S    
C5    C48   S    
C3    C44   S    
O13   Zn1   S    
C43   H36   S    
O12   Zn2   S    
C42   H35   S    
C24   C25   S    
C21   H6    S    
C1    O1    A    
C22   H7    S    
C25   C26   S    
C12   C21   S    
O15   Zn1   S    
C9    C14   S    
O14   Zn2   S    
C29   C30   S    
C2    C49   S    
C20   O18   A    
C36   O3    D    
C39   O6    D    
C45   C49   S    
C3    C43   S    
C6    O13   A    
C34   C45   S    
C15   H3    S    
O17   Zn1   S    
O16   Zn2   S    
C9    H34   S    
C39   C46   S    
C20   O17   A    
C33   H24   S    
C22   C27   S    
C22   C24   S    
C21   C24   S    
C34   C48   S    
C16   O19   S    
C5    C7    T    
C26   C36   S    
C29   H13   S    
C45   H10   S    
C23   C48   S    
C46   H11   S    
C1    C7    S    
C40   H32   S    
C35   H26   S    
C10   C13   S    
C8    H4    S    
C40   O7    D    
C32   H21   S    
C32   H20   S    
C25   C27   S    
C37   H29   S    
C26   C28   S    
C23   C41   S    
C4    C49   S    
C8    H38   S    
C39   H31   S    
C2    C3    S    
C32   C33   S    
C6    C12   S    
C27   C37   S    
C41   H33   S    
C33   C35   S    
C41   O8    D    
O18   Zn2   S    
C19   C47   S    
N2    Zn2   S    
C43   O10   D    
C30   H16   S    
C10   C11   S    
C33   H22   S    
C11   H42   S    
C32   O2    S    
C10   H41   S    
C38   H30   S    
C13   C16   S    
C27   C28   S    
C18   N2    T    
C14   C15   S    
C9    H5    S    
C1    O12   A    
C4    C47   T    
