data_mof_unit_39003.cif
_audit_creation_date              2012-12-11T16:04:50-0500
_audit_creation_method            fapswitch 2.2
_symmetry_space_group_name_H-M    P1
_symmetry_Int_Tables_number       1
_space_group_crystal_system       triclinic
_cell_length_a                    10.60832
_cell_length_b                    10.631966
_cell_length_c                    16.841259
_cell_angle_alpha                 98.576518
_cell_angle_beta                  98.144514
_cell_angle_gamma                 61.8805
_cell_volume                      1650.98561893

loop_
_atom_site_label
_atom_site_type_symbol
_atom_type_description
_atom_site_fract_x
_atom_site_fract_y
_atom_site_fract_z
_atom_type_partial_charge
C1    C     C_R   0.354623 0.777190 0.399642 0.565233
C2    C     C_3   0.296715 0.766412 0.249641 -0.164262
C3    C     C_3   0.334993 0.843181 0.326703 0.050887
C4    C     C_R   0.405779 0.373227 0.356983 0.515387
C5    C     C_3   0.438992 0.865963 0.282844 0.094947
C6    C     C_3   0.314854 0.011722 0.259767 -0.167530
C7    C     C_3   0.212324 0.985994 0.305245 -0.036753
C8    C     C_3   0.172881 0.910228 0.228053 0.026759
C9    C     C_3   0.276250 0.933137 0.182915 0.017550
C10   C     C_3   0.432024 0.221906 0.764076 -0.116790
C11   C     C_3   0.376864 0.370121 0.735731 0.029860
C12   C     C_3   0.637906 0.446059 0.234133 -0.167127
C13   C     C_3   0.321359 0.319512 0.654795 0.057079
C14   C     C_3   0.374753 0.170626 0.683162 -0.131770
C15   C     C_3   0.227341 0.223337 0.716523 -0.152579
C16   C     C_R   0.706567 0.415648 0.390513 0.544305
C17   C     C_3   0.173923 0.373102 0.686380 -0.136041
C18   C     C_3   0.230609 0.424287 0.768266 -0.118058
C19   C     C_3   0.285457 0.275278 0.796447 0.029246
C20   C     C_1   0.821735 0.339601 0.708680 -0.008222
C21   C     C_1   0.847363 0.313042 0.777400 -0.033454
C22   C     C_1   0.335568 0.817625 0.708665 -0.004767
C23   C     C_3   0.743640 0.388818 0.307481 0.037787
C24   C     C_1   0.311997 0.842809 0.777871 -0.032052
C25   C     C_R   0.882655 0.314508 0.086597 0.542907
C26   C     C_R   0.321724 0.302544 0.119224 0.540644
C27   C     C_R   0.252831 0.964308 0.098929 0.573251
C28   C     C_R   0.354610 0.775927 0.626126 0.586836
C29   C     C_R   0.885888 0.298853 0.860619 0.529048
C30   C     C_R   0.276519 0.250224 0.877631 0.559164
C31   C     C_R   0.280405 0.884577 0.858945 0.537756
C32   C     C_R   0.363702 0.343011 0.582423 0.585090
C33   C     C_R   0.776921 0.378125 0.628772 0.595580
C34   C     C_3   0.817705 0.240069 0.262264 -0.068747
C35   C     C_1   0.374055 0.360454 0.272406 -0.061462
C36   C     C_1   0.348447 0.342956 0.201353 -0.059922
C37   C     C_3   0.713748 0.296500 0.187198 -0.112522
C38   C     C_2   0.119942 0.090953 0.368398 0.199438
C39   C     C_2   0.027893 0.917613 0.204514 0.236511
C40   C     C_2   0.460652 0.452829 0.753754 0.201872
C41   C     C_3   0.921591 0.285618 0.234650 -0.102555
C42   C     C_3   0.846933 0.434296 0.280413 -0.092721
C43   C     C_3   0.742247 0.491456 0.206150 -0.106639
C44   C     C_3   0.817004 0.342555 0.161080 0.056684
C45   C     C_3   0.400451 0.789416 0.205169 -0.117723
Cr1   Cr    Cr6+3 0.608340 0.611040 0.520430 1.061260
Cr2   Cr    Cr6+3 0.287650 0.601120 0.489350 1.067221
Cr3   Cr    Cr6+3 0.604040 0.287870 0.490280 1.090452
Cr4   Cr    Cr6+3 0.054020 0.052700 0.970850 1.064738
Cr5   Cr    Cr6+3 0.059230 0.375120 0.993390 1.035333
Cr6   Cr    Cr6+3 0.374950 0.061200 0.992340 1.035016
H1    H     H_    0.521110 0.507630 0.236666 0.095839
H2    H     H_    0.038508 0.224081 0.229920 0.096408
H3    H     H_    0.903014 0.489588 0.319291 0.159070
H4    H     H_    0.715919 0.592265 0.180827 0.152878
H5    H     H_    0.286081 0.666667 0.246035 0.111228
H6    H     H_    0.472385 0.710616 0.160408 0.132479
H7    H     H_    0.116674 0.195360 0.382158 0.114371
H8    H     H_    0.982484 0.881996 0.244795 0.134092
H9    H     H_    0.492178 0.477793 0.815769 0.099669
H10   H     H_    0.320594 0.113726 0.262615 0.133017
H11   H     H_    0.539342 0.160457 0.795471 0.140688
H12   H     H_    0.433113 0.066962 0.646964 0.134633
H13   H     H_    0.165373 0.162105 0.710903 0.106388
H14   H     H_    0.069022 0.434619 0.652804 0.138723
H15   H     H_    0.172327 0.528363 0.804145 0.139925
H16   H     H_    0.660281 0.240136 0.146914 0.160285
H17   H     H_    0.841818 0.141029 0.288591 0.177656
I1    I     I_    0.646584 0.842662 0.328334 -0.360383
O1    O     O_R   0.751220 0.499230 0.435170 -0.500914
O2    O     O_R   0.412990 0.180750 0.091610 -0.507044
O3    O     O_R   0.366620 0.943130 0.065760 -0.497134
O4    O     O_R   0.477220 0.727600 0.436870 -0.512623
O5    O     O_R   0.160510 0.906330 0.879210 -0.505086
O6    O     O_R   0.930190 0.179050 0.889450 -0.503153
O7    O     O_R   0.909140 0.398170 0.896710 -0.511967
O8    O     O_R   0.186190 0.363460 0.918830 -0.496605
O9    O     O_R   0.401670 0.173200 0.913310 -0.516019
O10   O     O_R   0.356120 0.936130 0.900470 -0.508485
O11   O     O_3   0.162740 0.163010 0.985530 -0.315614
O12   O     O_R   0.297880 0.469080 0.560050 -0.474393
O13   O     O_R   0.258650 0.745120 0.411470 -0.492370
O14   O     O_R   0.297070 0.467240 0.395960 -0.508022
O15   O     O_R   0.488830 0.252610 0.387790 -0.490695
O16   O     O_R   0.724400 0.302390 0.420980 -0.483444
O17   O     O_R   0.752100 0.501210 0.612190 -0.500210
O18   O     O_R   0.478040 0.729440 0.600970 -0.480416
O19   O     O_R   0.259530 0.747110 0.588490 -0.486589
O20   O     O_2   0.049814 0.058976 0.405331 -0.488834
O21   O     O_2   0.960238 0.962322 0.141387 -0.483744
O22   O     O_2   0.493617 0.492628 0.699566 -0.498065
O23   O     O_R   0.489720 0.254590 0.564810 -0.494873
O24   O     O_R   0.725220 0.304230 0.585080 -0.461461
O25   O     O_3   0.500010 0.500010 0.500020 -0.295943
O26   O     O_R   0.171830 0.913880 0.057510 -0.452803
O27   O     O_R   0.940690 0.186050 0.054730 -0.473469
O28   O     O_R   0.920470 0.405720 0.075010 -0.517613
O29   O     O_R   0.196690 0.370460 0.084120 -0.485528

loop_
_geom_bond_atom_site_label_1
_geom_bond_atom_site_label_2
_ccdc_geom_bond_type
C11   C18   S    
C9    C45   S    
C40   H9    S    
C34   C37   S    
C41   C42   S    
C13   C32   S    
C27   O26   A    
C35   C36   T    
C43   C44   S    
C6    C9    S    
C7    C8    S    
C29   O7    A    
C15   C19   S    
C32   O12   A    
C38   O20   D    
C45   H6    S    
C23   C42   S    
Cr3   O25   S    
C6    H10   S    
C12   C43   S    
C3    C7    S    
C4    O15   A    
C5    C6    S    
C18   C19   S    
Cr2   O13   S    
C12   C37   S    
Cr6   O11   S    
C5    I1    S    
C38   H7    S    
C30   O8    A    
C7    C38   S    
C8    C9    S    
Cr1   O25   S    
C28   O19   A    
C15   H13   S    
Cr4   O6    S    
C25   O28   A    
C8    C39   S    
Cr2   O14   S    
C39   O21   D    
C4    C35   S    
Cr4   O27   S    
C22   C28   S    
C13   C14   S    
C26   O2    A    
C10   H11   S    
C34   C41   S    
Cr6   O2    S    
C25   C44   S    
C12   H1    S    
C2    C45   S    
Cr5   O29   S    
Cr1   O1    S    
Cr3   O24   S    
C16   O1    A    
C10   C14   S    
C34   H17   S    
C31   O5    A    
C1    O13   A    
C21   C29   S    
Cr3   O15   S    
C33   O24   A    
C1    C3    S    
C33   O17   A    
Cr5   O7    S    
C12   C23   S    
C10   C19   S    
C23   C34   S    
C39   H8    S    
C28   O18   A    
C17   C18   S    
Cr4   O26   S    
C41   H2    S    
C26   O29   A    
C20   C33   S    
C43   H4    S    
C16   C23   S    
Cr3   O23   S    
C16   O16   A    
C41   C44   S    
C22   C24   T    
C42   C43   S    
Cr5   O8    S    
C9    C27   S    
Cr1   O18   S    
C26   C36   S    
C15   C17   S    
Cr5   O28   S    
C14   C15   S    
Cr3   O16   S    
C2    C8    S    
C3    C5    S    
Cr5   O11   S    
C31   O10   A    
C6    C7    S    
C29   O6    A    
C18   H15   S    
C17   H14   S    
Cr4   O11   S    
C13   C17   S    
C1    O4    A    
Cr2   O19   S    
C37   C44   S    
C2    C3    S    
C24   C31   S    
C2    H5    S    
C42   H3    S    
C11   C13   S    
C32   O23   A    
C4    O14   A    
C5    C45   S    
C14   H12   S    
C37   H16   S    
Cr2   O25   S    
Cr2   O12   S    
C40   O22   D    
C11   C40   S    
Cr6   O10   S    
Cr6   O9    S    
C10   C11   S    
C30   O9    A    
C20   C21   T    
C25   O27   A    
Cr6   O3    S    
Cr4   O5    S    
C19   C30   S    
Cr1   O4    S    
C27   O3    A    
Cr1   O17   S    
