data_mof_unit_22380.cif
_audit_creation_date              2012-12-10T17:03:56-0500
_audit_creation_method            fapswitch 2.2
_symmetry_space_group_name_H-M    P1
_symmetry_Int_Tables_number       1
_space_group_crystal_system       triclinic
_cell_length_a                    9.880791
_cell_length_b                    11.067187
_cell_length_c                    15.909224
_cell_angle_alpha                 95.759075
_cell_angle_beta                  79.085131
_cell_angle_gamma                 111.855787
_cell_volume                      1584.60927949

loop_
_atom_site_label
_atom_site_type_symbol
_atom_type_description
_atom_site_fract_x
_atom_site_fract_y
_atom_site_fract_z
_atom_type_partial_charge
C1    C     C_R   0.557167 0.745688 0.506216 0.790810
C2    C     C_R   0.442833 0.254312 0.493783 0.790810
C3    C     C_R   0.406906 0.328109 0.031411 -0.118760
C4    C     C_R   0.593090 0.671891 0.968590 -0.118760
C5    C     C_R   0.302775 0.280764 0.977352 -0.184167
C6    C     C_R   0.697223 0.719236 0.022649 -0.184167
C7    C     C_2   0.591667 0.886018 0.509538 0.218868
C8    C     C_2   0.408333 0.113982 0.490462 0.218868
C9    C     C_2   0.487343 0.930655 0.498947 -0.177967
C10   C     C_2   0.512657 0.069345 0.501053 -0.177967
C11   C     C_2   0.923897 0.490715 0.491719 -0.003870
C12   C     C_2   0.076103 0.509285 0.508280 -0.003870
C13   C     C_R   0.412473 0.489489 0.662500 0.856329
C14   C     C_R   0.587527 0.510511 0.337500 0.856328
C15   C     C_R   0.358552 0.468097 0.754321 -0.104832
C16   C     C_R   0.641447 0.531902 0.245679 -0.104832
C17   C     C_R   0.205199 0.303545 0.855115 -0.169066
C18   C     C_R   0.794800 0.696453 0.144885 -0.169066
C19   C     C_R   0.229577 0.360887 0.777455 -0.229521
C20   C     C_R   0.770423 0.639111 0.222544 -0.229521
C21   C     C_R   0.450503 0.534048 0.815706 0.298854
C22   C     C_R   0.549496 0.465951 0.184294 0.298854
C23   C     C_R   0.418897 0.481598 0.898780 0.010936
C24   C     C_R   0.581101 0.518401 0.101220 0.010936
C25   C     C_R   0.305442 0.357073 0.912215 0.096649
C26   C     C_R   0.694556 0.642926 0.087785 0.096649
C27   C     C_R   0.503980 0.538987 0.965794 0.071489
C28   C     C_R   0.496017 0.461012 0.034206 0.071488
Cu1   Cu    Cu3+1 0.362980 0.479380 0.485080 1.041404
Cu2   Cu    Cu3+1 0.637020 0.520620 0.514920 1.041404
H1    H     H_    0.227559 0.180235 0.982096 0.155911
H2    H     H_    0.772438 0.819765 0.017905 0.155911
H3    H     H_    0.842107 0.689004 0.268868 0.190222
H4    H     H_    0.157893 0.310994 0.731131 0.190222
H5    H     H_    0.114438 0.211406 0.867482 0.163482
H6    H     H_    0.885562 0.788592 0.132517 0.163482
H7    H     H_    0.418133 0.257968 0.069179 0.203953
H8    H     H_    0.581863 0.742031 0.930822 0.203953
H9    H     H_    0.620312 0.137825 0.511660 0.208284
H10   H     H_    0.379688 0.862175 0.488340 0.208284
H11   H     H_    0.116138 0.385602 0.413531 0.237071
H12   H     H_    0.883862 0.614398 0.586469 0.237071
N1    N     N_2   0.842890 0.551600 0.537350 -0.289112
N2    N     N_2   0.157110 0.448400 0.462650 -0.289112
O1    O     O_R   0.426810 0.668300 0.492040 -0.617264
O2    O     O_R   0.573190 0.331700 0.507960 -0.617265
O3    O     O_R   0.658240 0.703130 0.517240 -0.505487
O4    O     O_R   0.341760 0.296870 0.482760 -0.505488
O5    O     O_R   0.319390 0.472820 0.610170 -0.592755
O6    O     O_R   0.680610 0.527180 0.389830 -0.592755
O7    O     O_R   0.550820 0.507640 0.635370 -0.521112
O8    O     O_R   0.449180 0.492360 0.364630 -0.521112
Cl1   Cl    Cl    0.382661 0.335078 0.220354 -0.609488
Cl2   Cl    Cl    0.617337 0.664922 0.779647 -0.609488
Cl3   Cl    Cl    0.229492 0.009509 0.472953 -0.522121
Cl4   Cl    Cl    0.770508 0.990491 0.527047 -0.522121
C29   C     C_1   0.132745 0.597802 0.577305 0.366501
N3    N     N_1   0.176745 0.669074 0.632788 -0.265239
C30   C     C_1   0.867255 0.402198 0.422695 0.366501
N4    N     N_1   0.823255 0.330925 0.367212 -0.265239

loop_
_geom_bond_atom_site_label_1
_geom_bond_atom_site_label_2
_ccdc_geom_bond_type
C5    C25   A    
C6    H2    S    
Cu2   O7    S    
C19   H4    S    
C14   O8    A    
C11   N1    D    
Cu1   Cu2   S    
C14   C16   S    
C23   C27   A    
C9    C10   S    
C18   C26   A    
C16   C20   A    
C17   C25   A    
C13   C15   S    
Cu2   O6    S    
C30   N4    T    
C12   N2    D    
Cu1   O5    S    
C2    O2    A    
C15   C19   A    
C1    O1    A    
C29   N3    T    
C14   O6    A    
C7    Cl4   S    
C11   C30   S    
C20   H3    S    
C8    Cl3   S    
C4    C6    A    
C3    C28   A    
C17   C19   A    
C24   C26   A    
C22   Cl1   S    
C18   C20   A    
C23   C25   A    
Cu1   N2    S    
C13   O5    A    
C21   Cl2   S    
H11   N2    S    
C22   C24   A    
Cu2   N1    S    
C5    H1    S    
H12   N1    S    
C12   C29   S    
Cu1   O4    S    
Cu2   O3    S    
C15   C21   A    
C4    C27   A    
C3    H7    S    
C8    C10   D    
Cu1   O1    S    
C27   C28   A    
C7    C9    D    
C6    C26   A    
C1    O3    A    
C1    C7    S    
C16   C22   A    
C17   H5    S    
C2    O4    A    
C13   O7    A    
C18   H6    S    
C21   C23   A    
Cu2   O2    S    
C9    H10   S    
C2    C8    S    
C24   C28   A    
C11   C12   S    
C4    H8    S    
C10   H9    S    
C3    C5    A    
Cu1   O8    S    
