data_mof_unit_22389.cif
_audit_creation_date              2012-12-10T17:34:57-0500
_audit_creation_method            fapswitch 2.2
_symmetry_space_group_name_H-M    P1
_symmetry_Int_Tables_number       1
_space_group_crystal_system       triclinic
_cell_length_a                    12.186191
_cell_length_b                    12.834777
_cell_length_c                    15.700356
_cell_angle_alpha                 91.924391
_cell_angle_beta                  88.282767
_cell_angle_gamma                 92.694385
_cell_volume                      2450.55674304

loop_
_atom_site_label
_atom_site_type_symbol
_atom_type_description
_atom_site_fract_x
_atom_site_fract_y
_atom_site_fract_z
_atom_type_partial_charge
C1    C     C_R   0.521403 0.699798 0.498371 0.842156
C2    C     C_R   0.534652 0.811070 0.498896 -0.030362
C3    C     C_R   0.638514 0.969053 0.536060 -0.228403
C4    C     C_R   0.501364 0.499717 0.661248 0.873565
C5    C     C_R   0.631244 0.861348 0.528624 -0.207620
C6    C     C_R   0.447177 0.867379 0.473400 -0.298008
C7    C     C_R   0.452615 0.974410 0.482329 0.186246
C8    C     C_R   0.549016 0.025587 0.514035 0.190141
C9    C     C_R   0.554694 0.132629 0.522633 -0.302258
C10   C     C_R   0.369397 0.138585 0.469551 -0.206034
C11   C     C_R   0.362789 0.030905 0.460895 -0.233544
C12   C     C_3   0.476703 0.624253 0.053118 0.631659
C13   C     C_R   0.954494 0.422917 0.406798 -0.386784
C14   C     C_R   0.838907 0.430563 0.414976 0.658612
C15   C     C_R   0.859763 0.516275 0.550737 0.069457
C16   C     C_R   0.478690 0.300181 0.500954 0.870298
C17   C     C_R   0.977347 0.520806 0.539701 -0.069658
C18   C     C_R   0.024217 0.468767 0.468411 -0.059826
C19   C     C_R   0.140286 0.462321 0.461388 -0.092101
C20   C     C_R   0.162767 0.588411 0.574003 0.129147
C21   C     C_R   0.049848 0.576831 0.596692 0.406481
C22   C     C_R   0.498321 0.499255 0.338845 0.903899
C23   C     C_3   0.487565 0.507970 0.083817 -0.034716
C24   C     C_3   0.475667 0.615724 0.952077 -0.238108
C25   C     C_3   0.605769 0.469412 0.950562 0.335120
C26   C     C_3   0.596416 0.461724 0.048279 -0.652385
C27   C     C_1   0.494801 0.500611 0.250283 -0.217881
C28   C     C_3   0.491817 0.499698 0.917565 -0.030416
C29   C     C_3   0.578746 0.696928 0.080884 -0.476127
C30   C     C_3   0.567091 0.813505 0.064277 -0.319274
C31   C     C_3   0.661915 0.879876 0.102173 -0.895281
C32   C     C_3   0.389803 0.682740 0.908604 -0.298513
C33   C     C_3   0.266280 0.652820 0.920415 -0.166620
C34   C     C_3   0.390521 0.434005 0.051360 0.293629
C35   C     C_3   0.196997 0.748926 0.929296 -0.981459
C36   C     C_3   0.359579 0.688402 0.170070 -0.239902
C37   C     C_3   0.216262 0.696962 0.591074 -0.309584
C38   C     C_3   0.294549 0.709449 0.666667 -0.276588
C39   C     C_3   0.303769 0.822835 0.699650 -0.962856
C40   C     C_3   0.053121 0.612126 0.742098 -0.374283
C41   C     C_3   0.771916 0.278302 0.353682 -0.307763
C42   C     C_3   0.813599 0.529002 0.640956 -0.256938
C43   C     C_3   0.771358 0.639225 0.661812 -0.207496
C44   C     C_3   0.749566 0.658020 0.757290 -0.948170
C45   C     C_3   0.398806 0.418565 0.951054 0.902391
C46   C     C_3   0.754312 0.370707 0.906529 -0.335402
C47   C     C_3   0.211285 0.362237 0.930806 -0.293726
C48   C     C_3   0.420747 0.276891 0.847467 -0.215721
C49   C     C_3   0.235023 0.414631 0.142725 -0.373899
C50   C     C_1   0.491339 0.503529 0.175176 -0.017682
C51   C     C_1   0.498752 0.499165 0.825601 0.026561
C52   C     C_1   0.502753 0.499282 0.750114 -0.221751
C53   C     C_R   0.466068 0.188854 0.499118 -0.044535
H1    H     H_    0.401549 0.355541 0.078411 0.088058
H2    H     H_    0.989605 0.383557 0.351007 0.156094
H3    H     H_    0.667466 0.533841 0.935222 0.073648
H4    H     H_    0.669694 0.501666 0.077581 0.185779
H5    H     H_    0.598623 0.378428 0.065808 0.248390
H6    H     H_    0.662045 0.872244 0.172446 0.263007
H7    H     H_    0.741663 0.855191 0.074008 0.263069
H8    H     H_    0.652483 0.963150 0.088116 0.253127
H9    H     H_    0.567649 0.825998 0.994680 0.205625
H10   H     H_    0.488941 0.841536 0.092630 0.246995
H11   H     H_    0.595975 0.687638 0.149125 0.203517
H12   H     H_    0.628639 0.172227 0.546761 0.148764
H13   H     H_    0.654523 0.672518 0.046202 0.166882
H14   H     H_    0.218105 0.794911 0.988241 0.289553
H15   H     H_    0.211350 0.798995 0.873508 0.264043
H16   H     H_    0.108496 0.724184 0.933477 0.248690
H17   H     H_    0.238319 0.605508 0.864073 0.209110
H18   H     H_    0.248344 0.606568 0.977359 0.324513
H19   H     H_    0.404657 0.764706 0.932068 0.202687
H20   H     H_    0.409302 0.684830 0.839112 0.158548
H21   H     H_    0.435006 0.711099 0.204770 0.134459
H22   H     H_    0.316087 0.620677 0.200019 0.206820
H23   H     H_    0.300660 0.182471 0.450985 0.155430
H24   H     H_    0.304662 0.754641 0.178806 0.158093
H25   H     H_    0.333888 0.874460 0.647723 0.280975
H26   H     H_    0.222592 0.848478 0.724026 0.266990
H27   H     H_    0.362794 0.830794 0.752203 0.249397
H28   H     H_    0.267519 0.658650 0.719327 0.207295
H29   H     H_    0.378452 0.688170 0.648233 0.247638
H30   H     H_    0.254531 0.726584 0.531732 0.186280
H31   H     H_    0.150330 0.753311 0.602372 0.208761
H32   H     H_    0.092816 0.683178 0.771652 0.212003
H33   H     H_    0.112116 0.548130 0.737942 0.152681
H34   H     H_    0.712863 0.007849 0.559966 0.136705
H35   H     H_    0.985869 0.586515 0.786670 0.171837
H36   H     H_    0.756605 0.249073 0.419209 0.158537
H37   H     H_    0.850089 0.248948 0.326120 0.142418
H38   H     H_    0.704322 0.245459 0.313703 0.193163
H39   H     H_    0.708178 0.588392 0.785849 0.261897
H40   H     H_    0.827544 0.676355 0.790239 0.273786
H41   H     H_    0.696253 0.725362 0.767938 0.242065
H42   H     H_    0.830591 0.700885 0.638591 0.235961
H43   H     H_    0.695052 0.651620 0.628918 0.227971
H44   H     H_    0.757233 0.462632 0.656217 0.183773
H45   H     H_    0.288435 0.992064 0.437039 0.135729
H46   H     H_    0.875161 0.509973 0.687241 0.187538
H47   H     H_    0.792102 0.386496 0.969577 0.164333
H48   H     H_    0.788470 0.427112 0.859265 0.147697
H49   H     H_    0.776577 0.291516 0.883776 0.188609
H50   H     H_    0.141890 0.401720 0.963411 0.192882
H51   H     H_    0.234889 0.297492 0.970808 0.177977
H52   H     H_    0.180806 0.327771 0.869729 0.155910
H53   H     H_    0.370348 0.324102 0.807092 0.171937
H54   H     H_    0.382584 0.196712 0.847067 0.153096
H55   H     H_    0.503713 0.272008 0.817062 0.207204
H56   H     H_    0.699623 0.817617 0.547950 0.147386
H57   H     H_    0.285193 0.414290 0.200550 0.174419
H58   H     H_    0.215629 0.333297 0.119579 0.150049
H59   H     H_    0.156291 0.450261 0.161273 0.196080
H60   H     H_    0.374285 0.827936 0.447601 0.144214
H61   H     H_    0.176903 0.414856 0.410822 0.139649
H62   H     H_    0.552037 0.657995 0.928550 0.104899
N1    N     N_R   0.207800 0.519340 0.515510 -0.133393
N2    N     N_R   0.792190 0.480660 0.484490 -0.158449
O1    O     O_R   0.421690 0.658830 0.504140 -0.636479
O2    O     O_3   0.009154 0.638708 0.663452 -0.627749
O3    O     O_3   0.772180 0.388157 0.351982 -0.581330
O4    O     O_3   0.638673 0.373354 0.912601 -0.545132
O5    O     O_3   0.297024 0.437745 0.912981 -0.656123
O6    O     O_3   0.430031 0.313170 0.933527 -0.639826
O7    O     O_3   0.287905 0.474467 0.078187 -0.574331
O8    O     O_R   0.609320 0.646410 0.494190 -0.637389
O9    O     O_R   0.406150 0.506210 0.627840 -0.619013
O10   O     O_R   0.593770 0.493790 0.617880 -0.633911
O11   O     O_R   0.390680 0.353590 0.505810 -0.621434
O12   O     O_R   0.578310 0.341170 0.495860 -0.614373
O13   O     O_R   0.406230 0.506210 0.382120 -0.632866
O14   O     O_R   0.593850 0.493790 0.372160 -0.539733
O15   O     O_3   0.375390 0.668492 0.081372 -0.571915
Zn1   Zn    Zn3+2 0.374720 0.508290 0.506640 0.921302
Zn2   Zn    Zn3+2 0.625280 0.491710 0.493360 0.959810

loop_
_geom_bond_atom_site_label_1
_geom_bond_atom_site_label_2
_ccdc_geom_bond_type
O8    Zn2   S    
C40   H32   S    
C41   H36   S    
C12   C29   S    
C31   H8    S    
O10   Zn2   S    
O14   Zn2   S    
C48   O6    S    
C7    C8    A    
C32   H19   S    
C48   H55   S    
C45   O6    S    
C25   C28   S    
C7    C11   A    
C46   H49   S    
C12   C23   S    
C37   C38   S    
C13   C18   A    
C4    C52   S    
C11   H45   S    
C19   N1    A    
C1    O8    A    
C18   C19   A    
C36   H24   S    
C36   O15   S    
C30   C31   S    
C22   O14   A    
C28   C51   S    
C48   H54   S    
C31   H6    S    
C1    C2    S    
C23   C26   S    
C40   H33   S    
C10   C53   A    
C16   C53   S    
C44   H40   S    
C10   H23   S    
C48   H53   S    
O9    Zn1   S    
C8    C9    A    
C47   H52   S    
C43   H42   S    
C25   H3    S    
C37   H31   S    
C44   H39   S    
C27   C50   T    
C49   H58   S    
C14   N2    A    
C41   H37   S    
C29   H11   S    
C13   C14   A    
C38   H29   S    
C2    C6    A    
N2    Zn2   S    
C17   C18   A    
C46   H48   S    
C28   C45   S    
C47   H50   S    
C3    H34   S    
C51   C52   T    
C39   H25   S    
C3    C8    A    
C42   H44   S    
C32   H20   S    
C20   N1    A    
C23   C50   S    
N1    Zn1   S    
C19   H61   S    
C3    C5    A    
C25   C26   S    
C49   O7    S    
C17   C21   A    
C15   N2    A    
C39   H26   S    
C31   H7    S    
C43   C44   S    
C24   C32   S    
C6    H60   S    
C29   C30   S    
C36   H22   S    
C26   H5    S    
C35   H14   S    
C23   C34   S    
C29   H13   S    
C43   H43   S    
C46   O4    S    
C34   C45   S    
C16   O12   A    
C16   O11   A    
O1    Zn1   S    
C36   H21   S    
C33   H17   S    
C49   H59   S    
C41   H38   S    
C34   H1    S    
C14   O3    S    
C22   C27   S    
C30   H9    S    
C38   H28   S    
O13   Zn1   S    
C9    C53   A    
C42   C43   S    
C15   C17   A    
C46   H47   S    
C34   O7    S    
C47   H51   S    
C12   O15   S    
C4    O10   A    
C24   C28   S    
C15   C42   S    
C47   O5    S    
C6    C7    A    
C45   O5    S    
C12   C24   S    
C4    O9    A    
C32   C33   S    
C40   H35   S    
C21   O2    S    
O11   Zn1   S    
C39   H27   S    
C20   C37   S    
C38   C39   S    
C5    H56   S    
C35   H15   S    
C30   H10   S    
C33   C35   S    
C1    O1    A    
C41   O3    S    
C26   H4    S    
C9    H12   S    
C44   H41   S    
C10   C11   A    
C33   H18   S    
O12   Zn2   S    
C2    C5    A    
C40   O2    S    
C20   C21   A    
C35   H16   S    
C24   H62   S    
C37   H30   S    
C42   H46   S    
C25   O4    S    
C22   O13   A    
C49   H57   S    
C13   H2    S    
