data_mof_unit_29587.cif
_audit_creation_date              2012-12-10T17:37:21-0500
_audit_creation_method            fapswitch 2.2
_symmetry_space_group_name_H-M    P1
_symmetry_Int_Tables_number       1
_space_group_crystal_system       triclinic
_cell_length_a                    12.396607
_cell_length_b                    13.189134
_cell_length_c                    15.864499
_cell_angle_alpha                 76.971518
_cell_angle_beta                  102.326184
_cell_angle_gamma                 117.280971
_cell_volume                      2227.74824926

loop_
_atom_site_label
_atom_site_type_symbol
_atom_type_description
_atom_site_fract_x
_atom_site_fract_y
_atom_site_fract_z
_atom_type_partial_charge
C1    C     C_R   0.854696 0.285974 0.509941 0.802349
C2    C     C_3   0.005835 0.506628 0.916610 0.064561
C3    C     C_3   0.072291 0.619469 0.016586 -0.277359
C4    C     C_3   0.006962 0.512294 0.082192 0.137481
C5    C     C_3   0.956325 0.575855 0.949624 0.015047
C6    C     C_3   0.890290 0.470070 0.016012 -0.177682
C7    C     C_1   0.004402 0.503409 0.825218 -0.028864
C8    C     C_1   0.006573 0.512806 0.173720 -0.018618
C9    C     C_R   0.281023 0.018678 0.382646 -0.173716
C10   C     C_R   0.228077 0.836646 0.476808 -0.056892
C11   C     C_R   0.811571 0.090898 0.587966 -0.230020
C12   C     C_R   0.000573 0.499827 0.660037 0.804522
C13   C     C_R   0.736765 0.973523 0.606757 0.207132
C14   C     C_R   0.616927 0.926321 0.562069 0.173103
C15   C     C_R   0.569509 0.002324 0.505261 0.020159
C16   C     C_R   0.655026 0.114522 0.474297 -0.032864
C17   C     C_R   0.442535 0.972830 0.476671 0.078885
C18   C     C_R   0.406512 0.047787 0.409505 0.087414
C19   C     C_R   0.495930 0.146938 0.367698 -0.104965
C20   C     C_R   0.619710 0.175298 0.396546 -0.069643
C21   C     C_R   0.349378 0.873575 0.515140 -0.235487
C22   C     C_R   0.192833 0.912765 0.414743 -0.175496
C23   C     C_R   0.145302 0.713764 0.490798 0.796444
C24   C     C_R   0.773767 0.161322 0.520983 -0.135986
C25   C     C_R   0.392792 0.419147 0.669150 -0.281245
C26   C     C_R   0.749931 0.630537 0.372644 0.104101
C27   C     C_R   0.644688 0.647732 0.335737 0.080671
C28   C     C_R   0.549032 0.611370 0.386060 0.187840
C29   C     C_R   0.550489 0.539855 0.468115 -0.100937
C30   C     C_R   0.656065 0.515699 0.499392 0.164263
C31   C     C_R   0.453462 0.492011 0.522695 -0.013388
C32   C     C_R   0.482482 0.460246 0.613184 0.069422
C33   C     C_R   0.597482 0.460449 0.644198 -0.095654
C34   C     C_R   0.002619 0.504794 0.339764 0.856863
C35   C     C_R   0.658663 0.451010 0.584019 0.169011
C36   C     C_R   0.329504 0.472995 0.492454 0.033226
C37   C     C_R   0.275691 0.408101 0.635919 0.084813
C38   C     C_3   0.056756 0.442753 0.049717 0.171946
C39   C     C_3   0.940759 0.399858 0.982606 -0.167420
C40   C     C_1   0.002862 0.501269 0.749831 -0.162656
C41   C     C_1   0.005287 0.510467 0.249472 -0.126495
C42   C     C_3   0.120789 0.548338 0.983328 -0.001074
Cu1   Cu    Cu3+1 0.098270 0.475420 0.519690 0.939723
Cu2   Cu    Cu3+1 0.901730 0.524580 0.480310 0.960051
H1    H     H_    0.887639 0.310036 0.968163 0.153863
H2    H     H_    0.368663 0.821205 0.573544 0.164529
H3    H     H_    0.901421 0.127561 0.625074 0.160253
H4    H     H_    0.209181 0.378608 0.680584 0.135632
H5    H     H_    0.411555 0.393517 0.738436 0.154854
H6    H     H_    0.298054 0.485547 0.423982 0.145636
H7    H     H_    0.795326 0.438889 0.030158 0.164267
H8    H     H_    0.125730 0.709291 0.031024 0.155574
H9    H     H_    0.098117 0.888617 0.387917 0.171752
H10   H     H_    0.250217 0.074360 0.333101 0.152116
N1    N     N_R   0.246280 0.438200 0.549540 -0.187538
N2    N     N_R   0.754330 0.561180 0.450980 -0.230850
O1    O     O_R   0.972510 0.318130 0.524770 -0.574643
O2    O     O_R   0.806530 0.359650 0.491510 -0.578725
O3    O     O_R   0.082970 0.479240 0.637550 -0.593335
O4    O     O_R   0.916990 0.520750 0.604290 -0.568126
O5    O     O_R   0.193470 0.640350 0.508490 -0.578400
O6    O     O_R   0.027490 0.681870 0.475230 -0.584130
O7    O     O_R   0.083010 0.479250 0.395710 -0.591201
O8    O     O_R   0.917030 0.520760 0.362450 -0.563986
C43   C     C_3   0.553079 0.796491 0.565896 -0.865901
H11   H     H_    0.521727 0.754283 0.630720 0.240629
H12   H     H_    0.475701 0.769271 0.514047 0.237792
H13   H     H_    0.615969 0.764142 0.553835 0.243186
C44   C     C_3   0.786311 0.900017 0.675260 -0.807161
H14   H     H_    0.877465 0.952809 0.708810 0.225904
H15   H     H_    0.723154 0.852699 0.725527 0.248061
H16   H     H_    0.796772 0.837434 0.645041 0.238273
C45   C     C_1   0.706723 0.247170 0.335658 0.282082
N3    N     N_1   0.773700 0.301822 0.284860 -0.305930
C46   C     C_1   0.635095 0.434516 0.736431 0.259839
N4    N     N_1   0.665243 0.413716 0.809964 -0.292929
C47   C     C_1   0.855879 0.693085 0.326512 0.332247
N5    N     N_1   0.938892 0.743834 0.287647 -0.327661
C48   C     C_3   0.114244 0.366912 0.107777 -0.843069
H17   H     H_    0.142147 0.327346 0.066711 0.240409
H18   H     H_    0.195917 0.419834 0.149877 0.239639
H19   H     H_    0.046942 0.297753 0.149470 0.239110
C49   C     C_3   0.461020 0.666993 0.355862 -0.864345
H20   H     H_    0.387981 0.621120 0.305412 0.228822
H21   H     H_    0.419752 0.670915 0.409045 0.226954
H22   H     H_    0.510233 0.759091 0.328286 0.246859
C50   C     C_3   0.638369 0.709301 0.242488 -0.839221
H23   H     H_    0.668414 0.673638 0.199672 0.239589
H24   H     H_    0.544478 0.697237 0.213279 0.250574
H25   H     H_    0.698921 0.802955 0.240561 0.231683
C51   C     C_3   0.646842 0.329720 0.593945 -0.737139
H26   H     H_    0.575528 0.266903 0.635779 0.195779
H27   H     H_    0.613543 0.296987 0.530359 0.237891
H28   H     H_    0.733172 0.325178 0.626676 0.232579
C52   C     C_1   0.900593 0.648811 0.893772 0.277741
N6    N     N_1   0.856590 0.706269 0.849641 -0.290270
C53   C     C_1   0.246679 0.590602 0.965017 0.242884
N7    N     N_1   0.345922 0.623865 0.950587 -0.276920
C54   C     C_1   0.461998 0.218871 0.293463 0.239775
N8    N     N_1   0.435162 0.276327 0.234450 -0.277861

loop_
_geom_bond_atom_site_label_1
_geom_bond_atom_site_label_2
_ccdc_geom_bond_type
C50   H23   S    
C3    C42   S    
C45   N3    T    
C11   H3    S    
C52   N6    T    
C4    C8    S    
C53   N7    T    
Cu1   O7    S    
C47   N5    T    
C10   C22   A    
C26   C27   A    
C30   C35   A    
C49   H20   S    
C28   C29   A    
Cu2   O4    S    
C38   C42   S    
C5    C6    S    
C9    C22   A    
C38   C48   S    
C15   C16   A    
C11   C24   A    
C18   C19   A    
C44   H15   S    
C46   N4    T    
C2    C7    S    
C25   C37   A    
C12   O3    A    
C2    C39   S    
C33   C46   S    
C23   O6    A    
C19   C20   A    
Cu2   O2    S    
C43   H12   S    
C7    C40   T    
C6    H7    S    
Cu1   O3    S    
C39   H1    S    
C25   C32   A    
C16   C24   A    
C13   C14   A    
C28   C49   S    
C34   C41   S    
C5    C52   S    
C22   H9    S    
C25   H5    S    
C10   C21   A    
C26   C47   S    
C8    C41   T    
C4    C6    S    
C42   C53   S    
C51   H26   S    
C48   H18   S    
C19   C54   S    
Cu2   O6    S    
C30   N2    A    
Cu2   O8    S    
C37   N1    A    
C12   C40   S    
C44   H16   S    
Cu1   Cu2   S    
C29   C30   A    
C1    O1    A    
C51   H27   S    
Cu2   N2    S    
C54   N8    T    
C14   C15   A    
C16   C20   A    
C43   H13   S    
C34   O8    A    
C17   C18   A    
C37   H4    S    
C27   C50   S    
Cu1   N1    S    
C49   H21   S    
C4    C38   S    
C50   H24   S    
C2    C5    S    
C3    C4    S    
C36   H6    S    
Cu1   O5    S    
C21   H2    S    
C15   C17   A    
C31   C36   A    
C31   C32   A    
C3    C5    S    
C26   N2    A    
C48   H19   S    
C3    H8    S    
C10   C23   S    
C32   C33   A    
C29   C31   A    
C36   N1    A    
C1    O2    A    
C51   H28   S    
C11   C13   A    
C38   C39   S    
C13   C44   S    
C2    C42   S    
C34   O7    A    
C33   C35   A    
C14   C43   S    
C20   C45   S    
C44   H14   S    
C17   C21   A    
Cu1   O1    S    
C48   H17   S    
C12   O4    A    
C9    C18   A    
C23   O5    A    
C49   H22   S    
C1    C24   S    
C43   H11   S    
C50   H25   S    
C27   C28   A    
C6    C39   S    
C9    H10   S    
C35   C51   S    
