data_mof_unit_11086.cif
_audit_creation_date              2012-12-10T17:09:52-0500
_audit_creation_method            fapswitch 2.2
_symmetry_space_group_name_H-M    P1
_symmetry_Int_Tables_number       1
_space_group_crystal_system       triclinic
_cell_length_a                    10.788204
_cell_length_b                    12.987683
_cell_length_c                    11.719291
_cell_angle_alpha                 99.444711
_cell_angle_beta                  93.214537
_cell_angle_gamma                 90.806351
_cell_volume                      1616.77510192

loop_
_atom_site_label
_atom_site_type_symbol
_atom_type_description
_atom_site_fract_x
_atom_site_fract_y
_atom_site_fract_z
_atom_type_partial_charge
C1    C     C_R   0.495936 0.299304 0.479039 0.866062
C2    C     C_R   0.070166 0.593148 0.565627 0.100949
C3    C     C_R   0.129634 0.508157 0.502199 -0.112946
C4    C     C_R   0.061794 0.426241 0.434292 -0.244147
C5    C     C_R   0.933223 0.422452 0.432706 -0.032644
C6    C     C_R   0.871536 0.505061 0.498598 -0.188347
C7    C     C_R   0.503786 0.814041 0.533395 -0.050578
C8    C     C_R   0.490730 0.186004 0.467392 -0.052601
C9    C     C_R   0.450097 0.016405 0.349643 -0.182774
C10   C     C_R   0.456692 0.124453 0.359883 -0.210214
C11   C     C_R   0.518923 0.138957 0.564570 -0.240313
C12   C     C_R   0.262950 0.503324 0.501057 0.787845
C13   C     C_R   0.513382 0.030940 0.554864 0.166705
C14   C     C_R   0.478319 0.969213 0.446629 0.158723
C15   C     C_R   0.472648 0.861211 0.436960 -0.199766
C16   C     C_R   0.538101 0.875565 0.640873 -0.210664
C17   C     C_R   0.542604 0.983686 0.651614 -0.206746
C18   C     C_R   0.383479 0.401703 0.023478 -0.321344
C19   C     C_R   0.394712 0.410780 0.145051 0.079911
C20   C     C_R   0.550370 0.543881 0.155725 0.145602
C21   C     C_R   0.542064 0.536921 0.032851 0.038601
C22   C     C_R   0.457404 0.464794 0.966394 0.049308
C23   C     C_R   0.501709 0.700716 0.521115 0.782257
C24   C     C_R   0.449513 0.457478 0.844081 0.040046
C25   C     C_R   0.605672 0.589130 0.853367 0.086054
C26   C     C_R   0.616982 0.599053 0.974245 -0.299718
C27   C     C_R   0.737397 0.501043 0.499328 0.857582
C28   C     C_R   0.137867 0.680562 0.628006 -0.170037
C29   C     C_R   0.076692 0.765100 0.687029 -0.127400
C30   C     C_R   0.947659 0.764929 0.683790 -0.131245
C31   C     C_R   0.879090 0.680040 0.621918 -0.169794
C32   C     C_R   0.939065 0.592263 0.562919 0.083536
Cu1   Cu    Cu3+1 0.509250 0.507730 0.615930 0.945219
Cu2   Cu    Cu3+1 0.490750 0.492270 0.384070 0.965262
H1    H     H_    0.110394 0.362416 0.385536 0.167397
H2    H     H_    0.569672 0.030160 0.735034 0.141928
H3    H     H_    0.434229 0.159781 0.283985 0.158506
H4    H     H_    0.545904 0.186166 0.647676 0.155945
H5    H     H_    0.384569 0.402347 0.791863 0.120997
H6    H     H_    0.663379 0.637415 0.809849 0.122570
H7    H     H_    0.317486 0.345404 0.974442 0.145933
H8    H     H_    0.684745 0.655167 0.020445 0.167245
H9    H     H_    0.337276 0.361535 0.187632 0.132276
H10   H     H_    0.238122 0.685438 0.630311 0.145558
H11   H     H_    0.129628 0.831593 0.734243 0.140291
H12   H     H_    0.900356 0.831336 0.728417 0.138139
H13   H     H_    0.779114 0.685230 0.619453 0.132475
H14   H     H_    0.443886 0.814097 0.354333 0.189589
H15   H     H_    0.562628 0.840188 0.716320 0.157608
H16   H     H_    0.423310 0.969890 0.266175 0.150267
N1    N     N_R   0.523180 0.519350 0.790130 -0.183558
N2    N     N_R   0.476820 0.480650 0.209890 -0.213316
O1    O     O_R   0.506570 0.354460 0.582000 -0.586004
O2    O     O_R   0.490940 0.341410 0.386200 -0.584564
O3    O     O_R   0.327470 0.506530 0.597920 -0.589677
O4    O     O_R   0.311840 0.493480 0.402120 -0.582280
O5    O     O_R   0.509060 0.658590 0.613800 -0.611554
O6    O     O_R   0.493430 0.645540 0.418000 -0.562369
O7    O     O_R   0.688160 0.506520 0.597880 -0.576861
O8    O     O_R   0.672530 0.493470 0.402080 -0.598716
C33   C     C_2   0.640246 0.619283 0.224396 0.399961
H17   H     H_    0.727229 0.592997 0.258737 0.076483
O9    O     O_2   0.621213 0.712713 0.235994 -0.573934
C34   C     C_2   0.867493 0.328708 0.365094 0.850260
O10   O     O_2   0.905644 0.287874 0.272454 -0.600308
O11   O     O_R   0.765309 0.284510 0.408842 -0.767381
H18   H     H_    0.730490 0.220010 0.355374 0.334711

loop_
_geom_bond_atom_site_label_1
_geom_bond_atom_site_label_2
_ccdc_geom_bond_type
Cu1   O3    S    
C11   H4    S    
C2    C28   A    
C9    C14   A    
C25   N1    A    
Cu2   O4    S    
C29   C30   A    
C17   H2    S    
Cu1   N1    S    
C1    C8    S    
C9    C10   A    
Cu2   N2    S    
C6    C27   S    
C13   C17   A    
C30   C31   A    
C1    O2    A    
C34   O10   D    
C24   N1    A    
C7    C15   A    
C2    C3    A    
C4    H1    S    
Cu1   O7    S    
C27   O7    A    
C21   C22   A    
C20   C21   A    
Cu2   O8    S    
C11   C13   A    
C34   O11   S    
C12   O4    A    
C15   H14   S    
C8    C11   A    
C7    C23   S    
C5    C6    A    
C2    C32   A    
C28   C29   A    
C31   H13   S    
C21   C26   A    
Cu1   Cu2   S    
Cu2   O2    S    
C23   O6    A    
C27   O8    A    
C10   H3    S    
C25   H6    S    
Cu1   O1    S    
C33   H17   S    
C18   C22   A    
Cu2   O6    S    
C22   C24   A    
C12   O3    A    
C16   C17   A    
C8    C10   A    
C3    C4    A    
C24   H5    S    
O11   H18   S    
C16   H15   S    
C26   H8    S    
C28   H10   S    
C20   N2    A    
C18   C19   A    
C18   H7    S    
C20   C33   S    
C23   O5    A    
C1    O1    A    
C14   C15   A    
C7    C16   A    
Cu1   O5    S    
C3    C12   S    
C25   C26   A    
C13   C14   A    
C19   N2    A    
C30   H12   S    
C33   O9    D    
C9    H16   S    
C31   C32   A    
C5    C34   S    
C29   H11   S    
C4    C5    A    
C6    C32   A    
C19   H9    S    
