data_mof_unit_59355.cif
_audit_creation_date              2013-03-05T16:18:22-0500
_audit_creation_method            fapswitch 2.2
_symmetry_space_group_name_H-M    P1
_symmetry_Int_Tables_number       1
_space_group_crystal_system       triclinic
_cell_length_a                    10.952789
_cell_length_b                    9.984182
_cell_length_c                    10.662692
_cell_angle_alpha                 89.043049
_cell_angle_beta                  86.46202
_cell_angle_gamma                 89.046645
_cell_volume                      1163.48789673

loop_
_atom_site_label
_atom_site_type_symbol
_atom_site_description
_atom_site_fract_x
_atom_site_fract_y
_atom_site_fract_z
_atom_type_partial_charge
O1    O     O_R   0.314910 0.616040 0.499970 -0.635651
O2    O     O_R   0.314910 0.383960 0.499970 -0.625422
C1    C     C_R   0.258505 0.501699 0.504435 0.875701
O3    O     O_R   0.500080 0.616020 0.313900 -0.624588
O4    O     O_R   0.500080 0.383980 0.313900 -0.627047
C2    C     C_R   0.499408 0.500516 0.257705 0.892971
Zn1   Zn    Zn3+2 0.500150 0.654960 0.499940 0.898646
Zn2   Zn    Zn3+2 0.500150 0.345040 0.499940 0.904315
O5    O     O_R   0.685320 0.616040 0.499930 -0.621721
O6    O     O_R   0.685320 0.383960 0.499930 -0.630699
O7    O     O_R   0.500150 0.616060 0.686000 -0.633997
O8    O     O_R   0.500150 0.383940 0.686000 -0.625005
C3    C     C_R   0.741493 0.499271 0.509084 0.861046
C4    C     C_R   0.498257 0.499160 0.741238 0.918694
C5    C     C_3   0.460095 0.620461 0.038316 0.213378
C6    C     C_3   0.415101 0.409057 0.046047 0.196911
C7    C     C_3   0.379894 0.529811 0.962656 0.117185
C8    C     C_3   0.494396 0.498179 0.875348 -0.140687
C9    C     C_3   0.573222 0.590524 0.950095 0.170656
C10   C     C_3   0.526986 0.376836 0.957646 0.156517
C11   C     C_3   0.606254 0.468377 0.032002 0.157179
C12   C     C_3   0.494621 0.499969 0.122155 -0.250420
C13   C     C_3   0.066720 0.605425 0.603006 -0.478323
C14   C     C_3   0.072621 0.365811 0.541131 -0.490737
H1    H     H_    0.105296 0.705842 0.590243 0.218972
H2    H     H_    0.092981 0.295967 0.464130 0.217775
H3    H     H_    0.092719 0.570904 0.697589 0.155982
H4    H     H_    0.117909 0.325952 0.625188 0.174391
C15   C     C_3   0.925001 0.612249 0.601129 -0.015780
C16   C     C_3   0.934579 0.368852 0.572045 -0.034378
H5    H     H_    0.890731 0.581806 0.697523 0.138900
H6    H     H_    0.923350 0.377388 0.676256 0.156668
C17   C     C_3   0.080597 0.551879 0.367312 0.407771
C18   C     C_3   0.122250 0.507023 0.502292 0.041672
C19   C     C_3   0.879513 0.500907 0.508423 0.066596
C20   C     C_3   0.937450 0.521477 0.365634 0.421673
C21   C     C_3   0.402529 0.074047 0.420906 0.160755
C22   C     C_3   0.384624 0.920535 0.452743 0.187995
H7    H     H_    0.432760 0.077005 0.319773 0.115422
H8    H     H_    0.363673 0.868567 0.365588 0.127848
C23   C     C_3   0.616745 0.078218 0.437361 0.094442
C24   C     C_3   0.608684 0.918523 0.421485 0.054104
C25   C     C_3   0.491949 0.078021 0.626107 -0.323663
C26   C     C_3   0.511785 0.919221 0.625529 -0.316492
N1    N     N_3   0.499750 0.138610 0.497240 -0.051127
N2    N     N_3   0.499750 0.861390 0.497240 -0.072396
H9    H     H_    0.564049 0.121601 0.680602 0.162008
H10   H     H_    0.603876 0.895681 0.658684 0.128627
H11   H     H_    0.403981 0.107117 0.676048 0.166442
H12   H     H_    0.448936 0.871453 0.697708 0.186297
H13   H     H_    0.690086 0.091990 0.501991 0.133332
H14   H     H_    0.692662 0.875356 0.459940 0.155215
C27   C     C_3   0.257584 0.568783 0.910408 -0.946363
H15   H     H_    0.270585 0.651767 0.840711 0.237829
H16   H     H_    0.220716 0.482587 0.861550 0.234380
H17   H     H_    0.191812 0.602520 0.986671 0.243950
C28   C     C_3   0.867770 0.632035 0.292164 -0.906343
H18   H     H_    0.862659 0.729899 0.337320 0.244778
H19   H     H_    0.910715 0.647236 0.196041 0.229160
H20   H     H_    0.772843 0.601136 0.280075 0.242969
C29   C     C_3   0.916983 0.393757 0.288362 -0.954840
H21   H     H_    0.942475 0.409042 0.187006 0.254240
H22   H     H_    0.969107 0.304338 0.316061 0.240060
H23   H     H_    0.820350 0.370215 0.295758 0.247290
C30   C     C_3   0.280444 0.144948 0.414867 -0.905241
H24   H     H_    0.214087 0.081816 0.368894 0.204918
H25   H     H_    0.243711 0.165989 0.511306 0.269656
H26   H     H_    0.290706 0.232787 0.351566 0.279423
C31   C     C_3   0.272735 0.897427 0.548978 -0.906208
H27   H     H_    0.259767 0.977395 0.619000 0.217937
H28   H     H_    0.187028 0.895191 0.499950 0.225552
H29   H     H_    0.282930 0.806708 0.607447 0.266933
C32   C     C_3   0.663307 0.149821 0.315009 -0.903506
H30   H     H_    0.605851 0.135444 0.234611 0.236220
H31   H     H_    0.667603 0.255571 0.329155 0.302462
H32   H     H_    0.758359 0.116523 0.287779 0.208842
C33   C     C_3   0.619152 0.872888 0.283436 -0.859284
H33   H     H_    0.535754 0.895995 0.233857 0.252803
H34   H     H_    0.698285 0.917321 0.229347 0.219599
H35   H     H_    0.643085 0.767098 0.278371 0.283225
N3    N     N_2   0.418564 0.747838 0.090094 -0.286052
H36   H     H_    0.339957 0.739077 0.147692 0.227454
C34   C     C_3   0.414783 0.861136 0.004069 -0.832599
H37   H     H_    0.367068 0.946883 0.052003 0.228571
H38   H     H_    0.365115 0.836613 0.920188 0.246385
H39   H     H_    0.508703 0.893708 0.975570 0.258153
N4    N     N_2   0.337733 0.305192 0.102382 -0.297223
H40   H     H_    0.387740 0.231032 0.145041 0.235639
C35   C     C_3   0.245908 0.252602 0.025583 -0.824955
H41   H     H_    0.206756 0.160596 0.070918 0.228328
H42   H     H_    0.285516 0.227351 0.930466 0.242728
H43   H     H_    0.169935 0.326284 0.017884 0.258769
C36   C     C_3   0.667685 0.690495 0.898791 -0.908166
H44   H     H_    0.705210 0.744442 0.977688 0.246395
H45   H     H_    0.742943 0.636308 0.846578 0.231791
H46   H     H_    0.625514 0.763269 0.834762 0.245747
C37   C     C_3   0.566376 0.235893 0.918145 -0.903872
H47   H     H_    0.591889 0.176422 0.001617 0.236153
H48   H     H_    0.489768 0.185780 0.876301 0.240987
H49   H     H_    0.646542 0.240861 0.849441 0.239710
C38   C     C_3   0.736710 0.427371 0.052865 -0.958498
H50   H     H_    0.737210 0.337774 0.115002 0.258239
H51   H     H_    0.785000 0.401667 0.961628 0.244707
H52   H     H_    0.783614 0.512716 0.090561 0.257077
C39   C     C_3   0.876642 0.758503 0.599948 -0.919799
H53   H     H_    0.891726 0.812937 0.510527 0.236519
H54   H     H_    0.778931 0.763920 0.632133 0.257311
H55   H     H_    0.923718 0.816438 0.670326 0.233479
C40   C     C_3   0.880534 0.229288 0.557364 -0.917762
H56   H     H_    0.860325 0.207450 0.460458 0.270358
H57   H     H_    0.945145 0.150180 0.588512 0.234043
H58   H     H_    0.796847 0.219161 0.620910 0.245177
C41   C     C_3   0.109225 0.702614 0.337083 -0.925494
H59   H     H_    0.056028 0.772406 0.397860 0.237802
H60   H     H_    0.206908 0.723938 0.343164 0.255684
H61   H     H_    0.090593 0.730620 0.238825 0.233289
C42   C     C_3   0.158420 0.478464 0.261605 -0.881058
H62   H     H_    0.125101 0.505464 0.168549 0.244086
H63   H     H_    0.255223 0.508538 0.259001 0.239594
H64   H     H_    0.156789 0.368791 0.272103 0.242906

loop_
_geom_bond_atom_site_label_1
_geom_bond_atom_site_label_2
_geom_bond_distance
_ccdc_geom_bond_type
C16   H6    1.114911 S    
N4    H40   1.030103 S    
C17   C42   1.556421 S    
C36   H44   1.109911 S    
C29   H23   1.085837 S    
C23   C24   1.610648 S    
C4    C8    1.427865 S    
C19   C20   1.624055 S    
N3    H36   1.030312 S    
C5    N3    1.449935 S    
C33   H33   1.102540 S    
C5    C9    1.537097 S    
C39   H54   1.104266 S    
C38   H50   1.104412 S    
C16   C19   1.598895 S    
C13   C15   1.553932 S    
C9    C11   1.539369 S    
C14   H2    1.096120 S    
C3    C19   1.511638 S    
C40   H57   1.112012 S    
C24   N2    1.513178 S    
O4    C2    1.299933 A    
O7    C4    1.298424 A    
C33   H35   1.085445 S    
C2    C12   1.449611 S    
C17   C20   1.603159 S    
C29   H22   1.097839 S    
C8    C9    1.538390 S    
C32   H30   1.106892 S    
C31   H28   1.103013 S    
O5    C3    1.314151 A    
Zn2   N1    2.061799 S    
C37   H48   1.105022 S    
C5    C12   1.542736 S    
C10   C37   1.523453 S    
C6    C7    1.543994 S    
C30   H25   1.103061 S    
C21   C30   1.506939 S    
C6    N4    1.449107 S    
C13   H3    1.112450 S    
C35   H42   1.109487 S    
C9    C36   1.520614 S    
Zn2   O8    2.027916 S    
C41   H61   1.110047 S    
C11   C38   1.508463 S    
C30   H26   1.100665 S    
C33   H34   1.105983 S    
C22   C31   1.566628 S    
C38   H51   1.110102 S    
C11   C12   1.539726 S    
C32   H31   1.071255 S    
C15   C39   1.545136 S    
C31   H27   1.103695 S    
O3    Zn1   2.027838 S    
N3    C34   1.446065 S    
C26   N2    1.507683 S    
C37   H47   1.109205 S    
C27   H16   1.107965 S    
C39   H55   1.111641 S    
C16   C40   1.537113 S    
Zn1   N2    2.060691 S    
O3    C2    1.308777 A    
C20   C28   1.559311 S    
C42   H64   1.099170 S    
C25   H11   1.108516 S    
C28   H20   1.105145 S    
C1    C18   1.494006 S    
C27   H15   1.108743 S    
C14   C18   1.559794 S    
O1    C1    1.305834 A    
C31   H29   1.099038 S    
Zn1   O7    2.015185 S    
C25   C26   1.596779 S    
C21   C22   1.577102 S    
C34   H37   1.110875 S    
C6    C10   1.532373 S    
C13   C18   1.556632 S    
C7    C8    1.546520 S    
C35   H43   1.107418 S    
C25   N1    1.490230 S    
Zn2   O6    2.071351 S    
C34   H38   1.107989 S    
O8    C4    1.300397 A    
C36   H46   1.103887 S    
N4    C35   1.446149 S    
C32   H32   1.110441 S    
C40   H58   1.110691 S    
C21   N1    1.535978 S    
C20   C29   1.556467 S    
C7    C27   1.524438 S    
C37   H49   1.109468 S    
C41   H59   1.095435 S    
C27   H17   1.105640 S    
C26   H12   1.107657 S    
C5    C7    1.542699 S    
C6    C12   1.542452 S    
O1    Zn1   2.072091 S    
O2    Zn2   2.059393 S    
C14   H4    1.115394 S    
O6    C3    1.322222 A    
O4    Zn2   2.015089 S    
C38   H52   1.096825 S    
C39   H53   1.094536 S    
C15   C19   1.605326 S    
C17   C41   1.566575 S    
C42   H63   1.105335 S    
O2    C1    1.319047 A    
C21   H7    1.108399 S    
C42   H62   1.105815 S    
C22   H8    1.109899 S    
C28   H18   1.095552 S    
C36   H45   1.104848 S    
C17   C18   1.591501 S    
C8    C10   1.534261 S    
C13   H1    1.097568 S    
C29   H21   1.108100 S    
C14   C16   1.527359 S    
C22   N2    1.484420 S    
C28   H19   1.110159 S    
C23   C32   1.540136 S    
Zn1   O5    2.058651 S    
C34   H39   1.107050 S    
C10   C11   1.534033 S    
C24   C33   1.545085 S    
C15   H5    1.111496 S    
C30   H24   1.111477 S    
C23   N1    1.516386 S    
C35   H41   1.110899 S    
C40   H56   1.096160 S    
C25   H9    1.107737 S    
C23   H13   1.101933 S    
C26   H10   1.109476 S    
C24   H14   1.107855 S    
C41   H60   1.100372 S    
