data_mof_unit_7495.cif
_audit_creation_date              2012-12-10T18:21:24-0500
_audit_creation_method            fapswitch 2.2
_symmetry_space_group_name_H-M    P1
_symmetry_Int_Tables_number       1
_space_group_crystal_system       triclinic
_cell_length_a                    14.918
_cell_length_b                    14.065578
_cell_length_c                    10.718745
_cell_angle_alpha                 89.634578
_cell_angle_beta                  91.622087
_cell_angle_gamma                 90.401261
_cell_volume                      2248.11803195

loop_
_atom_site_label
_atom_site_type_symbol
_atom_type_description
_atom_site_fract_x
_atom_site_fract_y
_atom_site_fract_z
_atom_type_partial_charge
C1    C     C_R   0.327086 0.499620 0.498071 0.956044
C2    C     C_R   0.053615 0.493931 0.721105 -0.222327
C3    C     C_R   0.096860 0.490491 0.607474 0.081463
C4    C     C_R   0.493353 0.500419 0.257664 0.920403
C5    C     C_R   0.047385 0.485384 0.493312 0.013441
C6    C     C_R   0.090925 0.480782 0.377402 -0.098811
C7    C     C_R   0.038533 0.460880 0.267479 0.375839
C8    C     C_R   0.944661 0.464996 0.271408 0.329877
C9    C     C_R   0.189131 0.493974 0.606596 -0.215439
C10   C     C_R   0.231718 0.497643 0.493710 -0.111154
C11   C     C_R   0.184640 0.494059 0.378777 0.353060
C12   C     C_3   0.592887 0.484916 0.936848 0.675246
C13   C     C_R   0.552766 0.798561 0.418996 -0.102968
C14   C     C_R   0.552955 0.203214 0.418998 -0.080538
C15   C     C_R   0.446275 0.798047 0.579365 0.462974
C16   C     C_R   0.446009 0.200571 0.579036 0.456746
C17   C     C_R   0.446942 0.898508 0.582089 0.001904
C18   C     C_R   0.446690 0.100164 0.581822 0.008529
C19   C     C_R   0.673330 0.499872 0.500898 1.049072
C20   C     C_R   0.500932 0.949590 0.498495 0.006639
C21   C     C_R   0.500824 0.050746 0.498349 -0.008807
C22   C     C_R   0.553233 0.899531 0.413721 -0.154084
C23   C     C_R   0.812615 0.513587 0.387781 0.432152
C24   C     C_R   0.553584 0.102437 0.414038 -0.157854
C25   C     C_R   0.394176 0.949097 0.665257 -0.165693
C26   C     C_R   0.394046 0.047999 0.665136 -0.156146
C27   C     C_R   0.603970 0.052236 0.326439 0.343638
C28   C     C_R   0.602715 0.951534 0.325101 0.321516
C29   C     C_R   0.498081 0.499676 0.742402 0.996450
C30   C     C_3   0.449941 0.595589 0.066357 0.260963
C31   C     C_3   0.435123 0.415023 0.068410 0.274881
C32   C     C_3   0.456506 0.594443 0.923938 -0.475697
C33   C     C_3   0.432917 0.419232 0.924662 -0.476252
C34   C     C_R   0.769335 0.497769 0.499955 -0.287101
C35   C     C_3   0.590087 0.494290 0.079743 -0.320389
C36   C     C_3   0.491933 0.501369 0.120906 -0.116533
C37   C     C_3   0.496174 0.499314 0.879057 -0.147141
C38   C     C_3   0.436471 0.752743 0.138854 0.151582
C39   C     C_3   0.403053 0.805056 0.020527 -0.367462
C40   C     C_3   0.357212 0.898141 0.052732 -0.901027
C41   C     C_3   0.408794 0.252067 0.105783 0.127334
C42   C     C_3   0.350989 0.250384 0.222194 -0.369538
C43   C     C_3   0.308370 0.152762 0.242534 -0.890006
C44   C     C_3   0.806381 0.637985 0.244353 0.171769
C45   C     C_R   0.817522 0.469665 0.607527 0.426041
C46   C     C_3   0.814630 0.716189 0.344360 -0.441072
C47   C     C_3   0.868661 0.800970 0.297124 -0.769653
C48   C     C_3   0.800669 0.329124 0.715370 0.226380
C49   C     C_3   0.737967 0.264634 0.637294 -0.389706
C50   C     C_3   0.757754 0.159743 0.661267 -0.853631
C51   C     C_R   0.910511 0.483624 0.610693 -0.108515
C52   C     C_R   0.954110 0.486347 0.495615 -0.140136
C53   C     C_R   0.903769 0.489473 0.382829 -0.165379
C54   C     C_R   0.960748 0.490855 0.723456 0.425681
Cl1   Cl    Cl    0.243952 0.522228 0.242954 -0.690705
Cl2   Cl    Cl    0.910678 0.510018 0.867365 -0.419693
Cl3   Cl    Cl    0.085489 0.417645 0.129103 -0.478778
Cl4   Cl    Cl    0.877345 0.423833 0.144125 -0.401444
Cl5   Cl    Cl    0.372814 0.734109 0.675078 -0.672273
Cl6   Cl    Cl    0.372302 0.262880 0.674012 -0.656688
Cl7   Cl    Cl    0.667499 0.114626 0.215082 -0.498295
Cl8   Cl    Cl    0.659411 0.891814 0.206520 -0.592876
Cl9   Cl    Cl    0.671097 0.570490 0.877050 -0.495480
Cl10  Cl    Cl    0.634524 0.369075 0.901959 -0.517862
H1    H     H_    0.092014 0.500693 0.808088 0.207907
H2    H     H_    0.363048 0.432211 0.889547 0.177621
H3    H     H_    0.498685 0.655158 0.892626 0.277137
H4    H     H_    0.452762 0.349448 0.886854 0.283688
H5    H     H_    0.627640 0.558682 0.111573 0.230431
H6    H     H_    0.624032 0.433212 0.127346 0.246558
H7    H     H_    0.474481 0.804837 0.196412 0.193857
H8    H     H_    0.379531 0.728376 0.196318 0.145947
H9    H     H_    0.460598 0.821126 0.960017 0.269018
H10   H     H_    0.354164 0.759625 0.968034 0.240417
H11   H     H_    0.299493 0.884117 0.113612 0.271432
H12   H     H_    0.228223 0.496312 0.693623 0.160740
H13   H     H_    0.332206 0.933573 0.965832 0.267698
H14   H     H_    0.405391 0.946872 0.101418 0.268767
H15   H     H_    0.447170 0.184762 0.101940 0.203135
H16   H     H_    0.364961 0.254188 0.019954 0.143892
H17   H     H_    0.392517 0.268716 0.305765 0.267056
H18   H     H_    0.296857 0.303928 0.212328 0.253206
H19   H     H_    0.266248 0.132345 0.159746 0.277529
H20   H     H_    0.265488 0.154854 0.325476 0.285179
H21   H     H_    0.361115 0.098392 0.259322 0.255951
H22   H     H_    0.764339 0.666092 0.165475 0.218416
H23   H     H_    0.592301 0.757575 0.356248 0.206812
H24   H     H_    0.872823 0.623815 0.204732 0.175864
H25   H     H_    0.746838 0.739747 0.369558 0.257634
H26   H     H_    0.849208 0.689393 0.430540 0.225129
H27   H     H_    0.939598 0.780172 0.285149 0.249816
H28   H     H_    0.866823 0.859603 0.365865 0.277550
H29   H     H_    0.840756 0.826900 0.206171 0.308449
H30   H     H_    0.797377 0.307834 0.814997 0.248392
H31   H     H_    0.871440 0.316199 0.689731 0.098019
H32   H     H_    0.667183 0.278516 0.660523 0.285946
H33   H     H_    0.746687 0.280142 0.536580 0.230631
H34   H     H_    0.593379 0.245472 0.357250 0.225718
H35   H     H_    0.827910 0.143472 0.637186 0.268328
H36   H     H_    0.711681 0.115312 0.602575 0.271189
H37   H     H_    0.747476 0.141519 0.760856 0.293826
H38   H     H_    0.352245 0.913112 0.731541 0.194636
H39   H     H_    0.352154 0.082709 0.731538 0.194245
H40   H     H_    0.377556 0.595004 0.089520 0.132406
H41   H     H_    0.365449 0.423079 0.100822 0.133958
H42   H     H_    0.388282 0.604360 0.881322 0.198034
N1    N     N_R   0.500070 0.750030 0.500050 -0.139315
N2    N     N_R   0.500070 0.249970 0.500050 -0.165144
O1    O     O_R   0.367860 0.580280 0.500020 -0.567387
O2    O     O_3   0.472613 0.327341 0.110413 -0.570566
O3    O     O_3   0.764555 0.553113 0.287405 -0.632158
O4    O     O_3   0.773772 0.425898 0.704929 -0.545684
O5    O     O_R   0.367860 0.419720 0.500020 -0.590223
O6    O     O_R   0.500000 0.580270 0.314790 -0.595976
O7    O     O_R   0.500000 0.419730 0.314790 -0.601601
O8    O     O_R   0.632160 0.580270 0.499960 -0.608723
O9    O     O_R   0.632160 0.419730 0.499960 -0.642565
O10   O     O_R   0.500030 0.580270 0.685200 -0.577282
O11   O     O_R   0.500030 0.419730 0.685200 -0.570090
O12   O     O_3   0.496084 0.677830 0.112125 -0.590610
Zn1   Zn    Zn3+2 0.500020 0.607200 0.499990 1.034840
Zn2   Zn    Zn3+2 0.500020 0.392800 0.499990 1.007853

loop_
_geom_bond_atom_site_label_1
_geom_bond_atom_site_label_2
_ccdc_geom_bond_type
C4    C36   S    
C15   Cl5   S    
C48   H31   S    
C18   C21   A    
C43   H19   S    
C41   C42   S    
C4    O7    A    
C35   C36   S    
C42   H18   S    
C24   C27   A    
C13   N1    A    
C2    H1    S    
C41   H16   S    
C45   O4    S    
C7    C8    A    
C46   H25   S    
C29   O11   A    
C50   H35   S    
C48   H30   S    
C4    O6    A    
C16   Cl6   S    
C38   C39   S    
C12   Cl10  S    
C25   H38   S    
C45   C51   A    
C14   C24   A    
C17   C20   A    
C47   H28   S    
C39   H10   S    
C15   N1    A    
C12   C37   S    
C27   Cl7   S    
C1    O1    A    
C46   C47   S    
O6    Zn1   S    
O5    Zn2   S    
C35   H6    S    
C18   C26   A    
C31   C33   S    
C5    C52   A    
C14   H34   S    
C9    H12   S    
C9    C10   A    
C38   O12   S    
C14   N2    A    
O7    Zn2   S    
C32   H42   S    
C43   H20   S    
C31   H41   S    
C42   H17   S    
C1    O5    A    
C44   H22   S    
C44   C46   S    
C33   H2    S    
C23   C53   A    
C38   H8    S    
C54   Cl2   S    
O8    Zn1   S    
C51   C52   A    
C43   H21   S    
C2    C54   A    
C39   C40   S    
C12   Cl9   S    
C25   C26   A    
C33   C37   S    
O10   Zn1   S    
O9    Zn2   S    
C3    C9    A    
C26   H39   S    
C23   C34   A    
C13   H23   S    
C47   H29   S    
C34   C45   A    
C32   C37   S    
C12   C35   S    
C19   O9    A    
C32   H3    S    
C48   C49   S    
C48   O4    S    
C20   C22   A    
C41   O2    S    
C40   H14   S    
C42   C43   S    
N1    Zn1   S    
C29   C37   S    
C6    C11   A    
C11   Cl1   S    
C52   C53   A    
O11   Zn2   S    
C15   C17   A    
C38   H7    S    
C8    Cl4   S    
C40   H13   S    
C47   H27   S    
C1    C10   S    
N2    Zn2   S    
C3    C5    A    
C19   C34   S    
C8    C53   A    
C41   H15   S    
C6    C7    A    
C46   H26   S    
C23   O3    S    
C29   O10   A    
C50   H36   S    
C40   H11   S    
C30   C36   S    
C51   C54   A    
C17   C25   A    
C2    C3    A    
C30   C32   S    
O1    Zn1   S    
C5    C6    A    
C30   O12   S    
C19   O8    A    
C31   O2    S    
C13   C22   A    
C39   H9    S    
C49   H32   S    
C10   C11   A    
C16   N2    A    
C49   H33   S    
C44   O3    S    
C20   C21   A    
C35   H5    S    
C50   H37   S    
C16   C18   A    
C49   C50   S    
C21   C24   A    
C30   H40   S    
C27   C28   A    
C31   C36   S    
C22   C28   A    
C44   H24   S    
C7    Cl3   S    
C33   H4    S    
C28   Cl8   S    
