data_mof_unit_26664.cif
_audit_creation_date              2013-03-05T16:41:26-0500
_audit_creation_method            fapswitch 2.2
_symmetry_space_group_name_H-M    P1
_symmetry_Int_Tables_number       1
_space_group_crystal_system       triclinic
_cell_length_a                    10.716823
_cell_length_b                    10.623708
_cell_length_c                    9.896822
_cell_angle_alpha                 89.884021
_cell_angle_beta                  103.61505
_cell_angle_gamma                 90.435847
_cell_volume                      1095.08187245

loop_
_atom_site_label
_atom_site_type_symbol
_atom_site_description
_atom_site_fract_x
_atom_site_fract_y
_atom_site_fract_z
_atom_type_partial_charge
O1    O     O_R   0.500020 0.316790 0.614700 -0.567152
O2    O     O_R   0.500000 0.316760 0.385350 -0.624868
C1    C     C_R   0.500815 0.260485 0.500105 0.857818
O3    O     O_R   0.317820 0.500020 0.571850 -0.599162
O4    O     O_R   0.317800 0.499980 0.342510 -0.612314
C2    C     C_R   0.258861 0.496075 0.441745 0.914219
Zn1   Zn    Zn3+2 0.500010 0.500020 0.653140 1.013117
Zn2   Zn    Zn3+2 0.499990 0.499980 0.346860 0.982337
O5    O     O_R   0.500000 0.683240 0.614650 -0.618777
O6    O     O_R   0.499980 0.683210 0.385300 -0.612113
O7    O     O_R   0.682200 0.500020 0.657490 -0.569204
O8    O     O_R   0.682180 0.499980 0.428150 -0.576743
C3    C     C_R   0.500898 0.739558 0.499894 0.883504
C4    C     C_R   0.741638 0.495551 0.557973 0.824056
H1    H     H_    0.872810 0.431256 0.379620 0.215055
H2    H     H_    0.123384 0.393937 0.598098 0.183209
C5    C     C_2   0.121500 0.481802 0.407017 -0.334179
C6    C     C_2   0.066855 0.431384 0.501535 -0.109970
C7    C     C_2   0.879843 0.478597 0.590083 0.138172
C8    C     C_2   0.931191 0.443821 0.484678 -0.293861
H3    H     H_    0.065185 0.517075 0.308311 0.179718
C9    C     C_R   0.602248 0.065014 0.588412 -0.028311
C10   C     C_R   0.504440 0.128759 0.497616 -0.100253
C11   C     C_R   0.420361 0.064708 0.389559 -0.198419
H4    H     H_    0.350743 0.114650 0.310864 0.152061
C12   C     C_R   0.420756 0.934690 0.389105 -0.224940
H5    H     H_    0.351588 0.884020 0.309939 0.157612
C13   C     C_R   0.504527 0.871437 0.497300 -0.055897
C14   C     C_R   0.601078 0.936547 0.589646 0.023528
C15   C     C_3   0.650499 0.928147 0.743842 -0.555331
C16   C     C_3   0.652980 0.071849 0.743937 0.387977
H6    H     H_    0.578675 0.887599 0.796824 0.178893
H7    H     H_    0.747127 0.884571 0.773009 0.227642
H8    H     H_    0.583128 0.112764 0.797778 0.168407
C17   C     C_R   0.393262 0.464321 0.044390 0.049090
N1    N     N_R   0.499160 0.499140 0.142600 -0.135585
C18   C     C_R   0.599232 0.552570 0.096961 0.552737
C19   C     C_R   0.600198 0.549165 0.952835 -0.204031
H9    H     H_    0.682422 0.585048 0.918766 0.192243
N2    N     N_R   0.499160 0.499180 0.856960 -0.115812
C20   C     C_R   0.392500 0.465259 0.902467 0.166412
C21   C     C_3   0.318996 0.343447 0.880525 0.359436
C22   C     C_3   0.323693 0.342045 0.035620 -0.521270
H10   H     H_    0.220405 0.356602 0.815213 0.099249
H11   H     H_    0.227549 0.352105 0.058431 0.194890
H12   H     H_    0.384043 0.266029 0.094358 0.225373
O9    O     O_3   0.778665 0.122612 0.797845 -0.567024
C23   C     C_3   0.853230 0.135530 0.698198 -0.193144
H13   H     H_    0.810905 0.206558 0.618186 0.140904
H14   H     H_    0.865057 0.043635 0.649293 0.146906
H15   H     H_    0.950326 0.169958 0.751492 0.181162
O10   O     O_3   0.702922 0.602068 0.192498 -0.584533
C24   C     C_3   0.705618 0.733799 0.175278 -0.287706
H16   H     H_    0.777681 0.774366 0.264081 0.196083
H17   H     H_    0.611358 0.777288 0.175677 0.163962
H18   H     H_    0.735658 0.759344 0.078533 0.153567
O11   O     O_3   0.390495 0.244926 0.840769 -0.575548
C25   C     C_3   0.306717 0.143841 0.789242 -0.334423
H19   H     H_    0.239180 0.170050 0.689695 0.155176
H20   H     H_    0.252705 0.112072 0.866627 0.169671
H21   H     H_    0.363728 0.062927 0.767538 0.182249
N3    N     N_R   0.956267 0.500027 0.729028 0.191772
O12   O     O_R   0.914365 0.463587 0.836033 -0.387537
O13   O     O_R   0.060010 0.568834 0.749265 -0.420105

loop_
_geom_bond_atom_site_label_1
_geom_bond_atom_site_label_2
_geom_bond_distance
_ccdc_geom_bond_type
O4    Zn2   1.942815 S    
C15   H6    1.112229 S    
C10   C11   1.399488 A    
C3    C13   1.401639 S    
N2    C20   1.369203 A    
C14   C15   1.495649 S    
C9    C14   1.364814 A    
C17   C22   1.485293 S    
C20   C21   1.499150 S    
C12   C13   1.399220 A    
C7    C8    1.342548 D    
Zn2   O8    1.928720 S    
Zn1   N2    2.019336 S    
C9    C16   1.508602 S    
C25   H21   1.108546 S    
C23   H14   1.111802 S    
C5    C6    1.325131 D    
O11   C25   1.411172 S    
C16   H8    1.107685 S    
H2    C6    1.080809 S    
C16   O9    1.428817 S    
C24   H16   1.109722 S    
O10   C24   1.410369 S    
Zn1   O7    1.942813 S    
C22   H11   1.111445 S    
C12   H5    1.084112 S    
N3    O12   1.301004 A    
C21   H10   1.110887 S    
O3    Zn1   1.928720 S    
C23   H13   1.111699 S    
O4    C2    1.287136 A    
C21   O11   1.411816 S    
O3    C2    1.294510 A    
C13   C14   1.389548 A    
C19   N2    1.365427 A    
C18   C19   1.429393 A    
C11   C12   1.381324 A    
O2    C1    1.280622 A    
C6    C8    1.430988 S    
C24   H17   1.114847 S    
C15   C16   1.526674 S    
C17   C20   1.402707 A    
C22   H12   1.112408 S    
O2    Zn2   1.982640 S    
C21   C22   1.523936 S    
C18   O10   1.379788 S    
C7    N3    1.442821 S    
C25   H20   1.113642 S    
C19   H9    1.081542 S    
C11   H4    1.084209 S    
Zn2   O6    1.984169 S    
Zn2   N1    2.019486 S    
C24   H18   1.112102 S    
O7    C4    1.293851 A    
Zn1   O5    1.982638 S    
C2    C5    1.437619 S    
O5    C3    1.284611 A    
C9    C10   1.389128 A    
N1    C18   1.376272 A    
N3    O13   1.301515 A    
C15   H7    1.111759 S    
C25   H19   1.112768 S    
O1    Zn1   1.984170 S    
C1    C10   1.400680 S    
C4    C7    1.452372 S    
O6    C3    1.281435 A    
C23   H15   1.109655 S    
C5    H3    1.087810 S    
O9    C23   1.413772 S    
O8    C4    1.293761 A    
H1    C8    1.087819 S    
O1    C1    1.285106 A    
C17   N1    1.358405 A    
