data_mof_unit_33095.cif
_audit_creation_date              2012-12-10T20:31:58-0500
_audit_creation_method            fapswitch 2.2
_symmetry_space_group_name_H-M    P1
_symmetry_Int_Tables_number       1
_space_group_crystal_system       triclinic
_cell_length_a                    9.865644
_cell_length_b                    10.673621
_cell_length_c                    15.520015
_cell_angle_alpha                 89.97331
_cell_angle_beta                  67.711863
_cell_angle_gamma                 90.059358
_cell_volume                      1512.18869939

loop_
_atom_site_label
_atom_site_type_symbol
_atom_type_description
_atom_site_fract_x
_atom_site_fract_y
_atom_site_fract_z
_atom_type_partial_charge
C1    C     C_R   0.498134 0.740047 0.503127 0.882913
C2    C     C_R   0.712808 0.397232 0.041516 0.177386
C3    C     C_R   0.573691 0.450156 0.092331 0.096209
C4    C     C_R   0.408402 0.498049 0.675965 0.868359
C5    C     C_R   0.816486 0.384875 0.082918 -0.224891
C6    C     C_R   0.782326 0.424006 0.174557 -0.210935
C7    C     C_R   0.548284 0.499702 0.180117 -0.261216
C8    C     C_R   0.365090 0.935869 0.519887 0.127831
C9    C     C_R   0.488310 0.871309 0.518742 -0.105875
C10   C     C_R   0.599730 0.935269 0.535972 -0.225575
C11   C     C_R   0.599730 0.064834 0.535886 -0.228454
C12   C     C_R   0.403404 0.451380 0.915843 0.097429
C13   C     C_R   0.488312 0.128550 0.518568 -0.105295
C14   C     C_R   0.365067 0.063669 0.519809 0.142800
C15   C     C_3   0.285018 0.070555 0.455177 -0.494551
C16   C     C_R   0.498165 0.259904 0.503004 0.881994
C17   C     C_3   0.285115 0.928507 0.455247 -0.476897
C18   C     C_R   0.906484 0.597903 0.537889 0.218249
C19   C     C_R   0.954960 0.409558 0.454733 -0.148960
C20   C     C_R   0.098976 0.409602 0.454671 -0.134951
C21   C     C_R   0.049037 0.597915 0.537764 0.212478
C22   C     C_3   0.996790 0.641223 0.636204 -0.520985
C23   C     C_R   0.258271 0.489002 0.970761 0.176557
C24   C     C_3   0.842609 0.641042 0.636601 -0.499115
C25   C     C_R   0.591511 0.498819 0.324005 0.870887
C26   C     C_R   0.350651 0.488757 0.777221 -0.056150
C27   C     C_R   0.646557 0.480007 0.223566 -0.058935
C28   C     C_R   0.159416 0.519328 0.928531 -0.216887
C29   C     C_R   0.205452 0.519100 0.831902 -0.201113
C30   C     C_R   0.446481 0.451744 0.819216 -0.266977
C31   C     C_R   0.504488 0.424650 0.958446 0.069246
C32   C     C_R   0.464738 0.454059 0.053712 0.069308
C33   C     C_R   0.316836 0.484153 0.107736 -0.232799
C34   C     C_R   0.215070 0.499646 0.066759 -0.247411
C35   C     C_R   0.644254 0.371320 0.909100 -0.234403
C36   C     C_R   0.745618 0.356347 0.950710 -0.242122
H1    H     H_    0.103574 0.525026 0.110015 0.151282
H2    H     H_    0.450134 0.552335 0.217328 0.153035
H3    H     H_    0.037775 0.736569 0.642173 0.199559
H4    H     H_    0.770360 0.569771 0.684403 0.219097
H5    H     H_    0.794417 0.736314 0.643056 0.194740
H6    H     H_    0.859212 0.406792 0.207822 0.153984
H7    H     H_    0.048458 0.548088 0.969997 0.151590
H8    H     H_    0.129579 0.546949 0.800163 0.151372
H9    H     H_    0.557512 0.430141 0.774707 0.150457
H10   H     H_    0.275736 0.493570 0.182499 0.150249
H11   H     H_    0.676849 0.336122 0.839040 0.146180
H12   H     H_    0.921783 0.341530 0.045489 0.147646
H13   H     H_    0.691462 0.886406 0.542634 0.166037
H14   H     H_    0.921532 0.335280 0.419645 0.146695
H15   H     H_    0.850932 0.314303 0.911113 0.151232
H16   H     H_    0.691448 0.113912 0.542546 0.169710
H17   H     H_    0.173694 0.111265 0.489426 0.201180
H18   H     H_    0.352286 0.112022 0.386408 0.203226
H19   H     H_    0.173938 0.887287 0.489460 0.200308
H20   H     H_    0.352550 0.887238 0.386529 0.204750
H21   H     H_    0.174207 0.335548 0.419339 0.148492
H22   H     H_    0.013348 0.569857 0.683449 0.212194
N1    N     N_R   0.856900 0.500860 0.500610 -0.103634
N2    N     N_R   0.142540 0.500820 0.500610 -0.102861
O1    O     O_R   0.385310 0.683210 0.499990 -0.614537
O2    O     O_R   0.614650 0.683240 0.500000 -0.618176
O3    O     O_R   0.319830 0.499970 0.632240 -0.615903
O4    O     O_R   0.549170 0.500000 0.632250 -0.619338
O5    O     O_R   0.385350 0.316760 0.500000 -0.616082
O6    O     O_R   0.614690 0.316790 0.500010 -0.625923
O7    O     O_R   0.450830 0.500000 0.367750 -0.616070
O8    O     O_R   0.680170 0.500030 0.367760 -0.612588
Zn1   Zn    Zn3+2 0.346870 0.499980 0.499990 0.938321
Zn2   Zn    Zn3+2 0.653130 0.500020 0.500010 0.936632

loop_
_geom_bond_atom_site_label_1
_geom_bond_atom_site_label_2
_ccdc_geom_bond_type
C22   H22   S    
C4    C26   S    
C23   C28   A    
C24   H5    S    
O4    Zn2   S    
C20   N2    A    
C18   C21   A    
C9    C10   A    
C4    O4    A    
C28   H7    S    
C6    C27   A    
C17   H20   S    
C23   C34   A    
C35   H11   S    
C1    O2    A    
C25   O7    A    
C2    C3    A    
C30   H9    S    
C18   N1    A    
C3    C32   A    
C29   H8    S    
C13   C14   A    
C32   C33   A    
C8    C17   S    
C33   H10   S    
C11   C13   A    
C19   H14   S    
O6    Zn2   S    
C36   H15   S    
N2    Zn1   S    
C21   N2    A    
O5    Zn1   S    
C22   H3    S    
C15   H17   S    
C22   C24   S    
C4    O3    A    
C28   C29   A    
C24   H4    S    
C7    H2    S    
C33   C34   A    
C26   C30   A    
C3    C7    A    
C12   C31   A    
C5    C6    A    
C5    H12   S    
C31   C35   A    
C2    C5    A    
C25   C27   S    
C10   C11   A    
C11   H16   S    
N1    Zn2   S    
O1    Zn1   S    
C34   H1    S    
C15   H18   S    
O3    Zn1   S    
C18   C24   S    
C7    C27   A    
O2    Zn2   S    
C26   C29   A    
O8    Zn2   S    
C6    H6    S    
C13   C16   S    
C2    C36   A    
C15   C17   S    
C17   H19   S    
C14   C15   S    
C16   O6    A    
C12   C23   A    
C16   O5    A    
C8    C14   A    
C19   N1    A    
C20   H21   S    
C21   C22   S    
C10   H13   S    
C12   C30   A    
C25   O8    A    
C31   C32   A    
C1    C9    S    
C19   C20   A    
C8    C9    A    
O7    Zn1   S    
C35   C36   A    
C1    O1    A    
