data_mof_unit_34508.cif
_audit_creation_date              2012-12-10T20:28:40-0500
_audit_creation_method            fapswitch 2.2
_symmetry_space_group_name_H-M    P1
_symmetry_Int_Tables_number       1
_space_group_crystal_system       triclinic
_cell_length_a                    10.736167
_cell_length_b                    10.75043
_cell_length_c                    9.849565
_cell_angle_alpha                 89.490038
_cell_angle_beta                  89.491735
_cell_angle_gamma                 89.372519
_cell_volume                      1136.6641937

loop_
_atom_site_label
_atom_site_type_symbol
_atom_type_description
_atom_site_fract_x
_atom_site_fract_y
_atom_site_fract_z
_atom_type_partial_charge
C1    C     C_R   0.500126 0.260188 0.500438 0.930057
C2    C     C_R   0.060136 0.512071 0.631125 0.059745
C3    C     C_R   0.126130 0.530202 0.506888 -0.269839
C4    C     C_R   0.061224 0.543229 0.384216 0.475143
C5    C     C_R   0.935706 0.520025 0.382463 -0.287058
C6    C     C_R   0.873861 0.483634 0.501142 -0.194537
C7    C     C_R   0.567255 0.062204 0.600355 0.071180
C8    C     C_R   0.506649 0.128519 0.498147 -0.198438
C9    C     C_R   0.461618 0.067394 0.384396 -0.287287
C10   C     C_R   0.463824 0.938987 0.380083 0.439847
C11   C     C_R   0.510344 0.872176 0.492942 -0.247433
C12   C     C_R   0.260133 0.513714 0.501419 0.900108
C13   C     C_R   0.571010 0.934514 0.596304 0.015880
C14   C     C_3   0.554951 0.920937 0.745941 0.095545
C15   C     C_3   0.543795 0.062087 0.750286 0.080684
C16   C     C_R   0.396644 0.463999 0.072801 0.249616
C17   C     C_R   0.599388 0.542235 0.070592 -0.124169
C18   C     C_R   0.599583 0.541609 0.926721 -0.081565
C19   C     C_R   0.396851 0.463551 0.929909 0.180027
C20   C     C_3   0.341320 0.337120 0.927808 -0.503739
C21   C     C_3   0.338536 0.339157 0.081441 -0.478512
C22   C     C_R   0.500655 0.740108 0.498822 0.930138
C23   C     C_R   0.740075 0.489902 0.500003 0.918629
C24   C     C_R   0.109634 0.536109 0.761327 -0.118195
C25   C     C_R   0.050017 0.492715 0.878688 -0.195240
C26   C     C_R   0.941008 0.425475 0.868471 -0.127254
C27   C     C_R   0.885432 0.412709 0.742313 -0.104412
C28   C     C_R   0.938678 0.467638 0.624477 0.094311
H1    H     H_    0.447289 0.092753 0.775039 0.084493
H2    H     H_    0.680125 0.575349 0.123635 0.152266
H3    H     H_    0.680855 0.573151 0.871595 0.193264
H4    H     H_    0.247659 0.335538 0.881678 0.217155
H5    H     H_    0.407477 0.267188 0.886896 0.238344
H6    H     H_    0.242714 0.343627 0.124951 0.219726
H7    H     H_    0.400997 0.268030 0.127934 0.216231
H8    H     H_    0.192199 0.591053 0.774694 0.158216
H9    H     H_    0.090821 0.507196 0.977183 0.180716
H10   H     H_    0.897591 0.386311 0.958558 0.166586
H11   H     H_    0.801017 0.359585 0.737965 0.198497
H12   H     H_    0.886476 0.535233 0.288021 0.183565
H13   H     H_    0.416194 0.118277 0.303121 0.172828
H14   H     H_    0.466427 0.874134 0.773024 0.100100
N1    N     N_R   0.499160 0.499140 0.142800 -0.114422
N2    N     N_R   0.499160 0.499180 0.857150 -0.106787
O1    O     O_R   0.500020 0.316790 0.614690 -0.605236
O2    O     O_R   0.500000 0.316760 0.385350 -0.625757
O3    O     O_R   0.316770 0.500020 0.614690 -0.643318
O4    O     O_R   0.316760 0.499980 0.385350 -0.569608
O5    O     O_R   0.500000 0.683240 0.614650 -0.619829
O6    O     O_R   0.499980 0.683210 0.385310 -0.593561
O7    O     O_R   0.683240 0.500020 0.614650 -0.621030
O8    O     O_R   0.683230 0.499980 0.385310 -0.633995
Zn1   Zn    Zn3+2 0.500010 0.500020 0.653130 0.961343
Zn2   Zn    Zn3+2 0.499990 0.499980 0.346870 0.972713
O9    O     O_3   0.118434 0.582979 0.265496 -0.617085
C29   C     C_3   0.107132 0.714208 0.255330 0.075936
H15   H     H_    0.197469 0.755690 0.282496 0.219991
H16   H     H_    0.034129 0.756363 0.322945 0.134269
C30   C     C_3   0.075172 0.751035 0.110155 -0.800830
H17   H     H_    0.982880 0.713149 0.083135 0.260211
H18   H     H_    0.071579 0.853986 0.100333 0.235637
H19   H     H_    0.146561 0.714285 0.038601 0.241886
Br1   Br    Br    0.704046 0.845597 0.824569 -0.505961
Br2   Br    Br    0.670678 0.150032 0.850126 -0.516723
O10   O     O_3   0.398997 0.880657 0.278927 -0.634683
C31   C     C_3   0.473032 0.877718 0.160038 0.175293
H20   H     H_    0.564581 0.831221 0.179548 0.167313
H21   H     H_    0.489191 0.973183 0.119139 0.157654
C32   C     C_3   0.405069 0.803376 0.053965 -0.836503
H22   H     H_    0.329443 0.860700 0.008197 0.234036
H23   H     H_    0.470971 0.772943 0.973872 0.233933
H24   H     H_    0.364421 0.719070 0.101334 0.269892

loop_
_geom_bond_atom_site_label_1
_geom_bond_atom_site_label_2
_ccdc_geom_bond_type
C32   H24   S    
C31   H21   S    
C15   Br2   S    
C17   N1    A    
C24   C25   A    
C16   C21   S    
C21   H7    S    
C18   N2    A    
C9    H13   S    
C14   Br1   S    
C1    C8    S    
C9    C10   A    
C11   C22   S    
C23   O7    A    
C19   C20   S    
C29   C30   S    
C22   O6    A    
O3    Zn1   S    
O2    Zn2   S    
O9    C29   S    
C7    C15   S    
C17   C18   A    
C23   O8    A    
O1    Zn1   S    
C30   H17   S    
C25   C26   A    
O6    Zn2   S    
C14   H14   S    
C29   H15   S    
O4    Zn2   S    
C17   H2    S    
C11   C13   A    
C16   N1    A    
C1    O1    A    
C26   C27   A    
C24   H8    S    
C12   O3    A    
O5    Zn1   S    
C6    C23   S    
C18   H3    S    
C12   O4    A    
C29   H16   S    
C15   H1    S    
C2    C3    A    
C16   C19   A    
C4    O9    S    
C2    C24   A    
C32   H22   S    
C1    O2    A    
C30   H18   S    
C31   C32   S    
C7    C8    A    
C10   C11   A    
C20   H5    S    
C27   H11   S    
C3    C4    A    
C7    C13   A    
C31   H20   S    
C19   N2    A    
C32   H23   S    
O10   C31   S    
C20   H4    S    
C5    H12   S    
C22   O5    A    
C27   C28   A    
C5    C6    A    
C14   C15   S    
C26   H10   S    
C30   H19   S    
C2    C28   A    
C21   H6    S    
N1    Zn2   S    
C25   H9    S    
C20   C21   S    
C13   C14   S    
C4    C5    A    
C3    C12   S    
N2    Zn1   S    
C6    C28   A    
O8    Zn2   S    
C8    C9    A    
O7    Zn1   S    
C10   O10   S    
