data_mof_unit_7093.cif
_audit_creation_date              2012-12-10T16:49:24-0500
_audit_creation_method            fapswitch 2.2
_symmetry_space_group_name_H-M    P1
_symmetry_Int_Tables_number       1
_space_group_crystal_system       triclinic
_cell_length_a                    19.352062
_cell_length_b                    8.671418
_cell_length_c                    7.433282
_cell_angle_alpha                 103.022803
_cell_angle_beta                  94.317577
_cell_angle_gamma                 92.12769
_cell_volume                      1209.96703129

loop_
_atom_site_label
_atom_site_type_symbol
_atom_type_description
_atom_site_fract_x
_atom_site_fract_y
_atom_site_fract_z
_atom_type_partial_charge
C1    C     C_R   0.497587 0.199608 0.453204 0.865504
C2    C     C_R   0.501170 0.800316 0.546883 0.886433
C3    C     C_2   0.496204 0.031670 0.426789 -0.375299
C4    C     C_2   0.500418 0.968090 0.573321 -0.390916
C5    C     C_R   0.367666 0.499334 0.502067 0.820787
C6    C     C_R   0.632580 0.500353 0.497835 0.828168
C7    C     C_R   0.257223 0.445431 0.639079 0.456071
C8    C     C_R   0.741640 0.463272 0.330824 0.430813
C9    C     C_R   0.185509 0.456184 0.640383 -0.317785
C10   C     C_R   0.814135 0.473149 0.338300 -0.332452
C11   C     C_R   0.147181 0.514008 0.503669 -0.047588
C12   C     C_R   0.854771 0.514669 0.508566 -0.028952
C13   C     C_R   0.181888 0.566151 0.365940 0.440884
C14   C     C_R   0.822046 0.552505 0.674896 0.444710
C15   C     C_R   0.254145 0.559045 0.368198 -0.356531
C16   C     C_R   0.749394 0.547270 0.666782 -0.376746
C17   C     C_R   0.292089 0.501463 0.504793 -0.172760
C18   C     C_R   0.708739 0.503502 0.496586 -0.165190
C19   C     C_R   0.931049 0.516903 0.508878 0.442260
C20   C     C_R   0.071089 0.516605 0.505669 0.445049
Cu1   Cu    Cu3+1 0.507710 0.517380 0.684380 0.948027
Cu2   Cu    Cu3+1 0.492290 0.482620 0.315620 0.963093
H1    H     H_    0.159642 0.414806 0.746376 0.196023
H2    H     H_    0.838512 0.445077 0.209236 0.193616
H3    H     H_    0.281051 0.601707 0.264646 0.184126
H4    H     H_    0.724647 0.578830 0.795021 0.192199
H5    H     H_    0.492275 0.960073 0.285615 0.180886
H6    H     H_    0.504224 0.039699 0.714490 0.179979
H7    H     H_    0.445333 0.379470 0.948577 0.232387
H8    H     H_    0.554884 0.620263 0.051404 0.235263
N1    N     N_R   0.030425 0.522849 0.350950 -0.130646
N2    N     N_R   0.971674 0.509298 0.663242 -0.133894
N3    N     N_R   0.961822 0.523094 0.352461 -0.226301
N4    N     N_R   0.040316 0.509208 0.661783 -0.229322
N5    N     N_2   0.480680 0.456420 0.038530 -0.212911
N6    N     N_2   0.519320 0.543580 0.961470 -0.216333
O1    O     O_R   0.505010 0.286130 0.619770 -0.598320
O2    O     O_R   0.494990 0.713870 0.380230 -0.583783
O3    O     O_R   0.491990 0.256780 0.308370 -0.590313
O4    O     O_R   0.508010 0.743220 0.691630 -0.588977
O5    O     O_R   0.406650 0.514660 0.655750 -0.555238
O6    O     O_R   0.593350 0.485340 0.344250 -0.546790
O7    O     O_R   0.393640 0.485310 0.344340 -0.577736
O8    O     O_R   0.606360 0.514690 0.655660 -0.591745
O9    O     O_3   0.292637 0.382611 0.772380 -0.603361
C21   C     C_3   0.306470 0.222730 0.696048 0.065129
H9    H     H_    0.358122 0.200433 0.757763 0.156775
H10   H     H_    0.309789 0.194698 0.542757 0.111310
C22   C     C_3   0.252132 0.110245 0.746288 -0.348390
H11   H     H_    0.250041 0.137286 0.899186 0.233899
H12   H     H_    0.200248 0.127590 0.681448 0.224742
C23   C     C_3   0.269357 0.937424 0.679219 -0.874670
H13   H     H_    0.270788 0.907543 0.526223 0.257566
H14   H     H_    0.228982 0.858692 0.716719 0.267643
H15   H     H_    0.320467 0.915782 0.744931 0.250713
O10   O     O_3   0.703539 0.422091 0.160231 -0.600938
C24   C     C_3   0.702639 0.255842 0.094206 0.054738
H16   H     H_    0.672689 0.195902 0.183892 0.140336
H17   H     H_    0.756246 0.212875 0.091354 0.145087
C25   C     C_3   0.667849 0.211087 0.896638 -0.293798
H18   H     H_    0.613458 0.248032 0.896404 0.242296
H19   H     H_    0.696196 0.274317 0.807675 0.226778
C26   C     C_3   0.667963 0.032855 0.815751 -0.925830
H20   H     H_    0.721758 0.992490 0.819615 0.264157
H21   H     H_    0.646002 0.005397 0.669115 0.257159
H22   H     H_    0.636022 0.967191 0.895093 0.260336
O11   O     O_3   0.144968 0.627040 0.233752 -0.693426
H23   H     H_    0.177207 0.657014 0.148158 0.327902
O12   O     O_3   0.861477 0.597660 0.843021 -0.695449
H24   H     H_    0.830361 0.619243 0.944853 0.329548

loop_
_geom_bond_atom_site_label_1
_geom_bond_atom_site_label_2
_ccdc_geom_bond_type
C2    C4    S    
N1    N3    A    
C15   C17   A    
C1    O1    A    
C8    C18   A    
Cu1   O8    S    
C11   C13   A    
H7    N5    S    
C1    O3    A    
N5    N6    D    
C23   H15   S    
H8    N6    S    
C22   C23   S    
C20   N4    A    
C26   H21   S    
C8    O10   S    
C22   H12   S    
C3    H5    S    
C5    O7    A    
C26   H22   S    
Cu1   O1    S    
Cu1   N6    S    
C6    O8    A    
O9    C21   S    
C23   H13   S    
C10   H2    S    
Cu2   N5    S    
C9    C11   A    
C21   C22   S    
C24   H16   S    
Cu2   O6    S    
Cu1   O4    S    
C10   C12   A    
C25   C26   S    
Cu1   O5    S    
C19   N2    A    
C7    O9    S    
C12   C19   S    
C16   C18   A    
C4    H6    S    
C12   C14   A    
C23   H14   S    
Cu2   O7    S    
C21   H10   S    
C13   C15   A    
C16   H4    S    
O12   H24   S    
C6    C18   S    
C14   O12   S    
C14   C16   A    
C11   C20   S    
C24   H17   S    
C15   H3    S    
Cu2   O3    S    
C26   H20   S    
O11   H23   S    
Cu2   O2    S    
C2    O4    A    
C5    C17   S    
O10   C24   S    
C25   H19   S    
C22   H11   S    
C6    O6    A    
C7    C9    A    
C2    O2    A    
C21   H9    S    
C9    H1    S    
C24   C25   S    
C5    O5    A    
C1    C3    S    
Cu1   Cu2   S    
C8    C10   A    
C13   O11   S    
C3    C4    D    
C19   N3    A    
C25   H18   S    
C7    C17   A    
C20   N1    A    
N2    N4    A    
