data_mof_unit_25442.cif
_audit_creation_date              2012-12-11T17:17:00-0500
_audit_creation_method            fapswitch 2.2
_symmetry_space_group_name_H-M    P1
_symmetry_Int_Tables_number       1
_space_group_crystal_system       triclinic
_cell_length_a                    6.941451
_cell_length_b                    13.376665
_cell_length_c                    14.677198
_cell_angle_alpha                 98.883756
_cell_angle_beta                  89.889708
_cell_angle_gamma                 90.218762
_cell_volume                      1346.4687234

loop_
_atom_site_label
_atom_site_type_symbol
_atom_type_description
_atom_site_fract_x
_atom_site_fract_y
_atom_site_fract_z
_atom_type_partial_charge
O1    O     O_R   0.354890 0.151580 0.148210 -0.539868
O2    O     O_R   0.645110 0.848420 0.851790 -0.539868
O3    O     O_R   0.682370 0.152980 0.336770 -0.527332
O4    O     O_R   0.317630 0.847020 0.663230 -0.527331
O5    O     O_R   0.854980 0.348430 0.351800 -0.518011
O6    O     O_R   0.145020 0.651570 0.648200 -0.518011
C1    C     C_R   0.513572 0.131862 0.366705 0.747150
C2    C     C_R   0.486428 0.868138 0.633295 0.747150
O7    O     O_R   0.684450 0.139580 0.148000 -0.543123
O8    O     O_R   0.315550 0.860420 0.852000 -0.543123
O9    O     O_R   0.857080 0.334940 0.161680 -0.544631
O10   O     O_R   0.142920 0.665060 0.838320 -0.544631
C3    C     C_R   0.515498 0.112676 0.114024 0.714226
C4    C     C_R   0.484502 0.887324 0.885976 0.714227
O11   O     O_R   0.352790 0.165070 0.338330 -0.546367
O12   O     O_R   0.647210 0.834930 0.661670 -0.546367
O13   O     O_3   0.522170 0.314120 0.254710 -0.368797
O14   O     O_3   0.477830 0.685880 0.745290 -0.368796
V1    V     V_3+5 0.796120 0.238110 0.249130 1.460947
V2    V     V_3+5 0.203880 0.761890 0.750870 1.460947
O15   O     O_R   0.186930 0.347040 0.163240 -0.544718
O16   O     O_R   0.813070 0.652960 0.836760 -0.544717
C5    C     C_R   0.018204 0.368770 0.133578 0.665641
C6    C     C_R   0.981796 0.631230 0.866422 0.665640
O17   O     O_R   0.184850 0.360440 0.352010 -0.538861
O18   O     O_R   0.815150 0.639560 0.647990 -0.538860
C7    C     C_R   0.015859 0.387322 0.385994 0.770499
C8    C     C_R   0.984141 0.612678 0.614006 0.770499
V3    V     V_3+5 0.296410 0.261900 0.250880 1.438985
V4    V     V_3+5 0.703590 0.738100 0.749120 1.438985
O19   O     O_3   0.020490 0.185890 0.245290 -0.374155
O20   O     O_3   0.979510 0.814110 0.754710 -0.374155
C9    C     C_1   0.005182 0.466907 0.466346 -0.138170
C10   C     C_1   0.994818 0.533093 0.533654 -0.138170
C11   C     C_3   0.179211 0.527720 0.979869 -0.114434
C12   C     C_3   0.820789 0.472280 0.020130 -0.114434
C13   C     C_3   0.084748 0.548237 0.076658 -0.144062
C14   C     C_3   0.915252 0.451763 0.923342 -0.144062
H1    H     H_    0.154734 0.587608 0.140242 0.105288
H2    H     H_    0.845266 0.412392 0.859758 0.105288
H3    H     H_    0.327401 0.550664 0.963070 0.110029
H4    H     H_    0.672599 0.449336 0.036930 0.110029
C15   C     C_3   0.008213 0.438834 0.062710 -0.001919
C16   C     C_3   0.991787 0.561166 0.937289 -0.001920
C17   C     C_3   0.102590 0.417507 0.966710 -0.142749
C18   C     C_3   0.897410 0.582492 0.033290 -0.142749
H5    H     H_    0.187518 0.349132 0.939718 0.099384
H6    H     H_    0.812482 0.650868 0.060282 0.099384
C19   C     C_3   0.318887 0.026413 0.480801 -0.193259
C20   C     C_3   0.681113 0.973586 0.519199 -0.193259
C21   C     C_3   0.400181 0.917847 0.466521 0.063638
C22   C     C_3   0.599819 0.082153 0.533479 0.063638
H7    H     H_    0.169457 0.047503 0.464894 0.125482
H8    H     H_    0.830543 0.952497 0.535106 0.125482
C23   C     C_3   0.494989 0.937530 0.562246 -0.025200
C24   C     C_3   0.505011 0.062470 0.437754 -0.025199
C25   C     C_3   0.414957 0.046380 0.577696 -0.223166
C26   C     C_3   0.585042 0.953620 0.422304 -0.223166
H9    H     H_    0.345997 0.084784 0.641939 0.109225
H10   H     H_    0.654003 0.915215 0.358061 0.109225
C27   C     C_1   0.504897 0.033099 0.033663 -0.194879
C28   C     C_1   0.495103 0.966900 0.966337 -0.194879
C29   C     C_2   0.286624 0.826850 0.424753 0.311957
H11   H     H_    0.224149 0.824517 0.356785 0.035661
O21   O     O_2   0.263954 0.755343 0.466191 -0.534414
C30   C     C_2   0.713376 0.173149 0.575247 0.311957
H12   H     H_    0.775851 0.175483 0.643214 0.035661
O22   O     O_2   0.736046 0.244657 0.533809 -0.534414

loop_
_geom_bond_atom_site_label_1
_geom_bond_atom_site_label_2
_ccdc_geom_bond_type
C30   O22   D    
C29   O21   D    
O13   V3    S    
C12   H4    S    
O4    C2    A    
V1    O19   S    
C5    C15   S    
C7    C9    S    
O9    V1    S    
C20   H8    S    
C14   H2    S    
O3    C1    A    
C25   H9    S    
C26   H10   S    
C4    C28   S    
C19   C25   S    
O9    C5    A    
O7    C3    A    
C14   C17   S    
O5    C7    A    
O7    V1    S    
O6    C8    A    
O8    V2    S    
C19   C21   S    
C20   C22   S    
O3    V1    S    
O14   V4    S    
C21   C23   S    
C1    O11   A    
C30   H12   S    
C8    C10   S    
C2    O12   A    
C1    C24   S    
O2    C4    A    
C2    C23   S    
C16   C18   S    
O11   V3    S    
C17   H5    S    
O17   V3    S    
C18   H6    S    
C20   C26   S    
C21   C29   S    
O8    C4    A    
O15   V3    S    
C13   C15   S    
C14   C16   S    
O10   V2    S    
O1    V3    S    
C9    C10   T    
C21   C26   S    
C12   C18   S    
C11   C16   S    
C15   C17   S    
O18   V4    S    
C23   C25   S    
C6    C16   S    
O16   C6    A    
O1    C3    A    
C11   C17   S    
C22   C30   S    
V2    O20   S    
O16   V4    S    
C11   C13   S    
O5    V1    S    
O17   C7    A    
C19   C24   S    
O6    V2    S    
O10   C6    A    
O18   C8    A    
C20   C23   S    
O2    V4    S    
O15   C5    A    
C13   H1    S    
V4    O20   S    
C19   H7    S    
C12   C14   S    
O13   V1    S    
C24   C26   S    
O14   V2    S    
C27   C28   T    
C11   H3    S    
C22   C25   S    
C29   H11   S    
O4    V2    S    
C3    C27   S    
V3    O19   S    
C12   C15   S    
C13   C18   S    
O12   V4    S    
C22   C24   S    
