data_mof_unit_14484.cif
_audit_creation_date              2012-12-11T14:00:01-0500
_audit_creation_method            fapswitch 2.2
_symmetry_space_group_name_H-M    P1
_symmetry_Int_Tables_number       1
_space_group_crystal_system       triclinic
_cell_length_a                    11.272398
_cell_length_b                    11.277899
_cell_length_c                    18.93348
_cell_angle_alpha                 89.557017
_cell_angle_beta                  90.614485
_cell_angle_gamma                 120.280532
_cell_volume                      2078.47312545

loop_
_atom_site_label
_atom_site_type_symbol
_atom_type_description
_atom_site_fract_x
_atom_site_fract_y
_atom_site_fract_z
_atom_type_partial_charge
C1    C     C_R   0.543064 0.478100 0.852963 0.561944
C2    C     C_R   0.480305 0.548183 0.353528 0.533448
C3    C     C_R   0.138809 0.551225 0.358065 0.561981
C4    C     C_R   0.458015 0.940065 0.350712 0.505902
C5    C     C_2   0.993386 0.489695 0.577296 0.272770
C6    C     C_2   0.499659 0.522362 0.584438 0.263867
C7    C     C_2   0.484947 0.993416 0.578984 0.273450
C8    C     C_2   0.500022 0.013892 0.418670 0.254456
C9    C     C_2   0.510250 0.525740 0.426431 0.280290
C10   C     C_2   0.134845 0.551062 0.436230 0.234552
C11   C     C_2   0.093297 0.433847 0.474186 0.213677
C12   C     C_R   0.555254 0.141608 0.858128 0.605251
C13   C     C_2   0.581469 0.638885 0.469450 0.217693
C14   C     C_2   0.400530 0.016846 0.457425 0.221607
C15   C     C_2   0.391471 0.002902 0.535988 0.228338
C16   C     C_2   0.596202 0.629168 0.546040 0.219681
C17   C     C_2   0.059489 0.425917 0.550210 0.183734
C18   C     C_2   0.012753 0.508823 0.918761 0.305311
C19   C     C_2   0.494054 0.501391 0.919900 0.306076
C20   C     C_2   0.563735 0.121815 0.933173 0.331265
C21   C     C_2   0.497010 0.014809 0.082729 0.300780
C22   C     C_2   0.499948 0.492598 0.080087 0.307850
C23   C     C_R   0.936431 0.457506 0.852552 0.556356
C24   C     C_2   0.994464 0.500821 0.079199 0.299772
C25   C     C_2   0.036424 0.608483 0.034452 0.275895
C26   C     C_2   0.391946 0.420742 0.035824 0.289697
C27   C     C_2   0.547522 0.971622 0.031360 0.273778
C28   C     C_2   0.523294 0.994583 0.956969 0.278840
C29   C     C_2   0.417415 0.393887 0.963221 0.277152
C30   C     C_2   0.980852 0.582676 0.962446 0.276357
C31   C     C_3   0.962128 0.207663 0.419892 -0.298789
C32   C     C_3   0.783566 0.830933 0.412420 -0.285872
C33   C     C_3   0.159360 0.950236 0.420559 -0.281377
C34   C     C_R   0.477970 0.542650 0.147110 0.583219
C35   C     C_3   0.273511 0.125297 0.569249 -0.240936
C36   C     C_3   0.845494 0.775053 0.571235 -0.253287
C37   C     C_3   0.996964 0.196972 0.597478 -0.278370
C38   C     C_R   0.064834 0.521967 0.147001 0.589672
C39   C     C_R   0.458155 0.940181 0.149289 0.579099
C40   C     C_R   0.542377 0.483707 0.649982 0.532861
C41   C     C_R   0.517338 0.062029 0.648437 0.549155
C42   C     C_R   0.936690 0.456224 0.648334 0.582090
Cr1   Cr    Cr6+3 0.464030 0.233680 0.750360 1.036036
Cr2   Cr    Cr6+3 0.766320 0.230350 0.750360 1.021052
Cr3   Cr    Cr6+3 0.769650 0.535970 0.750360 1.047755
Cr4   Cr    Cr6+3 0.233680 0.464030 0.249640 1.058376
Cr5   Cr    Cr6+3 0.230350 0.766320 0.249640 1.033698
Cr6   Cr    Cr6+3 0.535970 0.769650 0.249640 1.044883
H1    H     H_    0.154167 0.287337 0.468964 0.290438
H2    H     H_    0.128476 0.895444 0.369329 0.169497
H3    H     H_    0.102364 0.006023 0.425594 0.110440
H4    H     H_    0.126957 0.873474 0.463616 0.210017
H5    H     H_    0.226729 0.929884 0.607581 0.266585
H6    H     H_    0.235276 0.135432 0.621394 0.135941
H7    H     H_    0.206448 0.128328 0.527475 0.158330
H8    H     H_    0.378768 0.213522 0.560995 0.224041
H9    H     H_    0.686170 0.778067 0.627468 0.253383
H10   H     H_    0.915682 0.886640 0.563249 0.110844
H11   H     H_    0.853162 0.718719 0.525484 0.198324
H12   H     H_    0.978548 0.145968 0.379955 0.133100
H13   H     H_    0.880793 0.745213 0.619475 0.201669
H14   H     H_    0.137625 0.387425 0.642396 0.254617
H15   H     H_    0.028987 0.141163 0.562343 0.111314
H16   H     H_    0.891522 0.172213 0.582004 0.191345
H17   H     H_    0.993239 0.158212 0.652026 0.138954
H18   H     H_    0.230814 0.748260 0.437596 0.329827
H19   H     H_    0.419184 0.330101 0.411676 0.319824
H20   H     H_    0.685714 0.053016 0.408335 0.313539
H21   H     H_    0.620949 0.939283 0.593927 0.320920
H22   H     H_    0.316798 0.371783 0.593237 0.325750
H23   H     H_    0.899283 0.247751 0.395438 0.185667
H24   H     H_    0.907509 0.506029 0.491731 0.317563
H25   H     H_    0.154127 0.801990 0.012672 0.336921
H26   H     H_    0.195747 0.326871 0.016738 0.350745
H27   H     H_    0.639968 0.874442 0.003407 0.354784
H28   H     H_    0.424198 0.798386 0.939091 0.362970
H29   H     H_    0.314499 0.197541 0.980934 0.351550
H30   H     H_    0.880184 0.676201 0.982594 0.349036
H31   H     H_    0.875796 0.305877 0.097609 0.336090
H32   H     H_    0.696085 0.577163 0.098219 0.326161
H33   H     H_    0.419785 0.127801 0.110617 0.326149
H34   H     H_    0.904458 0.139869 0.464336 0.142689
H35   H     H_    0.664706 0.318936 0.947959 0.337557
H36   H     H_    0.587836 0.698463 0.903671 0.337775
H37   H     H_    0.121383 0.422373 0.901010 0.327909
H38   H     H_    0.638801 0.846197 0.472082 0.329136
H39   H     H_    0.789565 0.883243 0.361586 0.160556
H40   H     H_    0.808476 0.748798 0.402677 0.147477
H41   H     H_    0.861650 0.908784 0.448226 0.105191
H42   H     H_    0.341573 0.108726 0.377106 0.246565
N1    N     N_2   0.093978 0.318968 0.443255 -0.489245
N2    N     N_2   0.647070 0.776269 0.441783 -0.483071
N3    N     N_2   0.306048 0.049040 0.422053 -0.515160
N4    N     N_2   0.272694 0.996976 0.565975 -0.528594
N5    N     N_2   0.706401 0.748179 0.579877 -0.540391
N6    N     N_2   0.094245 0.343869 0.594256 -0.519110
O1    O     O_R   0.434100 0.092480 0.829780 -0.452987
O2    O     O_R   0.362730 0.477510 0.175360 -0.462399
O3    O     O_R   0.114780 0.637270 0.175360 -0.458815
O4    O     O_R   0.522490 0.885220 0.175360 -0.457546
O5    O     O_R   0.432250 0.092620 0.670380 -0.534851
O6    O     O_R   0.907380 0.339630 0.670380 -0.550304
O7    O     O_R   0.660370 0.567750 0.670380 -0.530900
O8    O     O_R   0.092620 0.432250 0.329620 -0.513024
O9    O     O_R   0.339630 0.907380 0.329620 -0.564232
O10   O     O_R   0.567750 0.660370 0.329620 -0.517632
O11   O     O_R   0.475790 0.362860 0.676880 -0.534009
O12   O     O_R   0.907520 0.341620 0.829780 -0.537822
O13   O     O_R   0.637140 0.112930 0.676880 -0.508449
O14   O     O_R   0.887070 0.524210 0.676880 -0.482165
O15   O     O_R   0.362860 0.475790 0.323120 -0.527486
O16   O     O_R   0.112930 0.637140 0.323120 -0.528993
O17   O     O_R   0.524210 0.887070 0.323120 -0.511488
O18   O     O_3   0.666667 0.333333 0.749450 -0.297600
O19   O     O_3   0.333333 0.666667 0.250550 -0.286679
O20   O     O_3   0.182869 0.673134 0.471996 -0.701533
O21   O     O_3   0.469290 0.394958 0.450549 -0.715083
O22   O     O_3   0.631860 0.067752 0.444485 -0.712348
O23   O     O_R   0.658380 0.565900 0.829780 -0.496655
O24   O     O_3   0.557083 0.933146 0.555942 -0.707712
O25   O     O_3   0.368486 0.444363 0.558237 -0.699484
O26   O     O_3   0.947036 0.559347 0.535709 -0.709223
O27   O     O_3   0.135640 0.740209 0.053818 -0.686771
O28   O     O_3   0.258693 0.376760 0.056635 -0.673969
O29   O     O_3   0.598663 0.885714 0.046944 -0.677394
O30   O     O_3   0.458948 0.884191 0.911198 -0.701469
O31   O     O_3   0.365336 0.259809 0.941181 -0.701615
O32   O     O_3   0.890434 0.626173 0.942439 -0.680982
O33   O     O_3   0.895638 0.370424 0.057660 -0.665904
O34   O     O_R   0.092480 0.434100 0.170220 -0.490272
O35   O     O_3   0.631147 0.528700 0.058803 -0.690519
O36   O     O_3   0.444370 0.099428 0.066233 -0.692105
O37   O     O_3   0.639963 0.234880 0.975893 -0.644439
O38   O     O_3   0.536905 0.633483 0.942459 -0.709023
O39   O     O_3   0.107458 0.471727 0.940224 -0.704422
O40   O     O_R   0.341620 0.907520 0.170220 -0.492604
O41   O     O_R   0.565900 0.658380 0.170220 -0.498374
O42   O     O_R   0.477510 0.362730 0.824640 -0.493578
O43   O     O_R   0.637270 0.114780 0.824640 -0.488366
O44   O     O_R   0.885220 0.522490 0.824640 -0.465432

loop_
_geom_bond_atom_site_label_1
_geom_bond_atom_site_label_2
_ccdc_geom_bond_type
C3    O8    A    
H26   O28   S    
C5    C42   S    
C35   H8    S    
H14   N6    S    
Cr5   O40   S    
H28   O30   S    
C36   N5    S    
C4    C8    S    
C36   H11   S    
H30   O32   S    
C15   N4    S    
C8    O22   S    
C19   O38   S    
Cr5   O19   S    
H36   O38   S    
C31   H34   S    
H18   O20   S    
Cr6   O41   S    
C38   O34   A    
C36   H10   S    
Cr1   O18   S    
C22   O35   S    
C5    C17   D    
Cr5   O16   S    
H31   O33   S    
Cr5   O3    S    
Cr1   O42   S    
C1    O23   A    
C9    C13   D    
Cr3   O7    S    
H20   O22   S    
Cr3   O18   S    
Cr6   O10   S    
H25   O27   S    
C37   H17   S    
C24   C38   S    
C18   C30   D    
C20   O37   S    
C14   N3    S    
H29   O31   S    
Cr2   O13   S    
Cr3   O23   S    
C31   H23   S    
C21   C27   D    
Cr2   O18   S    
H32   O35   S    
C41   O13   A    
Cr4   O15   S    
C35   H6    S    
C26   O28   S    
H1    N1    S    
Cr6   O4    S    
C42   O6    A    
C37   H15   S    
C28   O30   S    
C39   O40   A    
Cr2   O12   S    
C22   C34   S    
C30   O32   S    
C2    O15   A    
C1    C19   S    
C35   H7    S    
C18   C23   S    
C4    O17   A    
C24   C25   D    
Cr2   O6    S    
Cr3   O14   S    
H33   O36   S    
C20   C28   D    
Cr5   O9    S    
C33   H2    S    
C32   H39   S    
Cr4   O8    S    
C5    O26   S    
C2    O10   A    
Cr3   O44   S    
C37   N6    S    
C33   H4    S    
C31   H12   S    
Cr1   O5    S    
C21   O36   S    
H19   O21   S    
C23   O44   A    
C32   H41   S    
C21   C39   S    
C3    O16   A    
C12   C20   S    
C24   O33   S    
C12   O43   A    
C18   O39   S    
C17   N6    S    
Cr1   O11   S    
C25   O27   S    
C12   O1    A    
H37   O39   S    
C40   O11   A    
Cr4   O19   S    
Cr2   O43   S    
C31   N1    S    
Cr6   O19   S    
C13   N2    S    
C22   C26   D    
C6    C40   S    
C36   H13   S    
C19   C29   D    
C37   H16   S    
C10   O20   S    
H42   N3    S    
C35   N4    S    
C25   C30   S    
C11   C17   S    
C16   N5    S    
C8    C14   D    
H21   O24   S    
H24   O26   S    
H5    N4    S    
C7    O24   S    
Cr1   O1    S    
C38   O3    A    
C33   N3    S    
Cr4   O34   S    
C33   H3    S    
C4    O9    A    
C34   O41   A    
C29   O31   S    
C42   O14   A    
C3    C10   S    
H38   N2    S    
C40   O7    A    
C27   O29   S    
H22   O25   S    
C39   O4    A    
C32   N2    S    
C23   O12   A    
C7    C15   D    
C34   O2    A    
C41   O5    A    
C7    C41   S    
Cr4   O2    S    
H35   O37   S    
C10   C11   D    
C1    O42   A    
C6    C16   D    
C11   N1    S    
C26   C29   S    
H9    N5    S    
C13   C16   S    
C27   C28   S    
C14   C15   S    
C6    O25   S    
H27   O29   S    
C2    C9    S    
C9    O21   S    
Cr6   O17   S    
C32   H40   S    
