data_mof_unit_33595.cif
_audit_creation_date              2013-03-05T15:56:01-0500
_audit_creation_method            fapswitch 2.2
_symmetry_space_group_name_H-M    P1
_symmetry_Int_Tables_number       1
_space_group_crystal_system       triclinic
_cell_length_a                    12.317266
_cell_length_b                    13.303249
_cell_length_c                    17.315163
_cell_angle_alpha                 105.476841
_cell_angle_beta                  74.478992
_cell_angle_gamma                 117.128755
_cell_volume                      2398.07710154

loop_
_atom_site_label
_atom_site_type_symbol
_atom_site_description
_atom_site_fract_x
_atom_site_fract_y
_atom_site_fract_z
_atom_type_partial_charge
O1    O     O_R   0.025490 0.682370 0.523640 -0.584355
O2    O     O_R   0.194150 0.640180 0.491890 -0.613174
C1    C     C_R   0.144747 0.713444 0.509487 0.783642
O3    O     O_R   0.905900 0.523560 0.631310 -0.548457
O4    O     O_R   0.074570 0.481370 0.599560 -0.598032
C2    C     C_R   0.986165 0.502126 0.652095 0.834865
Cu1   Cu    Cu3+1 0.900140 0.524980 0.518800 0.995433
Cu2   Cu    Cu3+1 0.099860 0.475020 0.481200 0.939340
O5    O     O_R   0.805850 0.359820 0.508110 -0.523692
O6    O     O_R   0.974510 0.317630 0.476360 -0.588651
O7    O     O_R   0.925430 0.518630 0.400440 -0.596358
O8    O     O_R   0.094100 0.476440 0.368690 -0.605150
C3    C     C_R   0.855458 0.286419 0.488053 0.836505
C4    C     C_R   0.012725 0.496442 0.347830 0.775932
C5    C     C_R   0.981189 0.508472 0.738462 -0.141533
C6    C     C_R   0.092867 0.547046 0.766289 -0.242720
C7    C     C_R   0.094052 0.562830 0.848519 -0.133016
C8    C     C_R   0.983331 0.540344 0.904268 0.119122
C9    C     C_R   0.871816 0.503974 0.877441 -0.221782
C10   C     C_R   0.868713 0.484709 0.794526 0.323969
C11   C     C_R   0.926031 0.491279 0.154968 -0.142080
C12   C     C_R   0.918409 0.487970 0.235666 -0.195410
C13   C     C_R   0.129504 0.504977 0.206671 -0.198826
C14   C     C_R   0.137467 0.509238 0.125819 -0.160950
C15   C     C_R   0.036807 0.504810 0.099870 0.183054
C16   C     C_2   0.980379 0.547929 0.990516 -0.203298
C17   C     C_2   0.048611 0.510863 0.014480 -0.216060
C18   C     C_R   0.020378 0.495938 0.262206 -0.020681
H1    H     H_    0.179995 0.567073 0.724587 0.166160
H2    H     H_    0.832331 0.478405 0.277137 0.143313
H3    H     H_    0.209213 0.510816 0.225950 0.149535
H4    H     H_    0.114424 0.482564 0.970023 0.157438
H5    H     H_    0.786128 0.484510 0.920810 0.166009
H6    H     H_    0.844391 0.481602 0.136131 0.124462
H7    H     H_    0.914020 0.576241 0.034000 0.146566
H8    H     H_    0.181614 0.593497 0.868517 0.143639
H9    H     H_    0.222833 0.517783 0.083770 0.133910
C19   C     C_R   0.726525 0.987860 0.372441 -0.189740
H10   H     H_    0.908937 0.122459 0.373551 0.151760
H11   H     H_    0.543799 0.793134 0.322360 0.139401
H12   H     H_    0.758088 0.933132 0.322324 0.137400
C20   C     C_R   0.773795 0.165483 0.467931 -0.073842
C21   C     C_R   0.182610 0.910224 0.578395 -0.279109
C22   C     C_R   0.256053 0.026570 0.591870 -0.167842
C23   C     C_R   0.377212 0.071566 0.550048 0.427666
C24   C     C_R   0.430182 0.995263 0.499049 -0.052309
C25   C     C_R   0.348601 0.879412 0.475926 0.038463
C26   C     C_R   0.559216 0.027747 0.469153 0.090967
C27   C     C_R   0.600082 0.954447 0.404631 0.164319
C28   C     C_R   0.514477 0.848604 0.373155 -0.231848
C29   C     C_R   0.390743 0.810771 0.408884 -0.166376
C30   C     C_R   0.649578 0.127591 0.504531 -0.131894
C31   C     C_R   0.812855 0.094233 0.402797 -0.195457
C32   C     C_R   0.226067 0.836186 0.519216 -0.089528
H13   H     H_    0.624840 0.178549 0.559915 0.227963
H14   H     H_    0.089668 0.878432 0.612962 0.173269
H15   H     H_    0.215919 0.082727 0.632951 0.192289
H16   H     H_    0.328429 0.728045 0.381800 0.165190
C33   C     C_R   0.637368 0.667232 0.634592 -0.284801
H17   H     H_    0.810225 0.681771 0.652069 0.129363
H18   H     H_    0.435560 0.702577 0.660215 0.152146
H19   H     H_    0.630252 0.729671 0.688374 0.148146
N1    N     N_R   0.749710 0.562810 0.547300 -0.192185
C34   C     C_R   0.252880 0.356639 0.386725 0.084077
C35   C     C_R   0.357041 0.332902 0.357887 -0.236994
C36   C     C_R   0.458672 0.391430 0.397970 -0.091426
C37   C     C_R   0.456229 0.473019 0.468964 0.038267
C38   C     C_R   0.348818 0.496964 0.494721 0.301733
C39   C     C_R   0.555145 0.530876 0.515699 -0.033890
C40   C     C_R   0.545016 0.612352 0.585947 0.155849
C41   C     C_R   0.442707 0.638610 0.607478 -0.269257
C42   C     C_R   0.347320 0.582719 0.562646 -0.181056
C43   C     C_R   0.663085 0.509962 0.497336 0.073680
C44   C     C_R   0.739124 0.640431 0.614388 0.098433
N2    N     N_R   0.249640 0.437820 0.453210 -0.207981
H20   H     H_    0.679612 0.451094 0.444382 0.148368
H21   H     H_    0.175095 0.311930 0.354610 0.123707
H22   H     H_    0.537598 0.371031 0.372241 0.148417
H23   H     H_    0.359396 0.269543 0.303925 0.145914
H24   H     H_    0.273830 0.609714 0.583766 0.198024
S1    S     S_3+6 0.440059 0.219894 0.546771 -0.037738
O9    O     O_2   0.531526 0.246129 0.469814 -0.345121
O10   O     O_2   0.337041 0.252252 0.548885 -0.308271
O11   O     O_3   0.508738 0.296133 0.628305 -0.494918
H25   H     H_    0.521128 0.375758 0.630601 0.387327
N3    N     N_R   0.750946 0.435354 0.768325 0.131289
O12   O     O_R   0.725942 0.349067 0.708696 -0.339343
O13   O     O_R   0.662016 0.463635 0.811975 -0.361168

loop_
_geom_bond_atom_site_label_1
_geom_bond_atom_site_label_2
_geom_bond_distance
_ccdc_geom_bond_type
C35   H23   1.082504 S    
C34   H21   1.081605 S    
C9    C10   1.397287 A    
C8    C16   1.461377 S    
S1    O9    1.500953 D    
Cu1   Cu2   2.705592 S    
C19   C27   1.403624 A    
C23   C24   1.432870 A    
C38   N2    1.385476 A    
Cu1   O7    1.973382 S    
C16   C17   1.339922 D    
C20   C31   1.398862 A    
O4    C2    1.303638 A    
C1    C32   1.466227 S    
N3    O13   1.301396 A    
C5    C6    1.402387 A    
C8    C9    1.397125 A    
O5    C3    1.302717 A    
C2    C5    1.461364 S    
C6    C7    1.385767 A    
C10   N3    1.437257 S    
C13   C14   1.391583 A    
C39   C43   1.417761 A    
C40   C41   1.389089 A    
C7    H8    1.082932 S    
C30   H13   1.075675 S    
Cu2   O8    1.973685 S    
H18   C41   1.084583 S    
C36   C37   1.409968 A    
C12   C18   1.400496 A    
C11   C12   1.386380 A    
O3    Cu1   1.973684 S    
C3    C20   1.460852 S    
S1    O10   1.503875 D    
C7    C8    1.399532 A    
C5    C10   1.416419 A    
C36   H22   1.077717 S    
C24   C26   1.425988 A    
C37   C38   1.429497 A    
O11   H25   0.990090 S    
C19   H12   1.083812 S    
O3    C2    1.300204 A    
C9    H5    1.084099 S    
N3    O12   1.301453 A    
C25   C29   1.412402 A    
C11   H6    1.081292 S    
N1    C43   1.366193 A    
C6    H1    1.082264 S    
Cu2   N2    2.027187 S    
C37   C39   1.439351 A    
C13   H3    1.083244 S    
C21   C22   1.382645 A    
C16   H7    1.084844 S    
C21   C32   1.398306 A    
C22   H15   1.083281 S    
C38   C42   1.405916 A    
C28   C29   1.385945 A    
C29   H16   1.080302 S    
C13   C18   1.402998 A    
C14   C15   1.400004 A    
C33   C44   1.388069 A    
Cu1   N1    2.039240 S    
C25   C32   1.415466 A    
C26   C27   1.420438 A    
O8    C4    1.301602 A    
C35   C36   1.393798 A    
C43   H20   1.075970 S    
S1    O11   1.682226 S    
C22   C23   1.395743 A    
C14   H9    1.083554 S    
Cu1   O5    1.944597 S    
C11   C15   1.405455 A    
C24   C25   1.420889 A    
C33   H19   1.083858 S    
C12   H2    1.083626 S    
C17   H4    1.086789 S    
O1    Cu1   1.949930 S    
O2    Cu2   1.944596 S    
O6    C3    1.301691 A    
O4    Cu2   1.973382 S    
N1    C44   1.354335 A    
C15   C17   1.466811 S    
C4    C18   1.458596 S    
C34   C35   1.391957 A    
O2    C1    1.302386 A    
C41   C42   1.385356 A    
C42   H24   1.063616 S    
H10   C31   1.083288 S    
C19   C31   1.392601 A    
H11   C28   1.084071 S    
H17   C44   1.081750 S    
O7    C4    1.301855 A    
C34   N2    1.358077 A    
C23   S1    1.771811 S    
C39   C40   1.417176 A    
C33   C40   1.401287 A    
C21   H14   1.083736 S    
C26   C30   1.400252 A    
Cu2   O6    1.949931 S    
C27   C28   1.391206 A    
O1    C1    1.302426 A    
C20   C30   1.394588 A    
