data_mof_unit_41909.cif
_audit_creation_date              2012-10-26T21:15:25-0400
_audit_creation_method            fapswitch 2.2
_symmetry_space_group_name_H-M    P1
_symmetry_Int_Tables_number       1
_space_group_crystal_system       triclinic
_cell_length_a                    10.680916
_cell_length_b                    10.926747
_cell_length_c                    9.740968
_cell_angle_alpha                 90.272043
_cell_angle_beta                  89.756178
_cell_angle_gamma                 90.849511
_cell_volume                      1136.69792226

loop_
_atom_site_label
_atom_site_type_symbol
_atom_type_description
_atom_site_fract_x
_atom_site_fract_y
_atom_site_fract_z
_atom_type_partial_charge
C1    C     C_R   0.504062 0.265762 0.499828 0.543656
C2    C     C_2   0.441831 0.418024 0.077103 0.250856
C3    C     C_R   0.259652 0.498308 0.500055 0.551522
C4    C     C_R   0.495022 0.734262 0.500393 0.543725
C5    C     C_R   0.740054 0.502041 0.500009 0.578646
C6    C     C_3   0.037144 0.415203 0.587175 0.099669
C7    C     C_3   0.954379 0.391847 0.462015 0.069469
C8    C     C_3   0.875987 0.502968 0.500423 0.046661
C9    C     C_3   0.959654 0.527022 0.626334 0.290839
C10   C     C_3   0.044839 0.612320 0.538793 -0.172558
C11   C     C_3   0.003947 0.570993 0.853705 0.000028
C12   C     C_3   0.960104 0.587541 0.411032 -0.161361
C13   C     C_3   0.953264 0.641142 0.976689 -0.382419
C14   C     C_3   0.293684 0.883877 0.624489 -0.008905
C15   C     C_3   0.229149 0.960162 0.734108 -0.372772
C16   C     C_3   0.038929 0.474592 0.374904 0.089722
C17   C     C_3   0.123186 0.498392 0.499943 0.023840
C18   C     C_2   0.511620 0.932930 0.393410 -0.139810
C19   C     C_2   0.475640 0.865653 0.502395 0.252692
C20   C     C_2   0.500761 0.066061 0.389364 -0.147177
C21   C     C_2   0.518254 0.134646 0.501701 -0.078733
C22   C     C_2   0.422705 0.434706 0.924774 0.180643
Cu1   Cu    Cu3+1 0.500030 0.500020 0.638630 0.964945
Cu2   Cu    Cu3+1 0.499970 0.499980 0.361370 0.963842
H1    H     H_    0.546769 0.094806 0.598190 0.173369
H2    H     H_    0.251255 0.442353 0.839442 0.263728
H3    H     H_    0.338407 0.320022 0.785594 0.285818
H4    H     H_    0.426282 0.235035 0.092273 0.202487
H5    H     H_    0.292157 0.309856 0.121220 0.232879
H6    H     H_    0.999456 0.276011 0.718906 0.252676
H7    H     H_    0.128416 0.256949 0.622405 0.222323
H8    H     H_    0.086459 0.623187 0.813114 0.121149
H9    H     H_    0.034169 0.479689 0.889327 0.167638
H10   H     H_    0.873059 0.590178 0.023209 0.155678
H11   H     H_    0.027846 0.653188 0.054888 0.123280
H12   H     H_    0.577825 0.534023 0.893063 0.201099
H13   H     H_    0.921527 0.732805 0.943987 0.156414
H14   H     H_    0.003340 0.438069 0.174663 0.218341
H15   H     H_    0.117415 0.355300 0.242581 0.225961
H16   H     H_    0.283853 0.785842 0.653438 0.146505
H17   H     H_    0.245259 0.899474 0.524969 0.118613
H18   H     H_    0.237044 0.058849 0.708105 0.158821
H19   H     H_    0.128543 0.933530 0.740510 0.096991
H20   H     H_    0.273322 0.944799 0.835474 0.162141
H21   H     H_    0.528874 0.577822 0.105844 0.174873
H22   H     H_    0.082680 0.702969 0.571002 0.087656
H23   H     H_    0.926630 0.656764 0.337209 0.119573
H24   H     H_    0.547066 0.888867 0.301182 0.107907
H25   H     H_    0.482195 0.107806 0.290875 0.146289
H26   H     H_    0.978687 0.216535 0.398278 0.221091
H27   H     H_    0.854580 0.285341 0.329119 0.237638
N1    N     N_2   0.498620 0.498660 0.846910 -0.345280
N2    N     N_2   0.498590 0.498630 0.153040 -0.322434
N3    N     N_3   0.903164 0.273019 0.420792 -0.634521
N4    N     N_3   0.314083 0.375300 0.868505 -0.626099
N5    N     N_3   0.388107 0.311620 0.140557 -0.539993
N6    N     N_3   0.079190 0.320931 0.680655 -0.649214
N7    N     N_3   0.082257 0.443740 0.237469 -0.607926
O1    O     O_R   0.500020 0.321960 0.617040 -0.513351
O2    O     O_3   0.421273 0.919104 0.617238 -0.571415
O3    O     O_R   0.499980 0.321920 0.382900 -0.458369
O4    O     O_R   0.316870 0.499990 0.617050 -0.525334
O5    O     O_R   0.316830 0.499950 0.382910 -0.453875
O6    O     O_R   0.500020 0.678080 0.617100 -0.475368
O7    O     O_R   0.499980 0.678040 0.382960 -0.539261
O8    O     O_R   0.683170 0.500050 0.617090 -0.452397
O9    O     O_R   0.683130 0.500010 0.382950 -0.514634
O10   O     O_3   0.907992 0.556594 0.755705 -0.538488

loop_
_geom_bond_atom_site_label_1
_geom_bond_atom_site_label_2
_ccdc_geom_bond_type
C2    C22   S    
C5    C8    S    
Cu1   Cu2   S    
C1    C21   S    
C6    C7    S    
H5    N5    S    
C3    O5    A    
C19   O2    S    
C4    C19   S    
C20   H25   S    
C14   O2    S    
C9    C10   S    
C4    O6    A    
C13   H13   S    
H12   N1    S    
C8    C12   S    
C5    O9    A    
H27   N3    S    
H2    N4    S    
H7    N6    S    
C6    C9    S    
C1    O1    A    
C11   H8    S    
H4    N5    S    
C9    O10   S    
H21   N2    S    
C13   H10   S    
H26   N3    S    
C11   O10   S    
Cu1   O1    S    
C11   C13   S    
C6    N6    S    
Cu1   N1    S    
C22   N4    S    
C10   C12   S    
Cu2   O7    S    
C2    N5    S    
C12   H23   S    
Cu1   O8    S    
Cu1   O6    S    
C15   H20   S    
C3    C17   S    
Cu2   O5    S    
C18   C20   S    
C14   H17   S    
Cu2   O3    S    
C4    O7    A    
H3    N4    S    
C10   C17   S    
C15   H19   S    
H6    N6    S    
C10   H22   S    
C7    C8    S    
C20   C21   D    
C8    C9    S    
C22   N1    D    
C18   C19   D    
C3    O4    A    
C11   H9    S    
C6    C17   S    
C21   H1    S    
C14   C15   S    
C16   C17   S    
C16   N7    S    
Cu1   O4    S    
C7    N3    S    
Cu2   N2    S    
H14   N7    S    
H15   N7    S    
C14   H16   S    
C13   H11   S    
C7    C16   S    
C12   C16   S    
C15   H18   S    
C18   H24   S    
C5    O8    A    
Cu2   O9    S    
C2    N2    D    
C1    O3    A    
