data_mof_unit_42858.cif
_audit_creation_date              2012-12-10T17:11:59-0500
_audit_creation_method            fapswitch 2.2
_symmetry_space_group_name_H-M    P1
_symmetry_Int_Tables_number       1
_space_group_crystal_system       triclinic
_cell_length_a                    11.782931
_cell_length_b                    12.995565
_cell_length_c                    15.867847
_cell_angle_alpha                 94.348275
_cell_angle_beta                  75.128635
_cell_angle_gamma                 100.880366
_cell_volume                      2305.21549672

loop_
_atom_site_label
_atom_site_type_symbol
_atom_type_description
_atom_site_fract_x
_atom_site_fract_y
_atom_site_fract_z
_atom_type_partial_charge
C1    C     C_R   0.521634 0.700927 0.501086 0.798827
C2    C     C_R   0.478367 0.299075 0.498938 0.808333
C3    C     C_R   0.348348 0.474471 0.085432 0.583260
C4    C     C_R   0.619754 0.426928 0.917406 0.586922
C5    C     C_R   0.269043 0.475407 0.034448 -0.275417
C6    C     C_R   0.698296 0.422111 0.968331 -0.286151
C7    C     C_R   0.465154 0.185230 0.500337 -0.046025
C8    C     C_R   0.534871 0.814781 0.499755 -0.047350
C9    C     C_R   0.659460 0.985848 0.474581 -0.206304
C10   C     C_R   0.340585 0.014176 0.525617 -0.208661
C11   C     C_R   0.648262 0.877780 0.479436 -0.192675
C12   C     C_R   0.351778 0.122239 0.520787 -0.189003
C13   C     C_R   0.432448 0.860582 0.515588 -0.258151
C14   C     C_R   0.567590 0.139437 0.484489 -0.249713
C15   C     C_R   0.442805 0.968452 0.510441 0.172275
C16   C     C_R   0.557242 0.031570 0.489690 0.172924
C17   C     C_R   0.933792 0.570743 0.601490 0.089995
C18   C     C_R   0.065558 0.428577 0.399144 0.077119
C19   C     C_R   0.821605 0.577590 0.584525 0.340117
C20   C     C_R   0.178067 0.422066 0.415792 0.342688
C21   C     C_R   0.860815 0.466705 0.458725 -0.024623
C22   C     C_R   0.138659 0.532154 0.542127 -0.031394
C23   C     C_R   0.428230 0.495483 0.667657 0.796119
C24   C     C_R   0.571673 0.503219 0.332249 0.789440
C25   C     C_R   0.981561 0.474004 0.463948 -0.035797
C26   C     C_R   0.018001 0.525322 0.536745 -0.032418
C27   C     C_R   0.385931 0.489485 0.762854 -0.084882
C28   C     C_R   0.611185 0.493068 0.236798 -0.087184
C29   C     C_R   0.227042 0.483027 0.894586 -0.164871
C30   C     C_R   0.750571 0.442442 0.106845 -0.163775
C31   C     C_R   0.265489 0.487860 0.804304 -0.185105
C32   C     C_R   0.720739 0.462984 0.196458 -0.189024
C33   C     C_R   0.466882 0.483908 0.812572 -0.152434
C34   C     C_R   0.533085 0.504133 0.186397 -0.170165
C35   C     C_R   0.428617 0.470999 0.903198 0.102106
C36   C     C_R   0.555759 0.473941 0.097381 0.100490
C37   C     C_R   0.307973 0.476368 0.944242 0.063323
C38   C     C_R   0.668831 0.446999 0.057179 0.065163
C39   C     C_R   0.507724 0.457883 0.954525 -0.129365
C40   C     C_R   0.470661 0.470994 0.047005 -0.121792
Cu1   Cu    Cu3+1 0.386820 0.492450 0.493500 0.934874
Cu2   Cu    Cu3+1 0.613180 0.507550 0.506500 0.938196
H1    H     H_    0.176187 0.476772 0.066115 0.158565
H2    H     H_    0.782705 0.397403 0.937890 0.165348
H3    H     H_    0.456528 0.538808 0.218212 0.218341
H4    H     H_    0.560219 0.494242 0.779851 0.207792
H5    H     H_    0.782112 0.453304 0.234355 0.151701
H6    H     H_    0.201576 0.492560 0.767169 0.155411
H7    H     H_    0.134065 0.485013 0.925658 0.128913
H8    H     H_    0.836285 0.420051 0.076724 0.128405
H9    H     H_    0.655597 0.187695 0.468377 0.148780
H10   H     H_    0.344439 0.812325 0.531654 0.148583
H11   H     H_    0.271987 0.156650 0.535037 0.158556
H12   H     H_    0.728064 0.843368 0.465311 0.156483
H13   H     H_    0.747740 0.033443 0.458333 0.136791
H14   H     H_    0.252305 0.966588 0.541918 0.136436
H15   H     H_    0.171726 0.576466 0.593667 0.149336
H16   H     H_    0.827216 0.421008 0.407966 0.146219
N1    N     N_R   0.216750 0.481110 0.483710 -0.211198
N2    N     N_R   0.783250 0.518890 0.516290 -0.209498
O1    O     O_R   0.419950 0.645670 0.495380 -0.580602
O2    O     O_R   0.580050 0.354330 0.504620 -0.574786
O3    O     O_R   0.611110 0.658410 0.506370 -0.598082
O4    O     O_R   0.388890 0.341590 0.493630 -0.597742
O5    O     O_R   0.350820 0.490050 0.621260 -0.585876
O6    O     O_R   0.649180 0.509950 0.378740 -0.586263
O7    O     O_R   0.541970 0.502800 0.632250 -0.600513
O8    O     O_R   0.458030 0.497200 0.367750 -0.597629
C41   C     C_3   0.246645 0.340511 0.362456 -0.351118
C42   C     C_3   0.179319 0.229016 0.383510 -0.913522
H17   H     H_    0.155879 0.217947 0.454952 0.259801
H18   H     H_    0.096020 0.212449 0.360861 0.247641
H19   H     H_    0.236385 0.171409 0.350804 0.257447
H20   H     H_    0.267726 0.353443 0.291872 0.239243
H21   H     H_    0.334424 0.343010 0.372030 0.257330
C43   C     C_3   0.751498 0.657013 0.639787 -0.366559
C44   C     C_3   0.817811 0.769592 0.622120 -0.898345
H22   H     H_    0.902264 0.785175 0.643175 0.246757
H23   H     H_    0.839161 0.784374 0.551341 0.256860
H24   H     H_    0.760681 0.825674 0.657986 0.255113
H25   H     H_    0.664732 0.655935 0.628799 0.259886
H26   H     H_    0.729174 0.639996 0.710076 0.170371
C45   C     C_3   0.962386 0.607316 0.689287 -0.433003
C46   C     C_3   0.962328 0.513841 0.742295 -0.814334
H27   H     H_    0.872479 0.464083 0.757085 0.303191
H28   H     H_    0.028023 0.465099 0.706434 0.246355
H29   H     H_    0.984918 0.542191 0.804806 0.229488
H30   H     H_    0.048656 0.662217 0.679551 0.184220
H31   H     H_    0.899026 0.652815 0.731945 0.220247
C47   C     C_3   0.035366 0.390292 0.312188 -0.395396
C48   C     C_3   0.028126 0.482115 0.259856 -0.776728
H32   H     H_    0.956395 0.525293 0.294652 0.231035
H33   H     H_    0.113769 0.538242 0.247215 0.297242
H34   H     H_    0.009476 0.452173 0.196502 0.224176
H35   H     H_    0.100416 0.347174 0.268625 0.247558
H36   H     H_    0.950942 0.332687 0.323389 0.169201
F1    F     F_    0.299750 0.466726 0.171995 -0.740151
F2    F     F_    0.649803 0.389121 0.834160 -0.697368

loop_
_geom_bond_atom_site_label_1
_geom_bond_atom_site_label_2
_ccdc_geom_bond_type
C8    C13   A    
C4    F2    S    
C1    C8    S    
Cu1   Cu2   S    
C2    C7    S    
C46   H29   S    
Cu1   O1    S    
C22   H15   S    
C47   H35   S    
C29   H7    S    
C44   H22   S    
C27   C33   A    
C17   C26   A    
C19   C43   S    
C35   C37   A    
C9    C16   A    
C46   H28   S    
C5    C37   A    
C10   C15   A    
C15   C16   A    
C30   C38   A    
C23   O7    A    
C17   C19   A    
C7    C14   A    
C14   H9    S    
C6    C38   A    
C42   H17   S    
C9    H13   S    
C23   C27   S    
C10   H14   S    
Cu2   O2    S    
C18   C20   A    
C12   H11   S    
C24   O6    A    
C45   H30   S    
C5    H1    S    
C28   C34   A    
C22   N1    A    
C6    H2    S    
C33   H4    S    
C18   C25   A    
C1    O3    A    
C2    O4    A    
Cu1   O8    S    
C44   H23   S    
C7    C12   A    
C45   H31   S    
C27   C31   A    
C18   C47   S    
C28   C32   A    
C43   C44   S    
Cu1   N1    S    
C21   N2    A    
C4    C6    A    
C43   H26   S    
C48   H32   S    
Cu1   O5    S    
C25   C26   A    
C17   C45   S    
C35   C39   A    
C48   H33   S    
C13   H10   S    
C3    F1    S    
C45   C46   S    
C4    C39   A    
C36   C40   A    
C42   H19   S    
C41   H20   S    
C34   H3    S    
C46   H27   S    
C20   N1    A    
C9    C11   A    
C11   H12   S    
C10   C12   A    
C3    C40   A    
C31   H6    S    
C13   C15   A    
Cu2   O7    S    
C32   H5    S    
C14   C16   A    
C20   C41   S    
Cu2   N2    S    
C39   C40   A    
C44   H24   S    
C21   C25   A    
C24   C28   S    
C3    C5    A    
C1    O1    A    
C43   H25   S    
C47   H36   S    
C19   N2    A    
C23   O5    A    
C36   C38   A    
C21   H16   S    
C29   C31   A    
C48   H34   S    
C30   C32   A    
C47   C48   S    
C8    C11   A    
C33   C35   A    
C41   H21   S    
C34   C36   A    
C30   H8    S    
C41   C42   S    
C24   O8    A    
C22   C26   A    
C29   C37   A    
Cu2   O6    S    
C42   H18   S    
Cu1   O4    S    
Cu2   O3    S    
C2    O2    A    
