data_mof_unit_59763.cif
_audit_creation_date              2012-12-10T16:54:04-0500
_audit_creation_method            fapswitch 2.2
_symmetry_space_group_name_H-M    P1
_symmetry_Int_Tables_number       1
_space_group_crystal_system       triclinic
_cell_length_a                    9.719577
_cell_length_b                    10.934334
_cell_length_c                    13.41141
_cell_angle_alpha                 90.630924
_cell_angle_beta                  71.560492
_cell_angle_gamma                 89.478208
_cell_volume                      1351.94582667

loop_
_atom_site_label
_atom_site_type_symbol
_atom_type_description
_atom_site_fract_x
_atom_site_fract_y
_atom_site_fract_z
_atom_type_partial_charge
C1    C     C_R   0.499846 0.734576 0.499281 0.852461
C2    C     C_R   0.436008 0.470057 0.980761 0.043512
C3    C     C_R   0.469008 0.439279 0.872288 0.035538
C4    C     C_R   0.545781 0.461490 0.029565 0.084510
C5    C     C_R   0.681652 0.407824 0.974173 0.120381
C6    C     C_R   0.705082 0.360070 0.873263 -0.250221
C7    C     C_R   0.597427 0.368080 0.824501 0.173760
C8    C     C_R   0.523503 0.504212 0.132774 -0.230429
C9    C     C_R   0.760100 0.429936 0.128559 -0.197506
C10   C     C_R   0.369757 0.477614 0.818505 -0.132690
C11   C     C_2   0.613248 0.066038 0.500205 -0.159068
C12   C     C_R   0.420757 0.493168 0.701277 0.796720
C13   C     C_2   0.495144 0.133725 0.507000 -0.317584
C14   C     C_2   0.610273 0.932142 0.504727 -0.152199
C15   C     C_2   0.498967 0.866600 0.495138 -0.320761
C16   C     C_2   0.056393 0.588293 0.540054 0.251902
C17   C     C_2   0.911075 0.595025 0.522911 -0.077519
C18   C     C_R   0.499832 0.265486 0.501044 0.844298
C19   C     C_R   0.578693 0.498195 0.299385 0.799709
C20   C     C_R   0.788815 0.394427 0.023471 -0.202423
C21   C     C_R   0.625206 0.482061 0.184439 -0.054807
C22   C     C_R   0.224890 0.511080 0.880537 0.170726
C23   C     C_R   0.187937 0.516863 0.989703 -0.145446
C24   C     C_R   0.291883 0.501699 0.038662 -0.226386
Cu1   Cu    Cu3+1 0.361370 0.499980 0.499980 0.927714
Cu2   Cu    Cu3+1 0.638630 0.500020 0.500020 0.928437
H1    H     H_    0.704954 0.886639 0.514424 0.156563
H2    H     H_    0.405045 0.908058 0.481723 0.144565
H3    H     H_    0.128251 0.437843 0.452356 0.171814
H4    H     H_    0.853242 0.681992 0.537803 0.163673
H5    H     H_    0.897171 0.417538 0.496444 0.180712
H6    H     H_    0.804406 0.309132 0.834674 0.147337
H7    H     H_    0.892568 0.351723 0.982087 0.145519
H8    H     H_    0.254047 0.510517 0.123149 0.139651
H9    H     H_    0.078362 0.540269 0.038089 0.145969
H10   H     H_    0.716150 0.109554 0.492252 0.162670
N1    N     N_2   0.152660 0.501340 0.501130 -0.281814
N2    N     N_2   0.846520 0.501370 0.501160 -0.303125
O1    O     O_R   0.382960 0.678040 0.499980 -0.580888
O2    O     O_R   0.617100 0.678080 0.500020 -0.577647
O3    O     O_R   0.325800 0.499940 0.650950 -0.577680
O4    O     O_R   0.559930 0.499980 0.650990 -0.554519
O5    O     O_R   0.382900 0.321920 0.499980 -0.580216
O6    O     O_R   0.617040 0.321960 0.500020 -0.587717
O7    O     O_R   0.440070 0.500020 0.349010 -0.576150
O8    O     O_R   0.674200 0.500060 0.349050 -0.570559
H11   H     H_    0.840631 0.411992 0.167057 0.151392
H12   H     H_    0.389695 0.093964 0.519318 0.146669
C25   C     C_3   0.084313 0.692807 0.604008 -0.791454
H13   H     H_    0.986282 0.711799 0.672575 0.191371
H14   H     H_    0.110018 0.776074 0.555261 0.209528
H15   H     H_    0.172139 0.672304 0.635975 0.274606
H16   H     H_    0.426133 0.553742 0.175922 0.146418
C26   C     C_3   0.107448 0.547919 0.835472 -0.848205
H17   H     H_    0.000663 0.561438 0.897031 0.223090
H18   H     H_    0.135916 0.637409 0.797921 0.228959
H19   H     H_    0.091695 0.476658 0.780710 0.254809
C27   C     C_3   0.612773 0.279232 0.734681 -0.788938
H20   H     H_    0.637468 0.186284 0.757643 0.208978
H21   H     H_    0.511202 0.270748 0.714507 0.212160
H22   H     H_    0.704025 0.306307 0.665207 0.249830

loop_
_geom_bond_atom_site_label_1
_geom_bond_atom_site_label_2
_ccdc_geom_bond_type
C8    H16   S    
C13   H12   S    
C6    H6    S    
C23   C24   A    
C19   O7    A    
C6    C7    A    
C1    C15   S    
C18   O6    A    
C14   H1    S    
C9    C20   A    
C2    C4    A    
H5    N2    S    
C16   N1    D    
C4    C8    A    
C25   H15   S    
C9    C21   A    
Cu1   O5    S    
C27   H22   S    
C2    C3    A    
Cu1   Cu2   S    
C19   O8    A    
Cu2   O6    S    
C22   C26   S    
C3    C10   A    
C18   O5    A    
C10   C22   A    
C17   H4    S    
C11   C13   D    
Cu2   O2    S    
C15   H2    S    
C12   O3    A    
C10   C12   S    
C13   C18   S    
C20   H7    S    
C11   H10   S    
C19   C21   S    
C9    H11   S    
C3    C7    A    
C17   N2    D    
C22   C23   A    
C2    C24   A    
C5    C6    A    
C23   H9    S    
C26   H18   S    
C16   C17   S    
Cu2   O8    S    
H3    N1    S    
Cu1   O7    S    
C16   C25   S    
Cu2   O4    S    
C25   H13   S    
Cu1   O3    S    
C11   C14   S    
C5    C20   A    
C1    O1    A    
C26   H17   S    
Cu2   N2    S    
C24   H8    S    
C12   O4    A    
C7    C27   S    
C1    O2    A    
Cu1   N1    S    
C27   H20   S    
C14   C15   D    
C27   H21   S    
Cu1   O1    S    
C4    C5    A    
C25   H14   S    
C26   H19   S    
C8    C21   A    
