data_mof_unit_65561.cif
_audit_creation_date              2012-12-10T20:01:40-0500
_audit_creation_method            fapswitch 2.2
_symmetry_space_group_name_H-M    P1
_symmetry_Int_Tables_number       1
_space_group_crystal_system       triclinic
_cell_length_a                    14.218658
_cell_length_b                    14.930163
_cell_length_c                    16.902367
_cell_angle_alpha                 89.010444
_cell_angle_beta                  91.840618
_cell_angle_gamma                 91.087761
_cell_volume                      3585.15479716

loop_
_atom_site_label
_atom_site_type_symbol
_atom_type_description
_atom_site_fract_x
_atom_site_fract_y
_atom_site_fract_z
_atom_type_partial_charge
C1    C     C_R   0.499210 0.327761 0.501554 0.975500
C2    C     C_R   0.500797 0.672119 0.500807 0.973781
C3    C     C_R   0.557493 0.192073 0.569222 0.024439
C4    C     C_R   0.455219 0.803574 0.573889 0.026540
C5    C     C_R   0.497233 0.231727 0.511723 -0.204637
C6    C     C_R   0.502783 0.767611 0.510617 -0.189483
C7    C     C_R   0.432229 0.180324 0.466927 0.012515
C8    C     C_R   0.553236 0.822214 0.458226 0.018585
C9    C     C_R   0.429019 0.087765 0.477528 0.444422
C10   C     C_R   0.555816 0.914507 0.468234 0.454496
C11   C     C_R   0.493904 0.047371 0.531752 -0.205878
C12   C     C_R   0.504481 0.951230 0.529992 -0.198760
C13   C     C_R   0.107229 0.475106 0.568646 0.351952
C14   C     C_R   0.895926 0.578004 0.480097 0.352909
C15   C     C_R   0.205454 0.468443 0.564759 0.497006
C16   C     C_R   0.797129 0.573880 0.473879 0.504169
C17   C     C_R   0.202773 0.528291 0.434355 -0.117875
C18   C     C_R   0.794517 0.424969 0.523337 -0.126296
C19   C     C_R   0.103673 0.524586 0.430716 0.368391
C20   C     C_R   0.893223 0.420778 0.520236 0.365754
C21   C     C_R   0.053386 0.499838 0.499760 -0.230145
C22   C     C_R   0.946658 0.499409 0.500261 -0.233494
C23   C     C_R   0.509896 0.499757 0.653115 0.934186
C24   C     C_R   0.490069 0.499662 0.347099 0.938066
C25   C     C_R   0.510122 0.494751 0.739000 -0.115595
C26   C     C_R   0.490258 0.502660 0.261524 -0.090049
C27   C     C_R   0.432326 0.525048 0.780157 0.105062
C28   C     C_R   0.563405 0.462082 0.221708 0.020067
C29   C     C_R   0.429142 0.510885 0.861621 -0.038948
C30   C     C_R   0.570530 0.476427 0.140141 -0.008442
C31   C     C_R   0.505724 0.470083 0.902172 0.234595
C32   C     C_R   0.501795 0.527368 0.099007 0.275416
C33   C     C_R   0.582646 0.439469 0.861561 0.460274
C34   C     C_R   0.429221 0.567564 0.138689 0.420070
C35   C     C_R   0.584635 0.452374 0.779607 -0.394630
C36   C     C_R   0.423490 0.554455 0.220351 -0.378721
C37   C     C_R   0.556733 0.099397 0.579343 0.395404
C38   C     C_R   0.455174 0.895846 0.583900 0.382381
H1    H     H_    0.240146 0.550667 0.382708 0.195404
H2    H     H_    0.754995 0.366051 0.541496 0.200571
H3    H     H_    0.643319 0.427791 0.747404 0.183592
H4    H     H_    0.368607 0.586515 0.252061 0.174436
N1    N     N_2   0.507385 0.461411 0.984701 -0.121553
N2    N     N_2   0.502066 0.535628 0.016349 -0.137689
N3    N     N_R   0.252470 0.499980 0.500000 -0.212444
N4    N     N_R   0.747530 0.500020 0.500000 -0.213804
O1    O     O_R   0.579480 0.369070 0.499990 -0.613003
O2    O     O_R   0.420520 0.630930 0.500010 -0.606573
O3    O     O_R   0.420520 0.369060 0.499990 -0.630867
O4    O     O_R   0.579480 0.630940 0.500010 -0.595117
O5    O     O_R   0.588340 0.499180 0.616130 -0.617451
O6    O     O_R   0.411660 0.500820 0.383870 -0.633689
O7    O     O_R   0.429390 0.499170 0.616130 -0.592383
O8    O     O_R   0.570610 0.500830 0.383870 -0.622324
Zn1   Zn    Zn3+2 0.606140 0.500010 0.500000 0.970166
Zn2   Zn    Zn3+2 0.393860 0.499990 0.500000 0.966972
N5    N     N_3   0.629135 0.405828 0.264394 -0.425802
H5    H     H_    0.625693 0.341835 0.240253 0.191431
H6    H     H_    0.697056 0.432452 0.258185 0.195061
N6    N     N_3   0.357395 0.571933 0.739491 -0.390522
H7    H     H_    0.294346 0.536667 0.748613 0.265314
H8    H     H_    0.352127 0.635003 0.764735 0.190963
O9    O     O_3   0.252406 0.427318 0.627154 -0.707066
H9    H     H_    0.304244 0.393923 0.604595 0.360664
O10   O     O_3   0.752054 0.645195 0.438671 -0.699742
H10   H     H_    0.698717 0.619756 0.406888 0.357503
O11   O     O_3   0.059929 0.545369 0.358803 -0.715635
H11   H     H_    0.994094 0.522797 0.358568 0.357473
O12   O     O_3   0.933420 0.338839 0.536818 -0.710966
H12   H     H_    0.998209 0.339126 0.517236 0.361522
N7    N     N_3   0.647524 0.441058 0.098294 -0.376749
H13   H     H_    0.710609 0.466707 0.122857 0.198065
H14   H     H_    0.646759 0.371335 0.104961 0.212312
N8    N     N_3   0.346899 0.536952 0.901981 -0.436762
H15   H     H_    0.363773 0.592460 0.936734 0.258127
H16   H     H_    0.324640 0.483839 0.938362 0.228485
O13   O     O_3   0.655191 0.398405 0.903641 -0.730431
H17   H     H_    0.703943 0.381173 0.866383 0.342208
O14   O     O_3   0.364335 0.618129 0.095982 -0.762329
H18   H     H_    0.317661 0.641146 0.132586 0.350389
O15   O     O_3   0.619935 0.062891 0.634416 -0.743585
H19   H     H_    0.608080 0.997810 0.640982 0.357285
O16   O     O_3   0.404766 0.928535 0.645619 -0.751065
H20   H     H_    0.414172 0.994027 0.649873 0.356215
N9    N     N_3   0.618549 0.246722 0.618468 -0.430869
H21   H     H_    0.601717 0.234766 0.677533 0.220709
H22   H     H_    0.687891 0.227087 0.611179 0.241339
N10   N     N_3   0.407772 0.745419 0.628777 -0.414160
H23   H     H_    0.336747 0.762390 0.628360 0.236648
H24   H     H_    0.436740 0.756717 0.685449 0.216448
N11   N     N_3   0.370967 0.222541 0.408927 -0.415658
H25   H     H_    0.301377 0.207130 0.423022 0.234604
H26   H     H_    0.383546 0.195642 0.353628 0.227788
N12   N     N_3   0.599416 0.783610 0.393073 -0.418990
H27   H     H_    0.570184 0.810430 0.340492 0.220640
H28   H     H_    0.670533 0.802714 0.396544 0.278059
O17   O     O_3   0.364489 0.039353 0.431511 -0.745275
H29   H     H_    0.358389 0.977311 0.452369 0.352132
O18   O     O_3   0.606241 0.966126 0.414859 -0.742947
H30   H     H_    0.615064 0.027909 0.434198 0.352046
O19   O     O_3   0.067086 0.453120 0.639966 -0.676006
H31   H     H_    0.003738 0.479182 0.641285 0.350636
O20   O     O_3   0.939473 0.659135 0.462491 -0.668236
H32   H     H_    0.004149 0.659961 0.485855 0.351461

loop_
_geom_bond_atom_site_label_1
_geom_bond_atom_site_label_2
_ccdc_geom_bond_type
C24   O6    A    
O19   H31   S    
C38   O16   S    
C3    N9    S    
C36   H4    S    
C30   N7    S    
N5    H5    S    
O13   H17   S    
C31   N1    S    
C1    C5    S    
C19   C21   A    
C17   N3    A    
C27   N6    S    
N5    H6    S    
C27   C29   A    
C24   O8    A    
O17   H29   S    
N6    H8    S    
C17   H1    S    
C11   C37   A    
C18   H2    S    
C2    O4    A    
C17   C19   A    
O16   H20   S    
N3    Zn2   S    
N4    Zn1   S    
C31   C33   A    
C19   O11   S    
O5    Zn1   S    
C28   N5    S    
C21   C22   S    
C37   O15   S    
C2    C6    S    
C18   N4    A    
C23   O7    A    
N9    H22   S    
N8    H15   S    
O11   H11   S    
C8    N12   S    
C4    C6    A    
C16   N4    A    
N11   H25   S    
C5    C7    A    
C1    O1    A    
C6    C8    A    
C29   N8    S    
C2    O2    A    
N9    H21   S    
O15   H19   S    
O9    H9    S    
N6    H7    S    
C32   C34   A    
N1    N2    D    
C34   O14   S    
N11   H26   S    
C23   O5    A    
O18   H30   S    
C7    N11   S    
C32   N2    S    
C13   C21   A    
N12   H27   S    
N12   H28   S    
C9    C11   A    
C10   C12   A    
C25   C35   A    
C26   C36   A    
N10   H24   S    
C13   C15   A    
C14   C16   A    
C20   O12   S    
N8    H16   S    
C13   O19   S    
O1    Zn1   S    
O7    Zn2   S    
O2    Zn2   S    
O8    Zn1   S    
C9    O17   S    
C24   C26   S    
C20   C22   A    
C3    C5    A    
C11   C12   S    
C4    N10   S    
C25   C27   A    
O3    Zn2   S    
C26   C28   A    
O4    Zn1   S    
C15   O9    S    
C14   C22   A    
C28   C30   A    
N7    H13   S    
C29   C31   A    
C30   C32   A    
C33   O13   S    
C14   O20   S    
C33   C35   A    
C34   C36   A    
C18   C20   A    
C23   C25   S    
C12   C38   A    
C10   O18   S    
C35   H3    S    
O12   H12   S    
O14   H18   S    
C7    C9    A    
N10   H23   S    
C3    C37   A    
C8    C10   A    
O10   H10   S    
N7    H14   S    
O20   H32   S    
C15   N3    A    
C16   O10   S    
C4    C38   A    
C1    O3    A    
O6    Zn2   S    
