data_mof_unit_9534.cif
_audit_creation_date              2012-10-26T20:13:04-0400
_audit_creation_method            fapswitch 2.2
_symmetry_space_group_name_H-M    P1
_symmetry_Int_Tables_number       1
_space_group_crystal_system       triclinic
_cell_length_a                    21.71896
_cell_length_b                    20.744906
_cell_length_c                    14.005398
_cell_angle_alpha                 90.013726
_cell_angle_beta                  90.059295
_cell_angle_gamma                 89.996909
_cell_volume                      6310.23751225

loop_
_atom_site_label
_atom_site_type_symbol
_atom_type_description
_atom_site_fract_x
_atom_site_fract_y
_atom_site_fract_z
_atom_type_partial_charge
C1    C     C_R   0.084654 0.414906 0.499891 0.549717
C2    C     C_R   0.169359 0.739484 0.460840 0.236751
C3    C     C_3   0.205033 0.081007 0.668590 -0.384951
C4    C     C_3   0.225417 0.841261 0.706939 0.011821
C5    C     C_3   0.164348 0.837272 0.760773 -0.250785
C6    C     C_3   0.130327 0.774330 0.740025 -0.378964
C7    C     C_3   0.672665 0.307336 0.335022 0.012889
C8    C     C_3   0.658937 0.375705 0.300119 -0.240334
C9    C     C_3   0.697978 0.426021 0.352181 -0.386939
C10   C     C_3   0.782305 0.145539 0.695590 0.011495
C11   C     C_3   0.845113 0.147272 0.744888 -0.248145
C12   C     C_3   0.877306 0.212111 0.731229 -0.380230
C13   C     C_R   0.235562 0.665007 0.549086 0.247768
C14   C     C_3   0.350528 0.712880 0.307088 0.018248
C15   C     C_3   0.333017 0.652433 0.250724 -0.254189
C16   C     C_3   0.263462 0.641246 0.249853 -0.387843
C17   C     C_3   0.779515 0.849999 0.300472 0.011727
C18   C     C_3   0.841692 0.847867 0.249527 -0.248999
C19   C     C_3   0.875106 0.784054 0.266459 -0.379082
C20   C     C_3   0.333039 0.310386 0.658695 0.012203
C21   C     C_3   0.347687 0.379489 0.689266 -0.242389
C22   C     C_3   0.305874 0.428462 0.639681 -0.384403
C23   C     C_3   0.213109 0.137143 0.313235 0.012972
C24   C     C_R   0.830795 0.260214 0.461394 0.228631
C25   C     C_3   0.149404 0.138796 0.266743 -0.245469
C26   C     C_3   0.119995 0.205575 0.273219 -0.383670
C27   C     C_3   0.674381 0.694712 0.668883 0.012651
C28   C     C_3   0.661209 0.626774 0.706004 -0.240602
C29   C     C_3   0.699795 0.575903 0.654428 -0.386433
C30   C     C_2   0.021326 0.618444 0.254485 0.606560
C31   C     C_2   0.021368 0.381564 0.745953 0.605808
C32   C     C_2   0.978980 0.381526 0.254273 0.606655
C33   C     C_2   0.978504 0.618421 0.745553 0.606564
C34   C     C_2   0.522091 0.118342 0.254591 0.606646
C35   C     C_R   0.232405 0.331722 0.441801 0.245254
C36   C     C_2   0.521561 0.881641 0.745822 0.606391
C37   C     C_2   0.477708 0.881730 0.253420 0.603066
C38   C     C_2   0.478456 0.118412 0.745296 0.607170
C39   C     C_R   0.831099 0.740052 0.536802 0.228796
C40   C     C_R   0.765442 0.665653 0.447130 0.245093
C41   C     C_R   0.170050 0.261058 0.542578 0.229917
C42   C     C_R   0.268110 0.830388 0.558902 0.237872
C43   C     C_R   0.668839 0.240109 0.463517 0.228103
C44   C     C_R   0.734526 0.165762 0.553239 0.244911
C45   C     C_R   0.915329 0.585021 0.499865 0.549734
C46   C     C_R   0.328303 0.762500 0.450796 0.233306
C47   C     C_R   0.733728 0.833318 0.445045 0.245035
C48   C     C_R   0.331837 0.240720 0.532955 0.228080
C49   C     C_R   0.264266 0.164287 0.450629 0.244128
C50   C     C_R   0.669144 0.760210 0.538564 0.227680
C51   C     C_R   0.812365 0.380142 0.549705 -0.147666
C52   C     C_R   0.122898 0.693193 0.459604 -0.115366
C53   C     C_R   0.188838 0.618745 0.545809 -0.143459
C54   C     C_R   0.876683 0.307096 0.458432 -0.110153
C55   C     C_R   0.186484 0.378561 0.446623 -0.144104
C56   C     C_R   0.915346 0.414946 0.500084 0.549897
C57   C     C_R   0.877073 0.693264 0.539703 -0.109347
C58   C     C_R   0.811686 0.619073 0.452148 -0.148629
C59   C     C_R   0.124190 0.307993 0.545139 -0.112351
C60   C     C_R   0.314202 0.877240 0.555388 -0.147750
C61   C     C_R   0.622874 0.193323 0.460573 -0.110013
C62   C     C_R   0.688287 0.119120 0.547995 -0.149533
C63   C     C_R   0.374886 0.809181 0.450737 -0.130899
C64   C     C_R   0.687639 0.880083 0.450248 -0.149028
C65   C     C_R   0.377903 0.194035 0.535958 -0.110011
C66   C     C_R   0.310707 0.117798 0.455860 -0.151561
C67   C     C_R   0.084607 0.585093 0.500144 0.551860
C68   C     C_R   0.623266 0.807095 0.541454 -0.110894
C69   C     C_R   0.867033 0.367026 0.501171 -0.047227
C70   C     C_R   0.132956 0.632956 0.501148 -0.047726
C71   C     C_R   0.132900 0.366831 0.498744 -0.050999
C72   C     C_R   0.866966 0.632861 0.498724 -0.045772
C73   C     C_R   0.367172 0.866611 0.501237 -0.049836
C74   C     C_R   0.633013 0.132899 0.501394 -0.045049
C75   C     C_R   0.632953 0.867002 0.498752 -0.046499
C76   C     C_R   0.366940 0.132727 0.498743 -0.042084
C77   C     C_R   0.012438 0.556005 0.106989 -0.146267
C78   C     C_R   0.584663 0.914954 0.499897 0.550638
C79   C     C_R   0.012561 0.444164 0.893168 -0.145609
C80   C     C_R   0.987457 0.444095 0.106883 -0.145701
C81   C     C_R   0.987337 0.555992 0.893053 -0.146207
C82   C     C_R   0.512975 0.056051 0.107005 -0.146433
C83   C     C_R   0.512771 0.944274 0.893151 -0.146036
C84   C     C_R   0.487100 0.944427 0.106605 -0.145706
C85   C     C_R   0.487564 0.056143 0.892956 -0.146064
C86   C     C_R   0.774950 0.273778 0.508855 0.078336
C87   C     C_R   0.225830 0.725267 0.505592 0.094140
C88   C     C_R   0.224823 0.273331 0.491590 0.078089
C89   C     C_R   0.415335 0.084991 0.499868 0.550946
C90   C     C_R   0.774657 0.725863 0.491294 0.078778
C91   C     C_R   0.275109 0.773387 0.505682 0.099765
C92   C     C_R   0.725292 0.225920 0.508970 0.079545
C93   C     C_R   0.725015 0.773735 0.491185 0.079306
C94   C     C_R   0.274432 0.225428 0.491371 0.081093
C95   C     C_R   0.010810 0.555944 0.207766 0.192625
C96   C     C_R   0.010878 0.444127 0.792394 0.192647
C97   C     C_R   0.989207 0.444084 0.207659 0.192054
C98   C     C_R   0.989047 0.555929 0.792259 0.191846
C99   C     C_R   0.511267 0.055909 0.207823 0.191357
C100  C     C_R   0.415315 0.914895 0.500130 0.551083
C101  C     C_R   0.511016 0.944170 0.792386 0.191934
C102  C     C_R   0.488758 0.944274 0.207377 0.194592
C103  C     C_R   0.489105 0.055982 0.792166 0.191662
C104  C     C_R   0.999916 0.500072 0.054252 -0.015555
C105  C     C_R   0.999932 0.500087 0.945795 -0.015776
C106  C     C_R   0.500099 0.000275 0.054142 -0.016310
C107  C     C_R   0.500175 0.000258 0.945712 -0.015469
C108  C     C_3   0.720627 0.346380 0.699961 0.011872
C109  C     C_3   0.658350 0.345764 0.750658 -0.249846
C110  C     C_3   0.621928 0.284523 0.728602 -0.380022
C111  C     C_R   0.584667 0.085030 0.500157 0.549719
C112  C     C_3   0.172941 0.799089 0.325059 0.009424
C113  C     C_3   0.172417 0.867875 0.285865 -0.247036
C114  C     C_3   0.222345 0.909591 0.331759 -0.389103
C115  C     C_3   0.287324 0.642353 0.687292 0.010097
C116  C     C_3   0.351523 0.642210 0.732115 -0.247744
C117  C     C_3   0.384320 0.706711 0.718480 -0.384011
C118  C     C_3   0.825202 0.194512 0.331281 0.012868
C119  C     C_3   0.838419 0.126560 0.294188 -0.239919
C120  C     C_3   0.800127 0.075650 0.346161 -0.386725
C121  C     C_3   0.274431 0.335973 0.293347 0.013491
C122  C     C_R   0.766285 0.333438 0.554844 0.245159
C123  C     C_3   0.335428 0.334294 0.239109 -0.250709
C124  C     C_3   0.374585 0.276189 0.267504 -0.379349
C125  C     C_3   0.826904 0.807433 0.665148 0.013018
C126  C     C_3   0.840789 0.875760 0.700125 -0.239811
C127  C     C_3   0.802164 0.926226 0.647665 -0.387154
C128  C     C_3   0.717651 0.649161 0.304137 0.011707
C129  C     C_3   0.654660 0.649526 0.255369 -0.248250
C130  C     C_3   0.619559 0.712025 0.274626 -0.381462
C131  C     C_3   0.177258 0.199469 0.676712 0.012376
C132  C     C_3   0.165888 0.132321 0.718126 -0.240786
Cu1   Cu    Cu3+1 0.000000 0.500000 0.596430 1.026804
Cu2   Cu    Cu3+1 0.000000 0.500000 0.403570 1.027529
Cu3   Cu    Cu3+1 0.500000 0.000000 0.596430 1.026604
Cu4   Cu    Cu3+1 0.500000 0.000000 0.403570 1.026202
H1    H     H_    0.023609 0.600453 0.070431 0.109927
H2    H     H_    0.078878 0.704571 0.427400 0.147445
H3    H     H_    0.922235 0.211567 0.769106 0.134626
H4    H     H_    0.848824 0.251743 0.760992 0.140518
H5    H     H_    0.401071 0.719884 0.300122 0.140221
H6    H     H_    0.326525 0.755165 0.274772 0.138928
H7    H     H_    0.349380 0.657599 0.175947 0.110417
H8    H     H_    0.356223 0.609794 0.282642 0.177706
H9    H     H_    0.245569 0.636092 0.323726 0.198861
H10   H     H_    0.252979 0.596324 0.209916 0.137735
H11   H     H_    0.239693 0.681989 0.214006 0.134479
H12   H     H_    0.756555 0.896219 0.281591 0.113964
H13   H     H_    0.196436 0.571394 0.576292 0.120477
H14   H     H_    0.750708 0.809276 0.273808 0.114407
H15   H     H_    0.834189 0.854212 0.171580 0.105601
H16   H     H_    0.871001 0.888265 0.275170 0.169680
H17   H     H_    0.885158 0.777408 0.343589 0.206695
H18   H     H_    0.919357 0.784077 0.226842 0.135410
H19   H     H_    0.846745 0.743050 0.240679 0.142088
H20   H     H_    0.362103 0.276983 0.701770 0.139094
H21   H     H_    0.283704 0.301003 0.674318 0.111629
H22   H     H_    0.341396 0.383746 0.767763 0.106710
H23   H     H_    0.396550 0.390653 0.672484 0.170253
H24   H     H_    0.920366 0.296072 0.425010 0.151130
H25   H     H_    0.313258 0.427422 0.561248 0.220975
H26   H     H_    0.316655 0.477668 0.666072 0.121063
H27   H     H_    0.256743 0.417846 0.655160 0.147727
H28   H     H_    0.232861 0.088313 0.301643 0.111308
H29   H     H_    0.243058 0.173332 0.277090 0.111850
H30   H     H_    0.153734 0.125106 0.190314 0.104147
H31   H     H_    0.118983 0.102993 0.302218 0.173980
H32   H     H_    0.114134 0.220226 0.348943 0.204777
H33   H     H_    0.073960 0.204551 0.238711 0.133160
H34   H     H_    0.148888 0.241776 0.235874 0.137235
H35   H     H_    0.192792 0.424158 0.410145 0.130481
H36   H     H_    0.648019 0.729716 0.713255 0.141309
H37   H     H_    0.724463 0.704116 0.677341 0.111169
H38   H     H_    0.671951 0.624919 0.783565 0.108609
H39   H     H_    0.611521 0.615560 0.696621 0.168407
H40   H     H_    0.687811 0.574409 0.577357 0.216918
H41   H     H_    0.690502 0.527689 0.685701 0.120356
H42   H     H_    0.749666 0.586646 0.662274 0.152632
H43   H     H_    0.985042 0.694818 0.323343 0.309977
H44   H     H_    0.985056 0.305160 0.677033 0.310182
H45   H     H_    0.015697 0.305119 0.322589 0.310644
H46   H     H_    0.921134 0.704675 0.571765 0.148003
H47   H     H_    0.014708 0.694671 0.676369 0.310281
H48   H     H_    0.486350 0.194453 0.324709 0.309655
H49   H     H_    0.485410 0.805433 0.676349 0.309749
H50   H     H_    0.513199 0.805225 0.323104 0.304249
H51   H     H_    0.514468 0.194594 0.675779 0.309707
H52   H     H_    0.804269 0.571976 0.420640 0.119795
H53   H     H_    0.081187 0.297734 0.581011 0.155271
H54   H     H_    0.308273 0.922305 0.593436 0.125180
H55   H     H_    0.578810 0.204744 0.428560 0.146263
H56   H     H_    0.695702 0.071929 0.579137 0.118053
H57   H     H_    0.023828 0.399763 0.929820 0.111369
H58   H     H_    0.417642 0.800144 0.413735 0.143364
H59   H     H_    0.694722 0.926813 0.417455 0.119725
H60   H     H_    0.422623 0.206139 0.565197 0.141273
H61   H     H_    0.302763 0.069820 0.427822 0.115205
H62   H     H_    0.579576 0.796098 0.574841 0.149196
H63   H     H_    0.745828 0.390580 0.722360 0.114865
H64   H     H_    0.747316 0.303277 0.723447 0.115631
H65   H     H_    0.666043 0.348833 0.828998 0.106007
H66   H     H_    0.631086 0.388553 0.728343 0.167782
H67   H     H_    0.611073 0.281668 0.651220 0.206616
H68   H     H_    0.976277 0.399655 0.070247 0.110744
H69   H     H_    0.577990 0.285109 0.769040 0.133571
H70   H     H_    0.648544 0.241126 0.749908 0.147792
H71   H     H_    0.138056 0.770316 0.285279 0.147879
H72   H     H_    0.219326 0.778047 0.311797 0.120513
H73   H     H_    0.180283 0.866199 0.207499 0.108119
H74   H     H_    0.126595 0.890097 0.298715 0.171538
H75   H     H_    0.213415 0.915454 0.409315 0.207710
H76   H     H_    0.222304 0.958074 0.298200 0.116474
H77   H     H_    0.268450 0.887447 0.321439 0.158391
H78   H     H_    0.265114 0.595354 0.703803 0.111844
H79   H     H_    0.976070 0.600424 0.929619 0.110599
H80   H     H_    0.259837 0.681737 0.720666 0.112768
H81   H     H_    0.347322 0.632229 0.809803 0.104578
H82   H     H_    0.379580 0.603151 0.699570 0.170832
H83   H     H_    0.390740 0.717196 0.641363 0.201365
H84   H     H_    0.430310 0.704743 0.753036 0.131545
H85   H     H_    0.357416 0.746296 0.751715 0.143961
H86   H     H_    0.851302 0.229533 0.286598 0.140900
H87   H     H_    0.775066 0.203760 0.323251 0.111115
H88   H     H_    0.827427 0.124582 0.216716 0.108658
H89   H     H_    0.888163 0.115484 0.303200 0.169240
H90   H     H_    0.524431 0.100438 0.070481 0.111175
H91   H     H_    0.812331 0.074310 0.423155 0.216976
H92   H     H_    0.809471 0.027418 0.314950 0.119177
H93   H     H_    0.750204 0.086228 0.338624 0.152509
H94   H     H_    0.246875 0.377311 0.266107 0.119245
H95   H     H_    0.249023 0.290433 0.278064 0.115636
H96   H     H_    0.325749 0.331829 0.161249 0.106131
H97   H     H_    0.361597 0.379327 0.253428 0.170910
H98   H     H_    0.387676 0.279114 0.344041 0.207610
H99   H     H_    0.417294 0.275491 0.224029 0.137330
H100  H     H_    0.348981 0.230639 0.254757 0.150292
H101  H     H_    0.524071 0.899902 0.929864 0.110641
H102  H     H_    0.853307 0.772832 0.710214 0.140009
H103  H     H_    0.776818 0.798541 0.674483 0.111045
H104  H     H_    0.830632 0.878731 0.777767 0.108051
H105  H     H_    0.890477 0.886480 0.689716 0.170263
H106  H     H_    0.813493 0.926521 0.570363 0.217305
H107  H     H_    0.812108 0.974784 0.677300 0.118818
H108  H     H_    0.752283 0.916043 0.656700 0.150865
H109  H     H_    0.741769 0.603897 0.283710 0.113631
H110  H     H_    0.744711 0.691049 0.277202 0.114988
H111  H     H_    0.661147 0.644057 0.177076 0.105517
H112  H     H_    0.475561 0.900155 0.069770 0.111886
H113  H     H_    0.627035 0.607941 0.281220 0.168726
H114  H     H_    0.610090 0.717452 0.352112 0.206065
H115  H     H_    0.574931 0.710999 0.235922 0.129339
H116  H     H_    0.646446 0.754235 0.249395 0.145913
H117  H     H_    0.150647 0.235059 0.719664 0.145003
H118  H     H_    0.227207 0.210169 0.683293 0.110829
H119  H     H_    0.177443 0.132803 0.795453 0.109410
H120  H     H_    0.116364 0.119746 0.710663 0.170219
H121  H     H_    0.192263 0.077136 0.592007 0.217900
H122  H     H_    0.197134 0.033489 0.702951 0.120654
H123  H     H_    0.476386 0.100601 0.929532 0.110250
H124  H     H_    0.254732 0.093121 0.674437 0.155363
H125  H     H_    0.248946 0.886599 0.728631 0.116555
H126  H     H_    0.254586 0.799489 0.728519 0.115174
H127  H     H_    0.173516 0.840508 0.838718 0.105441
H128  H     H_    0.134676 0.878681 0.740208 0.170565
H129  H     H_    0.118864 0.770620 0.662921 0.203894
H130  H     H_    0.086820 0.773047 0.781528 0.139909
H131  H     H_    0.158925 0.732315 0.761125 0.141504
H132  H     H_    0.645917 0.272835 0.290260 0.140469
H133  H     H_    0.722671 0.298181 0.325184 0.111011
H134  H     H_    0.805301 0.426793 0.582810 0.121686
H135  H     H_    0.668809 0.378573 0.222382 0.108115
H136  H     H_    0.609337 0.386671 0.310978 0.170028
H137  H     H_    0.686888 0.426477 0.429564 0.217160
H138  H     H_    0.688194 0.474602 0.322520 0.120279
H139  H     H_    0.747779 0.415543 0.342800 0.151003
H140  H     H_    0.760311 0.098446 0.712245 0.113023
H141  H     H_    0.753238 0.184983 0.725521 0.114222
H142  H     H_    0.838768 0.138480 0.822537 0.105390
H143  H     H_    0.874695 0.108203 0.715797 0.170407
H144  H     H_    0.885898 0.221410 0.654306 0.206291
N1    N     N_R   0.000000 0.500000 0.258690 -0.273145
N2    N     N_R   0.000000 0.500000 0.741310 -0.272893
N3    N     N_R   0.500000 1.000000 0.258690 -0.272445
N4    N     N_R   0.500000 1.000000 0.741310 -0.273120
O1    O     O_R   0.064280 0.435730 0.581430 -0.488706
O2    O     O_R   0.435720 0.064270 0.418570 -0.466054
O3    O     O_R   0.435720 0.064270 0.581430 -0.487504
O4    O     O_R   0.564280 0.935730 0.418570 -0.465018
O5    O     O_R   0.435720 0.935730 0.418570 -0.489289
O6    O     O_R   0.564280 0.064270 0.581430 -0.466710
O7    O     O_R   0.564280 0.064270 0.418570 -0.488046
O8    O     O_R   0.435720 0.935730 0.581430 -0.466713
O9    O     O_3   0.711240 0.346935 0.600189 -0.532361
O10   O     O_3   0.158334 0.799982 0.423232 -0.533780
O11   O     O_3   0.292612 0.650328 0.587493 -0.528828
O12   O     O_R   0.935720 0.564270 0.418570 -0.466647
O13   O     O_3   0.843601 0.199013 0.427645 -0.527803
O14   O     O_3   0.286039 0.343830 0.391879 -0.530060
O15   O     O_3   0.844291 0.801664 0.568536 -0.528184
O16   O     O_3   0.709685 0.651545 0.404124 -0.532110
O17   O     O_3   0.158133 0.200800 0.580488 -0.526846
O18   O     O_3   0.213835 0.841825 0.607701 -0.536665
O19   O     O_3   0.655664 0.301723 0.431815 -0.529525
O20   O     O_3   0.790440 0.151808 0.595984 -0.532007
O21   O     O_3   0.335251 0.703844 0.404275 -0.539049
O22   O     O_3   0.788989 0.846657 0.400125 -0.532136
O23   O     O_R   0.935720 0.564270 0.581430 -0.488073
O24   O     O_3   0.345532 0.303117 0.560503 -0.530645
O25   O     O_3   0.207270 0.149442 0.412025 -0.530186
O26   O     O_3   0.656335 0.699032 0.572345 -0.529407
O27   O     O_2   0.072387 0.643145 0.250829 -0.572690
O28   O     O_R   0.972165 0.651806 0.295390 -0.699580
O29   O     O_2   0.072237 0.356532 0.750868 -0.571742
O30   O     O_R   0.972289 0.348384 0.704336 -0.698666
O31   O     O_2   0.927971 0.356698 0.250751 -0.568600
O32   O     O_R   0.028375 0.348201 0.294723 -0.698930
O33   O     O_2   0.927482 0.643199 0.749418 -0.567692
O34   O     O_R   0.064280 0.435730 0.418570 -0.466908
O35   O     O_R   0.027601 0.651670 0.704321 -0.700942
O36   O     O_2   0.573112 0.143080 0.250192 -0.568075
O37   O     O_R   0.473255 0.151554 0.296632 -0.700595
O38   O     O_2   0.572569 0.856847 0.749992 -0.569040
O39   O     O_R   0.472469 0.848368 0.704426 -0.698825
O40   O     O_2   0.426999 0.856579 0.246445 -0.586785
O41   O     O_R   0.526191 0.848641 0.296804 -0.697652
O42   O     O_2   0.427290 0.142914 0.748533 -0.567181
O43   O     O_R   0.527545 0.151844 0.704361 -0.700044
O44   O     O_R   0.935720 0.435730 0.418570 -0.488431
O45   O     O_R   0.064280 0.564270 0.581430 -0.466620
O46   O     O_R   0.064280 0.564270 0.418570 -0.486849
O47   O     O_R   0.935720 0.435730 0.581430 -0.466206
O48   O     O_R   0.564280 0.935730 0.581430 -0.488340

loop_
_geom_bond_atom_site_label_1
_geom_bond_atom_site_label_2
_ccdc_geom_bond_type
C83   H101  S    
C126  C127  S    
C87   C91   S    
C19   H19   S    
C126  H104  S    
C68   C75   A    
C48   C94   A    
C113  H74   S    
C8    H135  S    
Cu4   O5    S    
C10   O20   S    
C37   C102  S    
C106  C107  S    
C24   C54   A    
C64   H59   S    
C111  O7    A    
C108  C109  S    
C82   C99   A    
Cu1   O23   S    
H51   O43   S    
C48   C65   A    
C12   H144  S    
C85   C103  A    
C124  H98   S    
C29   H41   S    
C21   C22   S    
C21   H23   S    
C127  H106  S    
C18   H16   S    
C104  C105  S    
C128  O16   S    
C81   C105  A    
C129  H113  S    
Cu2   N1    S    
C40   C58   A    
C40   O16   S    
C47   C64   A    
C22   H25   S    
C46   C91   A    
C35   C55   A    
H47   O35   S    
C38   O42   D    
C7    H133  S    
C66   C76   A    
C121  O14   S    
C47   C93   A    
C12   H3    S    
C122  O9    S    
C120  H91   S    
C41   C59   A    
C2    C52   A    
H45   O32   S    
C89   O3    A    
C19   H17   S    
C59   H53   S    
C45   O23   A    
C116  H82   S    
C43   C61   A    
C90   C93   S    
C129  H111  S    
C101  N4    A    
C102  N3    A    
Cu3   N4    S    
C4    C5    S    
Cu4   O7    S    
C108  O9    S    
C131  H117  S    
C28   H39   S    
C61   C74   A    
C79   C96   A    
C100  O8    A    
C5    C6    S    
C15   C16   S    
C34   O37   S    
C117  H83   S    
Cu2   O12   S    
C121  C123  S    
C132  H120  S    
C124  H100  S    
C20   C21   S    
C26   H34   S    
C60   H54   S    
C61   H55   S    
C36   C101  S    
C51   C69   A    
C55   C71   A    
C125  H102  S    
C7    O19   S    
C14   H6    S    
C80   C97   A    
C118  H86   S    
C84   C102  A    
C128  C129  S    
C123  C124  S    
C130  H115  S    
C82   H90   S    
C128  H109  S    
C9    H137  S    
C109  H66   S    
C32   C97   S    
Cu1   O45   S    
C32   O32   S    
C31   C96   S    
C23   H29   S    
C123  H96   S    
C95   N1    A    
C17   O22   S    
C6    H130  S    
C30   O27   D    
C11   H142  S    
C76   C89   S    
C65   H60   S    
C53   H13   S    
C6    H129  S    
C78   O4    A    
C57   H46   S    
C88   C94   S    
C49   C66   A    
C115  O11   S    
C17   H12   S    
C127  H107  S    
C25   C26   S    
C3    H121  S    
C16   H9    S    
C114  H75   S    
C38   C103  S    
C97   N1    A    
C52   H2    S    
C13   C87   A    
C17   C18   S    
C63   H58   S    
C2    C87   A    
C4    O18   S    
C85   H123  S    
C15   H7    S    
C31   O30   S    
C4    H126  S    
C36   O38   D    
C14   O21   S    
C103  N4    A    
C5    H127  S    
C129  C130  S    
C51   C122  A    
C35   O14   S    
C83   C101  A    
C131  O17   S    
C112  H71   S    
C10   H140  S    
C44   C92   A    
Cu1   O47   S    
C43   C92   A    
C79   H57   S    
C46   C63   A    
C84   H112  S    
C67   C70   S    
C112  O10   S    
C108  H63   S    
C113  H73   S    
C8    H136  S    
C24   O13   S    
C28   H38   S    
C81   H79   S    
C50   C68   A    
C64   C75   A    
C110  H69   S    
C82   C106  A    
C10   H141  S    
C36   O39   S    
C10   C11   S    
C56   C69   S    
C51   H134  S    
C14   C15   S    
C39   O15   S    
C24   C86   A    
C27   H36   S    
C73   C100  S    
Cu3   O48   S    
C121  H95   S    
C21   H22   S    
C17   H14   S    
C1    O1    A    
Cu3   Cu4   S    
C67   O46   A    
C65   C76   A    
C80   C104  A    
C16   H11   S    
C28   C29   S    
C77   H1    S    
C23   H28   S    
C22   H26   S    
C81   C98   A    
Cu1   N2    S    
C60   C73   A    
C18   C19   S    
C55   H35   S    
C38   O43   S    
C86   C122  A    
C84   C106  A    
C12   H4    S    
Cu3   O8    S    
C120  H92   S    
C89   O2    A    
C20   O24   S    
Cu2   O44   S    
C27   H37   S    
C53   C70   A    
C11   H143  S    
C9    H139  S    
C13   C53   A    
C13   O11   S    
C3    C132  S    
C7    C8    S    
C33   O33   D    
C74   C111  S    
C63   C73   A    
C43   O19   S    
C44   O20   S    
C110  H67   S    
C100  O5    A    
C37   O41   S    
C1    O34   A    
C1    C71   S    
Cu2   O46   S    
Cu1   O1    S    
C29   H42   S    
C125  C126  S    
C45   O12   A    
C29   H40   S    
C18   H15   S    
C37   O40   D    
C113  C114  S    
C41   C88   A    
C118  H87   S    
C56   O44   A    
C120  H93   S    
C119  C120  S    
C98   N2    A    
C130  H116  S    
C128  H110  S    
C109  H65   S    
C109  C110  S    
C80   H68   S    
C54   C69   A    
C119  H88   S    
C115  H80   S    
C57   C72   A    
Cu3   O6    S    
C54   H24   S    
C6    H131  S    
C19   H18   S    
C62   C74   A    
C77   C104  A    
C40   C90   A    
C116  H81   S    
C30   O28   S    
C115  C116  S    
H50   O41   S    
C2    O10   S    
C117  H85   S    
C33   O35   S    
Cu4   O2    S    
Cu2   O34   S    
C34   O36   D    
C131  H118  S    
C25   H31   S    
C26   H32   S    
C30   C95   S    
C111  O6    A    
C16   H10   S    
C42   C91   A    
C125  O15   S    
C3    H124  S    
C39   C57   A    
C116  C117  S    
C79   C105  A    
C117  H84   S    
C68   H62   S    
C33   C98   S    
C114  H76   S    
Cu4   N3    S    
C118  C119  S    
C132  H119  S    
C123  H97   S    
C124  H99   S    
C26   H33   S    
C83   C107  A    
C4    H125  S    
C5    H128  S    
C49   C94   A    
C39   C90   A    
C125  H103  S    
C31   O29   D    
C14   H5    S    
C45   C72   S    
C114  H77   S    
C49   O25   S    
C112  C113  S    
C34   C99   S    
C130  H114  S    
C27   O26   S    
C58   H52   S    
H48   O37   S    
C9    H138  S    
C48   O24   S    
C112  H72   S    
H43   O28   S    
C42   C60   A    
C41   O17   S    
C8    C9    S    
C62   H56   S    
C32   O31   D    
C44   C62   A    
C77   C95   A    
C96   N2    A    
C115  H78   S    
C108  H64   S    
C35   C88   A    
C46   O21   S    
C126  H105  S    
C110  H70   S    
C50   O26   S    
H49   O39   S    
Cu3   O3    S    
Cu4   O4    S    
C119  H89   S    
C42   O18   S    
C121  H94   S    
C20   H20   S    
C118  O13   S    
C127  H108  S    
C11   C12   S    
C50   C93   A    
C67   O45   A    
C3    H122  S    
C20   H21   S    
C56   O47   A    
C86   C92   S    
C22   H27   S    
C58   C72   A    
Cu1   Cu2   S    
H44   O30   S    
C78   O48   A    
C23   O25   S    
C47   O22   S    
C23   C25   S    
C7    H132  S    
C75   C78   S    
C66   H61   S    
C52   C70   A    
C15   H8    S    
C27   C28   S    
C85   C107  A    
C131  C132  S    
C25   H30   S    
C59   C71   A    
C99   N3    A    
