data_mof_unit_35832.cif
_audit_creation_date              2012-12-11T15:54:55-0500
_audit_creation_method            fapswitch 2.2
_symmetry_space_group_name_H-M    P1
_symmetry_Int_Tables_number       1
_space_group_crystal_system       triclinic
_cell_length_a                    17.806798
_cell_length_b                    24.316824
_cell_length_c                    15.110082
_cell_angle_alpha                 90.101464
_cell_angle_beta                  126.287852
_cell_angle_gamma                 89.976056
_cell_volume                      5273.78854201

loop_
_atom_site_label
_atom_site_type_symbol
_atom_type_description
_atom_site_fract_x
_atom_site_fract_y
_atom_site_fract_z
_atom_type_partial_charge
C1    C     C_R   0.904182 0.874938 0.092270 -0.122073
C2    C     C_R   0.150355 0.848195 0.090066 -0.170555
C3    C     C_R   0.317217 0.640640 0.999209 0.064503
C4    C     C_R   0.693210 0.999414 0.637425 0.210038
C5    C     C_R   0.193209 0.499413 0.637425 0.210020
C6    C     C_R   0.048911 0.000871 0.358256 0.124359
C7    C     C_R   0.548912 0.500870 0.358260 0.124363
C8    C     C_R   0.266302 0.953505 0.248480 -0.125617
C9    C     C_R   0.267157 0.045996 0.249750 -0.160736
C10   C     C_R   0.766302 0.453504 0.248483 -0.125616
C11   C     C_R   0.767157 0.545996 0.249755 -0.160733
C12   C     C_R   0.946705 0.046507 0.695260 0.065349
C13   C     C_R   0.651326 0.651556 0.090624 -0.179365
C14   C     C_R   0.946325 0.954919 0.693801 0.096742
C15   C     C_R   0.446683 0.546506 0.695246 0.065315
C16   C     C_R   0.446327 0.454915 0.693806 0.096747
C17   C     C_R   0.650358 0.348196 0.090065 -0.170557
C18   C     C_R   0.322102 0.999516 0.276639 0.130397
C19   C     C_R   0.822101 0.499515 0.276646 0.130403
C20   C     C_R   0.932426 0.000964 0.630140 0.133591
C21   C     C_R   0.432416 0.500958 0.630139 0.133587
C22   C     C_R   0.122418 0.818672 0.997194 0.008486
C23   C     C_R   0.123673 0.181100 0.998010 0.013620
C24   C     C_R   0.622423 0.318674 0.997192 0.008478
C25   C     C_R   0.904435 0.125899 0.091990 -0.136519
C26   C     C_R   0.623695 0.681089 0.997999 0.013600
C27   C     C_3   0.983055 0.058766 0.431576 -0.500645
C28   C     C_3   0.941822 0.958397 0.390516 -0.468563
C29   C     C_3   0.483059 0.558762 0.431588 -0.500670
C30   C     C_3   0.441828 0.458395 0.390526 -0.468517
C31   C     C_3   0.945949 0.058605 0.499860 0.381350
C32   C     C_3   0.912250 0.955459 0.466577 0.384914
C33   C     C_3   0.445934 0.558594 0.499852 0.381336
C34   C     C_3   0.412276 0.455448 0.466605 0.384869
C35   C     C_3   0.104222 0.987911 0.549905 -0.498794
C36   C     C_R   0.404185 0.374936 0.092271 -0.122108
C37   C     C_3   0.604225 0.487908 0.549915 -0.498813
C38   C     C_3   0.020923 0.001367 0.432337 0.142297
C39   C     C_3   0.520927 0.501365 0.432346 0.142295
C40   C     C_3   0.963545 0.001015 0.556881 -0.159873
C41   C     C_3   0.463547 0.501011 0.556889 -0.159817
C42   C     C_R   0.811677 0.124671 0.907273 -0.122304
C43   C     C_R   0.811166 0.876109 0.907844 -0.094102
C44   C     C_R   0.311676 0.624670 0.907274 -0.122295
C45   C     C_R   0.311167 0.376109 0.907845 -0.094063
C46   C     C_3   0.073598 0.989058 0.627048 0.724950
C47   C     C_R   0.404436 0.625899 0.091990 -0.136517
C48   C     C_3   0.573599 0.489069 0.627057 0.724988
C49   C     C_3   0.674376 0.197429 0.879033 -0.475412
C50   C     C_3   0.672815 0.804133 0.880596 -0.489301
C51   C     C_3   0.174370 0.697425 0.879037 -0.475398
C52   C     C_3   0.172789 0.304150 0.880608 -0.489241
C53   C     C_3   0.117209 0.744808 0.877840 -0.137501
C54   C     C_3   0.117334 0.255651 0.879276 -0.133642
C55   C     C_3   0.617214 0.244812 0.877836 -0.137495
C56   C     C_3   0.617354 0.755637 0.879263 -0.133629
C57   C     C_3   0.326824 0.738929 0.045329 -0.119672
C58   C     C_R   0.059114 0.849493 0.906699 -0.080575
C59   C     C_3   0.325460 0.262455 0.042041 -0.120768
C60   C     C_3   0.826829 0.238929 0.045334 -0.119674
C61   C     C_3   0.825485 0.762457 0.042075 -0.120784
C62   C     C_3   0.725470 0.173174 0.068191 -0.136530
C63   C     C_3   0.726811 0.827058 0.071865 -0.139155
C64   C     C_3   0.225474 0.673172 0.068200 -0.136511
C65   C     C_3   0.226832 0.327061 0.071901 -0.139137
C66   C     C_3   0.762552 0.186327 0.998470 0.231473
C67   C     C_3   0.761701 0.814890 0.999446 0.259356
C68   C     C_3   0.262550 0.686325 0.998473 0.231461
C69   C     C_R   0.060066 0.150298 0.907095 -0.099422
C70   C     C_3   0.261694 0.314895 0.999451 0.259325
C71   C     C_3   0.169970 0.770065 0.995943 0.275927
C72   C     C_3   0.170572 0.230286 0.997261 0.295618
C73   C     C_3   0.669974 0.270068 0.995941 0.275928
C74   C     C_3   0.670589 0.730276 0.997250 0.295642
C75   C     C_3   0.271061 0.788726 0.040161 -0.177123
C76   C     C_3   0.271965 0.212456 0.041622 -0.212897
C77   C     C_3   0.771066 0.288727 0.040162 -0.177118
C78   C     C_3   0.771986 0.712451 0.041620 -0.212920
C79   C     C_3   0.178557 0.725231 0.074813 -0.484232
C80   C     C_R   0.559117 0.349494 0.906697 -0.080554
C81   C     C_3   0.178670 0.274986 0.076390 -0.485185
C82   C     C_3   0.678557 0.225233 0.074807 -0.484230
C83   C     C_3   0.678674 0.774976 0.076371 -0.485205
C84   C     C_3   0.469371 0.944633 0.367583 -0.219335
C85   C     C_3   0.473140 0.050698 0.361701 -0.237558
C86   C     C_3   0.969366 0.444631 0.367590 -0.219328
C87   C     C_3   0.973137 0.550696 0.361706 -0.237532
C88   C     C_R   0.742465 0.953839 0.698553 -0.042439
C89   C     C_R   0.742555 0.045479 0.697388 -0.071122
C90   C     C_R   0.242465 0.453838 0.698553 -0.042464
C91   C     C_R   0.560084 0.650287 0.907085 -0.099357
C92   C     C_R   0.242553 0.545479 0.697388 -0.071185
C93   C     C_3   0.570078 0.942372 0.474177 0.316520
C94   C     C_3   0.578511 0.047014 0.457412 0.341628
C95   C     C_3   0.070073 0.442369 0.474183 0.316527
C96   C     C_3   0.078509 0.547010 0.457413 0.341579
C97   C     C_3   0.428999 0.002126 0.473218 -0.600759
C98   C     C_3   0.928998 0.502126 0.473226 -0.600776
C99   C     C_3   0.422195 0.999259 0.365658 0.126508
C100  C     C_3   0.922192 0.499258 0.365665 0.126503
C101  C     C_3   0.596363 0.999018 0.537189 -0.192529
C102  C     C_R   0.151316 0.151559 0.090630 -0.179367
C103  C     C_3   0.096360 0.499017 0.537193 -0.192500
C104  C     C_3   0.530730 0.007526 0.574341 0.743584
C105  C     C_3   0.030730 0.507528 0.574347 0.743599
C106  C     C_R   0.044322 0.046235 0.300981 -0.141671
C107  C     C_R   0.044671 0.954723 0.302133 -0.149234
C108  C     C_R   0.544320 0.546234 0.300982 -0.141672
C109  C     C_R   0.544673 0.454723 0.302134 -0.149227
C110  C     C_R   0.816379 0.860702 0.999905 0.066725
C111  C     C_R   0.817217 0.140641 0.999208 0.064510
C112  C     C_R   0.316379 0.360702 0.999908 0.066709
Cl1   Cl    Cl    0.827479 0.081951 0.414757 -0.600092
Cl2   Cl    Cl    0.651742 0.042609 0.412893 -0.512026
Cl3   Cl    Cl    0.152245 0.414987 0.453470 -0.624713
Cl4   Cl    Cl    0.151732 0.542596 0.412885 -0.512103
Cl5   Cl    Cl    0.551913 0.958060 0.675659 -0.675035
Cl6   Cl    Cl    0.545919 0.073865 0.636677 -0.709044
Cl7   Cl    Cl    0.051915 0.458064 0.675670 -0.675035
Cl8   Cl    Cl    0.045920 0.573868 0.636676 -0.709045
Cl9   Cl    Cl    0.787693 0.956105 0.386003 -0.494155
Cl10  Cl    Cl    0.327458 0.581912 0.414724 -0.600072
Cl11  Cl    Cl    0.287727 0.456063 0.386055 -0.494232
Cl12  Cl    Cl    0.141017 0.040464 0.731405 -0.672843
Cl13  Cl    Cl    0.110367 0.924601 0.699776 -0.713687
Cl14  Cl    Cl    0.640985 0.540494 0.731360 -0.672896
Cl15  Cl    Cl    0.610396 0.424636 0.699836 -0.713658
Cl16  Cl    Cl    0.652257 0.914995 0.453468 -0.624716
H1    H     H_    0.935219 0.865282 0.176905 0.098833
H2    H     H_    0.933400 0.914441 0.505402 0.075097
H3    H     H_    0.416866 0.222178 0.022158 0.129592
H4    H     H_    0.828267 0.247369 0.908175 0.123175
H5    H     H_    0.929156 0.223859 0.022023 0.117360
H6    H     H_    0.815541 0.739431 0.901980 0.129486
H7    H     H_    0.916937 0.722183 0.022267 0.129592
H8    H     H_    0.232805 0.827275 0.894994 0.164929
H9    H     H_    0.250092 0.870947 0.993053 0.159415
H10   H     H_    0.226523 0.166948 0.900146 0.147953
H11   H     H_    0.262911 0.128530 0.011593 0.148012
H12   H     H_    0.732818 0.327273 0.894996 0.164914
H13   H     H_    0.485974 0.590678 0.563084 0.095100
H14   H     H_    0.750095 0.370947 0.993048 0.159424
H15   H     H_    0.726599 0.666982 0.900124 0.147946
H16   H     H_    0.762884 0.628534 0.011499 0.148056
H17   H     H_    0.843377 0.183448 0.228452 0.106784
H18   H     H_    0.764872 0.138618 0.213356 0.201795
H19   H     H_    0.845978 0.814178 0.229974 0.100233
H20   H     H_    0.770504 0.859574 0.220891 0.175832
H21   H     H_    0.343384 0.683454 0.228458 0.106767
H22   H     H_    0.264887 0.638621 0.213373 0.201780
H23   H     H_    0.346010 0.314146 0.229987 0.100233
H24   H     H_    0.433462 0.414438 0.505448 0.075123
H25   H     H_    0.270572 0.359554 0.220961 0.175837
H26   H     H_    0.511072 0.960875 0.267059 0.256026
H27   H     H_    0.473446 0.896086 0.258328 0.157339
H28   H     H_    0.384752 0.062222 0.193243 0.116575
H29   H     H_    0.485230 0.095342 0.255540 0.163250
H30   H     H_    0.011064 0.460872 0.267063 0.256033
H31   H     H_    0.973438 0.396083 0.258333 0.157346
H32   H     H_    0.884749 0.562223 0.193250 0.116581
H33   H     H_    0.985224 0.595340 0.255544 0.163245
H34   H     H_    0.826477 0.088778 0.587718 0.213678
H35   H     H_    0.161359 0.017880 0.577183 0.216098
H36   H     H_    0.927056 0.125602 0.638053 0.117214
H37   H     H_    0.841140 0.906360 0.575508 0.213326
H38   H     H_    0.948051 0.876886 0.646955 0.130928
H39   H     H_    0.326355 0.588708 0.587671 0.213702
H40   H     H_    0.426860 0.625606 0.637923 0.117263
H41   H     H_    0.341103 0.406367 0.575545 0.213396
H42   H     H_    0.448005 0.376877 0.646922 0.130873
H43   H     H_    0.132137 0.946928 0.549904 0.206957
H44   H     H_    0.661372 0.517868 0.577193 0.216123
H45   H     H_    0.632126 0.446920 0.549920 0.206938
H46   H     H_    0.692636 0.208717 0.822846 0.160566
H47   H     H_    0.690564 0.793762 0.823444 0.159006
H48   H     H_    0.192625 0.708710 0.822844 0.160572
H49   H     H_    0.935360 0.136028 0.176472 0.101579
H50   H     H_    0.190512 0.293789 0.823428 0.159004
H51   H     H_    0.631711 0.159278 0.844198 0.217556
H52   H     H_    0.629566 0.842094 0.847530 0.205737
H53   H     H_    0.131706 0.659273 0.844209 0.217557
H54   H     H_    0.129547 0.342115 0.847574 0.205740
H55   H     H_    0.110122 0.776103 0.819851 0.139286
H56   H     H_    0.111691 0.224688 0.821443 0.126681
H57   H     H_    0.610129 0.276108 0.819849 0.139274
H58   H     H_    0.611708 0.724673 0.821431 0.126689
H59   H     H_    0.755978 0.131275 0.821921 0.132774
H60   H     H_    0.435225 0.365280 0.176906 0.098851
H61   H     H_    0.754901 0.869710 0.822702 0.112019
H62   H     H_    0.255977 0.631274 0.821922 0.132780
H63   H     H_    0.254899 0.369710 0.822704 0.112015
H64   H     H_    0.671388 0.140466 0.024260 0.168934
H65   H     H_    0.673835 0.860454 0.030957 0.169376
H66   H     H_    0.171395 0.640463 0.024276 0.168932
H67   H     H_    0.173875 0.360468 0.031025 0.169377
H68   H     H_    0.609160 0.214561 0.054222 0.174428
H69   H     H_    0.609013 0.785755 0.054834 0.177378
H70   H     H_    0.109161 0.714557 0.054230 0.174425
H71   H     H_    0.435360 0.636028 0.176473 0.101580
H72   H     H_    0.109012 0.285775 0.054850 0.177380
H73   H     H_    0.220044 0.741334 0.160274 0.161912
H74   H     H_    0.218984 0.258702 0.161534 0.160842
H75   H     H_    0.720044 0.241334 0.160268 0.161918
H76   H     H_    0.719000 0.758697 0.161520 0.160844
H77   H     H_    0.383313 0.731782 0.133839 0.112727
H78   H     H_    0.385349 0.269791 0.129131 0.111301
H79   H     H_    0.883313 0.231781 0.133846 0.112727
H80   H     H_    0.885343 0.769798 0.129176 0.111307
H81   H     H_    0.307050 0.803348 0.126435 0.121306
H82   H     H_    0.927363 0.071178 0.345497 0.219846
H83   H     H_    0.308987 0.200169 0.129327 0.122045
H84   H     H_    0.807053 0.303351 0.126436 0.121307
H85   H     H_    0.808999 0.700151 0.129316 0.122053
H86   H     H_    0.433534 0.909130 0.373872 0.109643
H87   H     H_    0.446216 0.088092 0.377188 0.120630
H88   H     H_    0.933528 0.409129 0.373881 0.109642
H89   H     H_    0.946217 0.588090 0.377198 0.120635
H90   H     H_    0.728561 0.911253 0.673637 0.123858
H91   H     H_    0.728993 0.087751 0.670494 0.106163
H92   H     H_    0.228561 0.411252 0.673639 0.123857
H93   H     H_    0.881873 0.969387 0.305384 0.232873
H94   H     H_    0.228990 0.587750 0.670494 0.106164
H95   H     H_    0.570343 0.910560 0.527137 0.097584
H96   H     H_    0.597796 0.087042 0.501029 0.087184
H97   H     H_    0.070337 0.410559 0.527145 0.097582
H98   H     H_    0.097800 0.587040 0.501027 0.087186
H99   H     H_    0.396750 0.964487 0.479449 0.211287
H100  H     H_    0.387122 0.037060 0.470284 0.227371
H101  H     H_    0.896750 0.464487 0.479459 0.211286
H102  H     H_    0.887121 0.537059 0.470290 0.227373
H103  H     H_    0.055289 0.088883 0.325927 0.095881
H104  H     H_    0.427378 0.571180 0.345509 0.219828
H105  H     H_    0.056024 0.912426 0.329065 0.096649
H106  H     H_    0.555284 0.588882 0.325928 0.095881
H107  H     H_    0.556028 0.412425 0.329066 0.096642
H108  H     H_    0.285704 0.910784 0.262780 0.093403
H109  H     H_    0.288867 0.088450 0.267058 0.099331
H110  H     H_    0.785702 0.410784 0.262783 0.093403
H111  H     H_    0.788868 0.588450 0.267068 0.099332
H112  H     H_    0.017145 0.837438 0.821599 0.113330
H113  H     H_    0.018852 0.162105 0.821902 0.106142
H114  H     H_    0.517151 0.337442 0.821596 0.113331
H115  H     H_    0.381872 0.469390 0.305402 0.232903
H116  H     H_    0.518891 0.662079 0.821881 0.106138
H117  H     H_    0.195217 0.165405 0.174961 0.100193
H118  H     H_    0.193878 0.834177 0.174188 0.097259
H119  H     H_    0.695226 0.665405 0.174954 0.100193
H120  H     H_    0.693880 0.334177 0.174187 0.097262
H121  H     H_    0.039619 0.090038 0.465967 0.155655
H122  H     H_    0.964598 0.916476 0.386434 0.138764
H123  H     H_    0.539626 0.590032 0.465994 0.155693
H124  H     H_    0.464597 0.416475 0.386425 0.138742
H125  H     H_    0.485740 0.218817 0.751529 0.141051
H126  H     H_    0.986021 0.090683 0.563105 0.095059
H127  H     H_    0.524451 0.190153 0.872468 0.142293
H128  H     H_    0.485153 0.780176 0.752598 0.129421
H129  H     H_    0.522535 0.808633 0.873460 0.144786
H130  H     H_    0.985734 0.718812 0.751536 0.141056
H131  H     H_    0.024447 0.690150 0.872477 0.142292
H132  H     H_    0.985132 0.280189 0.752615 0.129429
H133  H     H_    0.022513 0.308642 0.873481 0.144783
H134  H     H_    0.328247 0.747372 0.908161 0.123183
H135  H     H_    0.429140 0.723858 0.022000 0.117357
H136  H     H_    0.315429 0.239407 0.901899 0.129502
N1    N     N_R   0.950530 0.896220 0.057200 -0.044600
N2    N     N_R   0.818150 0.028600 0.792440 -0.053976
N3    N     N_R   0.318150 0.471400 0.792440 -0.059811
N4    N     N_R   0.318150 0.528600 0.792440 -0.053962
N5    N     N_R   0.025710 0.028600 0.207560 -0.037176
N6    N     N_R   0.025710 0.971400 0.207560 -0.038426
N7    N     N_R   0.525710 0.528600 0.207560 -0.037176
N8    N     N_R   0.525710 0.471400 0.207560 -0.038425
N9    N     N_R   0.181850 0.971400 0.207560 -0.043248
N10   N     N_R   0.181850 0.028600 0.207560 -0.038709
N11   N     N_R   0.681850 0.471400 0.207560 -0.043249
N12   N     N_R   0.950530 0.103780 0.057200 -0.045779
N13   N     N_R   0.681850 0.528600 0.207560 -0.038709
N14   N     N_R   0.974290 0.028600 0.792440 -0.049816
N15   N     N_R   0.974290 0.971400 0.792440 -0.047523
N16   N     N_R   0.474290 0.528600 0.792440 -0.049805
N17   N     N_R   0.474290 0.471400 0.792440 -0.047518
N18   N     N_R   0.049470 0.896220 0.942800 -0.034755
N19   N     N_R   0.049470 0.103780 0.942800 -0.032881
N20   N     N_R   0.549470 0.396220 0.942800 -0.034753
N21   N     N_R   0.549470 0.603780 0.942800 -0.032891
N22   N     N_R   0.106670 0.103780 0.057200 -0.033884
N23   N     N_R   0.450530 0.396220 0.057200 -0.044601
N24   N     N_R   0.106670 0.896220 0.057200 -0.036193
N25   N     N_R   0.606670 0.603780 0.057200 -0.033885
N26   N     N_R   0.606670 0.396220 0.057200 -0.036192
N27   N     N_3   0.522483 0.226962 0.835528 -0.216469
N28   N     N_3   0.521939 0.772072 0.836558 -0.217966
N29   N     N_3   0.022478 0.726959 0.835535 -0.216471
N30   N     N_3   0.021918 0.272082 0.836574 -0.217973
N31   N     N_3   0.373722 0.751013 0.993353 -0.194756
N32   N     N_3   0.365957 0.252800 0.981969 -0.207452
N33   N     N_3   0.873735 0.251012 0.993367 -0.194756
N34   N     N_R   0.450530 0.603780 0.057200 -0.045781
N35   N     N_3   0.866039 0.752811 0.982067 -0.207455
N36   N     N_3   0.273901 0.834986 0.979207 -0.182864
N37   N     N_3   0.276167 0.164421 0.984945 -0.202272
N38   N     N_3   0.773909 0.334986 0.979209 -0.182864
N39   N     N_3   0.776195 0.664428 0.984923 -0.202285
N40   N     N_3   0.797504 0.152016 0.178188 -0.214297
N41   N     N_3   0.800929 0.846469 0.182812 -0.220609
N42   N     N_3   0.297514 0.652019 0.178199 -0.214301
N43   N     N_3   0.300976 0.346449 0.182856 -0.220623
N44   N     N_3   0.461339 0.937377 0.265628 -0.181935
N45   N     N_R   0.893330 0.103780 0.942800 -0.049925
N46   N     N_3   0.456068 0.057782 0.254500 -0.156500
N47   N     N_3   0.961332 0.437374 0.265634 -0.181935
N48   N     N_3   0.956062 0.557782 0.254503 -0.156505
N49   N     N_3   0.894556 0.096600 0.655525 -0.229550
N50   N     N_3   0.903874 0.902127 0.652876 -0.228185
N51   N     N_3   0.394435 0.596573 0.655470 -0.229541
N52   N     N_3   0.403858 0.402126 0.652885 -0.228197
N53   N     N_R   0.893330 0.896220 0.942800 -0.050000
N54   N     N_R   0.393330 0.603780 0.942800 -0.049925
N55   N     N_R   0.393330 0.396220 0.942800 -0.050002
N56   N     N_R   0.818150 0.971400 0.792440 -0.059815
Ni1   Ni    Ni4+2 0.065600 0.934400 0.131190 0.220045
Ni2   Ni    Ni4+2 0.065600 0.065600 0.131190 0.219321
Ni3   Ni    Ni4+2 0.565600 0.434400 0.131190 0.220044
Ni4   Ni    Ni4+2 0.565600 0.565600 0.131190 0.219323
Ni5   Ni    Ni4+2 0.934400 0.065600 0.868810 0.227911
Ni6   Ni    Ni4+2 0.934400 0.934400 0.868810 0.240091
Ni7   Ni    Ni4+2 0.434400 0.565600 0.868810 0.227908
Ni8   Ni    Ni4+2 0.434400 0.434400 0.868810 0.240083

loop_
_geom_bond_atom_site_label_1
_geom_bond_atom_site_label_2
_ccdc_geom_bond_type
N53   Ni6   S    
N34   Ni4   S    
C74   C83   S    
C37   H44   S    
C55   N27   S    
C40   C46   S    
C12   N49   S    
C15   N16   A    
C52   H54   S    
H36   N49   S    
C1    H1    S    
C53   H55   S    
C20   C40   S    
N7    N8    A    
C29   C33   S    
C89   N2    A    
C75   N36   S    
C65   N43   S    
C44   H62   S    
C45   H63   S    
C84   H86   S    
C79   H73   S    
C2    C22   A    
N11   Ni3   S    
C43   C110  A    
N56   Ni6   S    
C83   H69   S    
C64   N42   S    
C10   N11   A    
H17   N40   S    
C107  H105  S    
N20   N26   A    
C46   Cl12  S    
H125  N27   S    
C23   C72   S    
C27   C31   S    
C28   C32   S    
H29   N46   S    
C93   C101  S    
C62   C66   S    
C58   N18   A    
C17   H120  S    
C35   H35   S    
C36   H60   S    
C96   H98   S    
C57   N31   S    
C1    C110  A    
C89   H91   S    
C12   C20   A    
C6    C106  A    
C93   H95   S    
N22   Ni2   S    
C70   C112  S    
C59   H78   S    
N18   Ni6   S    
C64   C79   S    
C91   N21   A    
C53   C71   S    
H12   N38   S    
C4    C89   A    
C31   H126  S    
C32   Cl9   S    
C108  N7    A    
C29   H104  S    
C83   H76   S    
C51   H53   S    
N26   Ni3   S    
C22   C58   A    
C60   H79   S    
C81   H74   S    
H10   N37   S    
C85   H87   S    
C90   N3    A    
C27   H121  S    
C33   C41   S    
H38   N50   S    
C48   Cl15  S    
N7    Ni4   S    
C84   C93   S    
C51   H48   S    
C14   N50   S    
C86   H88   S    
C86   C95   S    
C61   H80   S    
C92   N4    A    
C97   H100  S    
C7    C39   S    
C96   Cl4   S    
C44   N54   A    
C45   N55   A    
C49   H51   S    
C42   H59   S    
C5    C103  S    
C16   C21   A    
C81   H72   S    
C71   C79   S    
C106  H103  S    
N23   Ni3   S    
C64   C68   S    
N12   Ni2   S    
C25   N12   A    
C65   C70   S    
N21   N25   A    
H127  N27   S    
C24   C80   A    
C98   H102  S    
C15   N51   S    
C59   N32   S    
C80   H114  S    
C64   H66   S    
C6    C38   S    
C105  Cl8   S    
C50   C67   S    
N14   Ni5   S    
C90   H92   S    
C79   H70   S    
N19   N22   A    
C94   H96   S    
C47   H71   S    
C95   C103  S    
C52   H50   S    
C86   N47   S    
C108  H106  S    
C3    C44   A    
C49   C66   S    
C30   C34   S    
C47   N34   A    
N16   N17   A    
N8    Ni3   S    
C34   H24   S    
C33   H13   S    
C49   C55   S    
C50   C56   S    
C50   H47   S    
C51   C53   S    
C95   H97   S    
C85   C99   S    
H7    N35   S    
C61   C67   S    
C67   C110  S    
C103  C105  S    
N17   Ni8   S    
C54   N30   S    
C109  H107  S    
H16   N39   S    
N4    Ni7   S    
H132  N30   S    
C9    H109  S    
C33   Cl10  S    
C13   C26   A    
C18   C99   S    
C57   C68   S    
C87   C100  S    
C73   C77   S    
C72   C81   S    
H20   N41   S    
N3    N4    A    
C77   N38   S    
C4    C88   A    
C104  Cl5   S    
N9    Ni1   S    
C62   N40   S    
C102  N22   A    
C93   Cl16  S    
H130  N29   S    
C69   H113  S    
C60   N33   S    
C3    C47   A    
C88   H90   S    
H3    N32   S    
C28   H122  S    
H11   N37   S    
C25   C111  A    
C48   Cl14  S    
C55   C73   S    
C9    C18   A    
C91   H116  S    
C106  N5    A    
C88   N56   A    
H135  N31   S    
C35   C38   S    
C59   C76   S    
C31   Cl1   S    
N16   Ni7   S    
N24   Ni1   S    
N21   Ni7   S    
H18   N40   S    
C14   N15   A    
C61   N35   S    
C35   H43   S    
H30   N47   S    
C46   Cl13  S    
C3    C68   S    
N45   Ni5   S    
N20   Ni8   S    
N18   N24   A    
C34   C41   S    
C11   C19   A    
C29   H123  S    
C82   H75   S    
C25   H49   S    
C24   C73   S    
C17   N26   A    
C27   C38   S    
C31   C40   S    
C43   N53   A    
C16   N17   A    
C76   N37   S    
C77   H84   S    
C36   C112  A    
C6    C107  A    
C66   C111  S    
C86   C100  S    
C82   H68   S    
C8    N9    A    
C55   H57   S    
C62   C82   S    
C60   C66   S    
H14   N38   S    
N5    N6    A    
N15   Ni6   S    
C102  H117  S    
C78   H85   S    
C49   H46   S    
C104  Cl6   S    
N5    Ni2   S    
C78   N39   S    
C56   C74   S    
C14   C20   A    
C84   N44   S    
N3    Ni8   S    
C26   C91   A    
C27   H82   S    
C8    C18   A    
C63   C83   S    
N23   N55   A    
C56   N28   S    
C65   C81   S    
H37   N50   S    
C10   C19   A    
H22   N42   S    
C4    C101  S    
H33   N48   S    
H134  N31   S    
C21   C41   S    
C8    H108  S    
H21   N42   S    
C13   H119  S    
C56   H58   S    
C80   N20   A    
C101  C104  S    
C98   C100  S    
C42   N45   A    
C54   H56   S    
C73   C82   S    
C2    N24   A    
C16   N52   S    
C87   N48   S    
C75   H81   S    
C84   C99   S    
C19   C100  S    
H39   N51   S    
C2    H118  S    
C37   C39   S    
C57   C75   S    
N6    Ni1   S    
C30   H124  S    
N54   Ni7   S    
H6    N35   S    
N1    Ni1   S    
C97   C104  S    
C59   C70   S    
N2    Ni5   S    
H27   N44   S    
H131  N29   S    
C74   C78   S    
C96   C103  S    
H5    N33   S    
C105  Cl7   S    
H136  N32   S    
C36   N23   A    
C35   C46   S    
C11   N13   A    
C65   H67   S    
C85   N46   S    
C13   N25   A    
C34   Cl11  S    
C23   C69   A    
C63   N41   S    
C72   C76   S    
C32   H2    S    
C94   Cl2   S    
C45   C112  A    
C98   C105  S    
N1    N53   A    
N11   N13   A    
C109  N8    A    
C23   C102  A    
C11   H111  S    
C57   H77   S    
H31   N47   S    
H32   N48   S    
C94   C101  S    
C95   Cl3   S    
C28   H93   S    
C30   C39   S    
C63   H65   S    
N34   N54   A    
C5    C90   A    
N19   Ni5   S    
H15   N39   S    
C32   C40   S    
H133  N30   S    
C58   H112  S    
C53   N29   S    
C97   C99   S    
C52   C54   S    
C63   C67   S    
C60   C77   S    
C17   C24   A    
H4    N33   S    
C9    N10   A    
C62   H64   S    
C7    C109  A    
H34   N49   S    
C50   H52   S    
C42   C111  A    
C98   H101  S    
C85   C94   S    
H129  N28   S    
C28   C38   S    
C61   C78   S    
C87   C96   S    
C29   C39   S    
N9    N10   A    
C54   C72   S    
H40   N51   S    
C37   C48   S    
C43   H61   S    
C76   H83   S    
C10   H110  S    
C30   H115  S    
C12   N14   A    
C22   C71   S    
H128  N28   S    
H42   N52   S    
H28   N46   S    
C97   H99   S    
N14   N15   A    
N2    N56   A    
N12   N45   A    
H25   N43   S    
H26   N44   S    
N10   Ni2   S    
H19   N41   S    
H23   N43   S    
C92   H94   S    
N13   Ni4   S    
C71   C75   S    
C69   N19   A    
C26   C74   S    
C41   C48   S    
C51   C68   S    
C87   H89   S    
C5    C92   A    
C52   C70   S    
C37   H45   S    
C15   C21   A    
C1    N1    A    
N55   Ni8   S    
H41   N52   S    
C7    C108  A    
H9    N36   S    
H8    N36   S    
N25   Ni4   S    
C107  N6    A    
