data_mof_unit_27205.cif
_audit_creation_date              2012-12-10T21:11:31-0500
_audit_creation_method            fapswitch 2.2
_symmetry_space_group_name_H-M    P1
_symmetry_Int_Tables_number       1
_space_group_crystal_system       triclinic
_cell_length_a                    17.421092
_cell_length_b                    16.749668
_cell_length_c                    10.664051
_cell_angle_alpha                 90.040417
_cell_angle_beta                  90.089646
_cell_angle_gamma                 90.030944
_cell_volume                      3111.73845973

loop_
_atom_site_label
_atom_site_type_symbol
_atom_type_description
_atom_site_fract_x
_atom_site_fract_y
_atom_site_fract_z
_atom_type_partial_charge
C1    C     C_R   0.352805 0.499982 0.502201 0.833746
C2    C     C_R   0.647178 0.500012 0.502706 0.834199
C3    C     C_R   0.885269 0.500251 0.578922 0.166987
C4    C     C_R   0.114717 0.499759 0.577108 0.165656
C5    C     C_1   0.965931 0.500044 0.590715 -0.074439
C6    C     C_1   0.034147 0.499887 0.590116 -0.074202
C7    C     C_R   0.447151 0.832543 0.427396 0.407629
C8    C     C_R   0.555822 0.167760 0.570564 0.417097
C9    C     C_R   0.553710 0.832204 0.573216 0.406854
C10   C     C_R   0.446049 0.167332 0.430495 0.402340
C11   C     C_R   0.448994 0.748086 0.427202 -0.124489
C12   C     C_R   0.552671 0.252691 0.570607 -0.143344
C13   C     C_R   0.551232 0.747716 0.573043 -0.126522
C14   C     C_R   0.447803 0.251681 0.429842 -0.119691
C15   C     C_R   0.500559 0.875585 0.500432 -0.118582
C16   C     C_R   0.500899 0.124541 0.500786 -0.110675
C17   C     C_1   0.500856 0.963518 0.500565 0.121835
C18   C     C_1   0.500984 0.036581 0.500672 0.131679
C19   C     C_R   0.500036 0.499979 0.260358 0.888288
C20   C     C_R   0.499983 0.500018 0.739626 0.884470
C21   C     C_R   0.360738 0.529803 0.130057 -0.152447
C22   C     C_R   0.639178 0.469857 0.869802 -0.153113
C23   C     C_R   0.360750 0.529904 0.869331 -0.142071
C24   C     C_R   0.639317 0.470106 0.130528 -0.143865
C25   C     C_R   0.292813 0.544182 0.064660 -0.139864
C26   C     C_R   0.707123 0.455470 0.935040 -0.137213
C27   C     C_R   0.292813 0.544212 0.934337 -0.133810
C28   C     C_R   0.707196 0.455614 0.065364 -0.140251
C29   C     C_R   0.430449 0.515373 0.934392 0.072272
C30   C     C_R   0.569578 0.484596 0.065539 0.074881
C31   C     C_R   0.430451 0.515314 0.065300 0.073984
C32   C     C_R   0.569537 0.484552 0.934630 0.071998
C33   C     C_R   0.499995 0.500027 0.871676 -0.189704
C34   C     C_R   0.500023 0.499946 0.128281 -0.191423
C35   C     C_R   0.847321 0.572637 0.560963 -0.167497
C36   C     C_R   0.152745 0.427344 0.559982 -0.167817
C37   C     C_R   0.153437 0.572294 0.566295 -0.175965
C38   C     C_R   0.846350 0.427735 0.569454 -0.177124
C39   C     C_R   0.769514 0.572631 0.533128 -0.199061
C40   C     C_R   0.230512 0.427335 0.532219 -0.197122
C41   C     C_R   0.231186 0.572527 0.538461 -0.217583
C42   C     C_R   0.768557 0.427483 0.541549 -0.220751
C43   C     C_R   0.729783 0.499986 0.522759 -0.038992
C44   C     C_R   0.270139 0.499987 0.521222 -0.041779
H1    H     H_    0.759983 0.444661 0.116195 0.138493
H2    H     H_    0.240057 0.555143 0.883367 0.143693
H3    H     H_    0.759832 0.444406 0.884252 0.142795
H4    H     H_    0.240044 0.555112 0.115309 0.138217
H5    H     H_    0.357889 0.529893 0.231335 0.125382
H6    H     H_    0.641935 0.469555 0.768583 0.128996
H7    H     H_    0.357942 0.530119 0.768104 0.133308
H8    H     H_    0.642213 0.470082 0.231815 0.129688
H9    H     H_    0.878135 0.628780 0.566149 0.130038
H10   H     H_    0.122060 0.371173 0.566062 0.130348
H11   H     H_    0.123304 0.628453 0.577322 0.131942
H12   H     H_    0.876388 0.371585 0.581292 0.130676
H13   H     H_    0.740595 0.629263 0.520065 0.150793
H14   H     H_    0.259520 0.370680 0.519972 0.152201
H15   H     H_    0.260733 0.629256 0.531270 0.155175
H16   H     H_    0.738872 0.370767 0.535318 0.151026
H17   H     H_    0.409193 0.715115 0.368825 0.162412
H18   H     H_    0.591998 0.287082 0.627569 0.154236
H19   H     H_    0.590641 0.714385 0.631467 0.162119
H20   H     H_    0.406853 0.284408 0.373428 0.162184
N1    N     N_R   0.500000 0.707230 0.500000 -0.131617
N2    N     N_R   0.500000 0.292770 0.500000 -0.128113
O1    O     O_R   0.389110 0.566570 0.499990 -0.626227
O2    O     O_R   0.610890 0.433430 0.500010 -0.626209
O3    O     O_R   0.610890 0.566570 0.500010 -0.617436
O4    O     O_R   0.389110 0.433430 0.499990 -0.618009
O5    O     O_R   0.499990 0.566540 0.316770 -0.607551
O6    O     O_R   0.500010 0.433460 0.683230 -0.609332
O7    O     O_R   0.500010 0.566540 0.683230 -0.609635
O8    O     O_R   0.499990 0.433460 0.316770 -0.607775
Zn1   Zn    Zn3+2 0.500000 0.588860 0.500000 0.944935
Zn2   Zn    Zn3+2 0.500000 0.411140 0.500000 0.944601
O9    O     O_3   0.396287 0.872690 0.350506 -0.572318
C45   C     C_3   0.324221 0.874971 0.410277 -0.295288
H21   H     H_    0.327844 0.905627 0.502834 0.152104
H22   H     H_    0.299811 0.813963 0.421415 0.144038
H23   H     H_    0.284017 0.909699 0.350818 0.194748
O10   O     O_3   0.607769 0.125555 0.644056 -0.572612
C46   C     C_3   0.682979 0.155610 0.629677 -0.304156
H24   H     H_    0.692180 0.208396 0.690974 0.158676
H25   H     H_    0.696699 0.170172 0.530217 0.143999
H26   H     H_    0.724059 0.108911 0.660261 0.194162
O11   O     O_3   0.604674 0.872248 0.650324 -0.573210
C47   C     C_3   0.678258 0.868948 0.595764 -0.279808
H27   H     H_    0.678210 0.895003 0.499675 0.156826
H28   H     H_    0.700672 0.806769 0.593707 0.139591
H29   H     H_    0.718164 0.905054 0.653862 0.196145
O12   O     O_3   0.393705 0.127006 0.356380 -0.573179
C48   C     C_3   0.323351 0.123186 0.421180 -0.297505
H30   H     H_    0.298756 0.183773 0.436101 0.145290
H31   H     H_    0.329738 0.091451 0.512354 0.152982
H32   H     H_    0.281879 0.088740 0.363522 0.193646

loop_
_geom_bond_atom_site_label_1
_geom_bond_atom_site_label_2
_ccdc_geom_bond_type
C24   H8    S    
C30   C32   A    
O11   C47   S    
C4    C36   A    
C48   H30   S    
C35   H9    S    
C19   O5    A    
O6    Zn2   S    
C21   H5    S    
C13   N1    A    
O9    C45   S    
C7    C11   A    
C21   C31   A    
O8    Zn2   S    
C8    O10   S    
C23   C29   A    
C38   C42   A    
C2    O2    A    
C5    C6    T    
C45   H22   S    
C39   H13   S    
C29   C33   A    
C9    C13   A    
C3    C38   A    
C23   C27   A    
C2    O3    A    
C7    O9    S    
C7    C15   A    
C14   H20   S    
C8    C16   A    
O7    Zn1   S    
C28   H1    S    
C40   H14   S    
C30   C34   A    
C36   C40   A    
C41   H15   S    
C4    C6    S    
C10   C14   A    
C42   H16   S    
C45   H21   S    
C39   C43   A    
C11   H17   S    
C12   N2    A    
C35   C39   A    
C12   H18   S    
C1    C44   S    
C23   H7    S    
C46   H24   S    
C13   H19   S    
C47   H29   S    
C3    C35   A    
C2    C43   S    
C8    C12   A    
N2    Zn2   S    
C17   C18   T    
C14   N2    A    
C31   C34   A    
C4    C37   A    
C25   H4    S    
C22   C32   A    
C26   H3    S    
C20   C33   S    
C27   H2    S    
C16   C18   S    
C46   H25   S    
C47   H28   S    
C48   H32   S    
O4    Zn2   S    
C25   C27   A    
C41   C44   A    
O1    Zn1   S    
C42   C43   A    
C15   C17   S    
C21   C25   A    
C19   O8    A    
C24   C28   A    
C3    C5    S    
C19   C34   S    
O2    Zn2   S    
C26   C28   A    
C1    O4    A    
N1    Zn1   S    
C22   H6    S    
C32   C33   A    
C9    C15   A    
C29   C31   A    
C10   C16   A    
C9    O11   S    
O5    Zn1   S    
C45   H23   S    
O12   C48   S    
C1    O1    A    
C20   O7    A    
O3    Zn1   S    
C37   C41   A    
C24   C30   A    
C36   H10   S    
C10   O12   S    
C37   H11   S    
C40   C44   A    
C46   H26   S    
C38   H12   S    
C47   H27   S    
C48   H31   S    
O10   C46   S    
C22   C26   A    
C20   O6    A    
C11   N1    A    
