data_mof_unit_56174.cif
_audit_creation_date              2013-03-05T15:44:16-0500
_audit_creation_method            fapswitch 2.2
_symmetry_space_group_name_H-M    P1
_symmetry_Int_Tables_number       1
_space_group_crystal_system       triclinic
_cell_length_a                    26.091654
_cell_length_b                    28.210916
_cell_length_c                    8.515014
_cell_angle_alpha                 90.475455
_cell_angle_beta                  96.066683
_cell_angle_gamma                 90.084574
_cell_volume                      6232.30820848

loop_
_atom_site_label
_atom_site_type_symbol
_atom_site_description
_atom_site_fract_x
_atom_site_fract_y
_atom_site_fract_z
_atom_type_partial_charge
P1    P     P_3+3 0.893960 0.447890 0.040050 0.464799
P2    P     P_3+3 0.893960 0.552110 0.540050 0.483425
P3    P     P_3+3 0.393960 0.947890 0.040050 0.465206
P4    P     P_3+3 0.393960 0.052110 0.540050 0.477913
O1    O     O_2   0.898940 0.431940 0.867860 -0.346841
O2    O     O_2   0.898940 0.568060 0.367860 -0.335027
O3    O     O_2   0.398940 0.931940 0.867860 -0.346249
O4    O     O_2   0.398940 0.068060 0.367860 -0.340635
O5    O     O_3   0.941140 0.476130 0.123050 -0.415335
O6    O     O_3   0.941140 0.523870 0.623050 -0.390293
O7    O     O_3   0.441140 0.976130 0.123050 -0.415337
O8    O     O_3   0.441140 0.023870 0.623050 -0.387389
O9    O     O_3   0.982430 0.389880 0.635700 -0.427854
O10   O     O_3   0.982430 0.610120 0.135700 -0.385725
O11   O     O_3   0.482430 0.889880 0.635700 -0.427686
O12   O     O_3   0.482430 0.110120 0.135700 -0.391128
O13   O     O_2   0.900433 0.349660 0.749195 -0.364810
O14   O     O_2   0.895457 0.646420 0.225184 -0.358426
O15   O     O_2   0.400453 0.849665 0.749338 -0.364706
O16   O     O_2   0.396717 0.148288 0.227103 -0.376851
O17   O     O_3   0.845519 0.490801 0.006736 -0.589572
O18   O     O_3   0.844708 0.509887 0.507484 -0.575613
O19   O     O_3   0.345529 0.990810 0.006675 -0.589568
O20   O     O_3   0.344722 0.009865 0.507587 -0.573363
O21   O     O_3   0.958951 0.291346 0.613862 -0.533167
O22   O     O_3   0.963387 0.708416 0.164587 -0.472175
O23   O     O_3   0.458897 0.791357 0.613726 -0.533112
O24   O     O_3   0.465430 0.208797 0.157103 -0.494315
H1    H     H_    0.028907 0.313050 0.730293 0.169873
H2    H     H_    0.020784 0.692170 0.018739 0.058611
H3    H     H_    0.528868 0.813033 0.730148 0.169873
H4    H     H_    0.522298 0.188068 0.013741 0.075101
C1    C     C_3   0.036540 0.246648 0.610433 -1.001546
C2    C     C_3   0.030976 0.761858 0.118477 -0.911000
C3    C     C_3   0.536459 0.746622 0.610302 -1.001001
C4    C     C_3   0.537670 0.257053 0.113227 -0.911105
H5    H     H_    0.079101 0.249838 0.614893 0.232271
H6    H     H_    0.055381 0.749497 0.225018 0.288130
H7    H     H_    0.579022 0.749790 0.614800 0.232193
H8    H     H_    0.560518 0.243376 0.220796 0.287072
H9    H     H_    0.026926 0.225138 0.712033 0.279976
H10   H     H_    0.007630 0.792602 0.151043 0.252369
H11   H     H_    0.526823 0.725117 0.711886 0.280019
H12   H     H_    0.516779 0.289501 0.144373 0.252260
P5    P     P_3+3 0.105800 0.447360 0.649510 0.448655
P6    P     P_3+3 0.105800 0.552640 0.149510 0.453611
P7    P     P_3+3 0.605800 0.947360 0.649510 0.449188
P8    P     P_3+3 0.605800 0.052640 0.149510 0.454090
P9    P     P_3+3 0.066890 0.347187 0.086848 0.424130
P10   P     P_3+3 0.066229 0.652854 0.590337 0.470797
P11   P     P_3+3 0.566856 0.847159 0.086879 0.424258
P12   P     P_3+3 0.565317 0.153575 0.590955 0.450946
O25   O     O_2   0.100770 0.431440 0.821660 -0.353540
O26   O     O_2   0.100770 0.568560 0.321660 -0.352048
O27   O     O_2   0.600770 0.931440 0.821660 -0.353728
O28   O     O_2   0.600770 0.068560 0.321660 -0.354438
O29   O     O_3   0.017130 0.389790 0.053700 -0.402708
O30   O     O_3   0.017130 0.610210 0.553700 -0.354644
O31   O     O_3   0.517130 0.889790 0.053700 -0.402437
O32   O     O_3   0.517130 0.110210 0.553700 -0.391752
O33   O     O_2   0.103122 0.352680 0.955722 -0.380704
O34   O     O_2   0.106319 0.643844 0.472392 -0.362974
O35   O     O_2   0.603148 0.852685 0.955927 -0.380729
O36   O     O_2   0.603624 0.147635 0.465409 -0.364060
O37   O     O_3   0.160072 0.484299 0.671706 -0.560836
O38   O     O_3   0.162447 0.519052 0.162970 -0.566030
O39   O     O_3   0.660195 0.984141 0.671323 -0.560828
O40   O     O_3   0.662378 0.018951 0.163085 -0.565959
O41   O     O_3   0.038693 0.291583 0.044464 -0.517212
O42   O     O_3   0.039204 0.707105 0.528877 -0.475097
O43   O     O_3   0.538639 0.791578 0.044239 -0.517139
O44   O     O_3   0.536820 0.208745 0.547873 -0.518741
C5    C     C_3   0.994012 0.288363 0.122721 0.421696
C6    C     C_3   0.006963 0.722163 0.641246 0.413853
C7    C     C_3   0.493955 0.788342 0.122478 0.421359
C8    C     C_3   0.485112 0.206471 0.580153 0.533950
H13   H     H_    0.965263 0.315553 0.078825 0.120935
H14   H     H_    0.980541 0.693404 0.671945 0.054821
H15   H     H_    0.465218 0.815555 0.078687 0.121006
H16   H     H_    0.462379 0.183889 0.490447 0.155357
H17   H     H_    0.003654 0.292385 0.252308 0.027451
H18   H     H_    0.031005 0.734793 0.748884 0.015270
H19   H     H_    0.503595 0.792319 0.252083 0.027529
H20   H     H_    0.481872 0.192143 0.699934 -0.037836
C9    C     C_3   0.969412 0.239924 0.090380 -0.950115
C10   C     C_3   0.973953 0.763116 0.574385 -0.906952
C11   C     C_3   0.469335 0.739919 0.089941 -0.949406
C12   C     C_3   0.462073 0.255942 0.572508 -0.999889
H21   H     H_    0.959005 0.234855 0.961420 0.277044
H22   H     H_    0.949286 0.751288 0.466854 0.289394
H23   H     H_    0.458928 0.734899 0.960961 0.277069
H24   H     H_    0.463735 0.270906 0.452895 0.287726
H25   H     H_    0.996697 0.211685 0.134666 0.255063
H26   H     H_    0.998892 0.792829 0.543470 0.251554
H27   H     H_    0.496609 0.711658 0.134113 0.255129
H28   H     H_    0.483832 0.279411 0.661420 0.251320
C13   C     C_3   0.153299 0.474347 0.221724 0.428395
C14   C     C_3   0.146880 0.528848 0.727428 0.446147
C15   C     C_3   0.653157 0.974265 0.221813 0.428999
C16   C     C_3   0.647274 0.028668 0.727754 0.446231
H29   H     H_    0.141206 0.478090 0.342198 0.101603
H30   H     H_    0.130457 0.525154 0.841296 0.100908
H31   H     H_    0.641046 0.978036 0.342248 0.102028
H32   H     H_    0.630961 0.024907 0.841778 0.102761
H33   H     H_    0.124036 0.455323 0.140020 0.119594
H34   H     H_    0.119062 0.546806 0.639621 0.122941
H35   H     H_    0.623888 0.955272 0.140044 0.119839
H36   H     H_    0.619474 0.046817 0.640355 0.121362
C17   C     C_3   0.203177 0.446114 0.232145 -0.977372
C18   C     C_3   0.195693 0.558753 0.753333 -0.985383
C19   C     C_3   0.703007 0.945985 0.232328 -0.978615
C20   C     C_3   0.696263 0.058336 0.753637 -0.990304
H37   H     H_    0.233429 0.464513 0.311934 0.264779
H38   H     H_    0.223745 0.541925 0.843064 0.268635
H39   H     H_    0.733264 0.964359 0.312174 0.264710
H40   H     H_    0.724337 0.041236 0.842665 0.269769
H41   H     H_    0.197085 0.410252 0.279299 0.229631
H42   H     H_    0.186893 0.594764 0.795287 0.229225
H43   H     H_    0.696874 0.910129 0.279455 0.229834
H44   H     H_    0.687740 0.094307 0.796516 0.227917
H45   H     H_    0.216477 0.442371 0.112972 0.265840
H46   H     H_    0.213339 0.561953 0.640743 0.265836
H47   H     H_    0.716329 0.942230 0.113189 0.265739
H48   H     H_    0.713761 0.061660 0.640836 0.265669
Ba1   Ba    Ba6+2 0.999910 0.465960 0.844870 1.514016
Ba2   Ba    Ba6+2 0.999910 0.534040 0.344870 1.528263
Ba3   Ba    Ba6+2 0.499910 0.965960 0.844870 1.511988
Ba4   Ba    Ba6+2 0.499910 0.034040 0.344870 1.515345
C21   C     C_3   0.814305 0.492147 0.131887 0.401561
C22   C     C_3   0.813270 0.510559 0.632379 0.378504
C23   C     C_3   0.314344 0.992225 0.131890 0.403186
C24   C     C_3   0.313089 0.010774 0.631982 0.382651
H49   H     H_    0.809987 0.529778 0.167337 0.118456
H50   H     H_    0.812138 0.474146 0.680522 0.131598
H51   H     H_    0.310116 0.029866 0.167351 0.118798
H52   H     H_    0.311414 0.974343 0.679586 0.129314
H53   H     H_    0.830317 0.473140 0.239482 0.104806
H54   H     H_    0.826646 0.534423 0.732996 0.070821
H55   H     H_    0.330327 0.973191 0.239462 0.104836
H56   H     H_    0.326658 0.034374 0.733094 0.073538
C25   C     C_3   0.761111 0.472514 0.075726 -1.061658
C26   C     C_3   0.758743 0.524562 0.569067 -1.046019
C27   C     C_3   0.261100 0.972690 0.075802 -1.064233
C28   C     C_3   0.258821 0.025393 0.568207 -1.048073
H57   H     H_    0.743465 0.493349 0.973939 0.265323
H58   H     H_    0.743378 0.499380 0.474652 0.263582
H59   H     H_    0.243495 0.993544 0.973999 0.265473
H60   H     H_    0.243210 0.000367 0.473633 0.263083
H61   H     H_    0.735975 0.474754 0.172882 0.240803
H62   H     H_    0.733401 0.523812 0.665913 0.239154
H63   H     H_    0.235979 0.974997 0.172981 0.240688
H64   H     H_    0.233371 0.024974 0.664802 0.238925
H65   H     H_    0.764000 0.434904 0.038781 0.257016
H66   H     H_    0.758653 0.560897 0.519949 0.254395
H67   H     H_    0.263899 0.935067 0.038898 0.257078
H68   H     H_    0.259270 0.061697 0.519125 0.255282
O45   O     O_3   0.058810 0.523750 0.066650 -0.454796
O46   O     O_3   0.058810 0.476250 0.566650 -0.438094
O47   O     O_3   0.558810 0.023750 0.066650 -0.453348
O48   O     O_3   0.558810 0.976250 0.566650 -0.436536
P13   P     P_3+3 0.934183 0.654762 0.102568 0.460571
P14   P     P_3+3 0.931531 0.348115 0.604214 0.446170
P15   P     P_3+3 0.434798 0.155205 0.101536 0.437766
P16   P     P_3+3 0.431507 0.848139 0.604263 0.446392
C29   C     C_3   0.012799 0.295656 0.618265 0.498667
C30   C     C_3   0.995828 0.721932 0.051392 0.416830
C31   C     C_3   0.512746 0.795643 0.618125 0.498370
C32   C     C_3   0.499577 0.219502 0.045205 0.399425
H69   H     H_    0.023740 0.316346 0.516302 0.020873
H70   H     H_    0.971963 0.734997 0.944840 0.014997
H71   H     H_    0.523692 0.816323 0.516150 0.020993
H72   H     H_    0.477490 0.233817 0.937394 0.048522
H73   H     H_    0.021611 0.228541 0.498507 0.256238
H74   H     H_    0.056407 0.773194 0.028984 0.199722
H75   H     H_    0.521529 0.728523 0.498363 0.256260
H76   H     H_    0.564378 0.266181 0.024701 0.207654
H77   H     H_    0.933940 0.237195 0.151366 0.222382
H78   H     H_    0.948816 0.775747 0.663439 0.200493
H79   H     H_    0.433862 0.737176 0.150913 0.222359
H80   H     H_    0.421206 0.254289 0.597822 0.224214
C33   C     C_R   0.898651 0.393406 0.316651 -0.195379
C34   C     C_R   0.910911 0.619161 0.789534 -0.184075
C35   C     C_R   0.398618 0.893447 0.316733 -0.195131
C36   C     C_R   0.410902 0.119069 0.789581 -0.197614
C37   C     C_R   0.876629 0.395300 0.159802 0.261979
C38   C     C_R   0.880131 0.609003 0.649608 0.268759
C39   C     C_R   0.376578 0.895339 0.159899 0.262019
C40   C     C_R   0.380177 0.108991 0.649548 0.248839
C41   C     C_R   0.839129 0.360970 0.105219 -0.322554
C42   C     C_R   0.838590 0.639746 0.603756 -0.302591
C43   C     C_R   0.338987 0.861071 0.105484 -0.322483
C44   C     C_R   0.338786 0.139861 0.603394 -0.313253
C45   C     C_R   0.825877 0.323532 0.205114 0.046106
C46   C     C_R   0.827367 0.678945 0.701717 0.063840
C47   C     C_R   0.325691 0.823685 0.205509 0.045876
C48   C     C_R   0.327629 0.179100 0.701245 0.055677
C49   C     C_R   0.852447 0.320976 0.359248 -0.296460
C50   C     C_R   0.857146 0.684675 0.850747 -0.286428
C51   C     C_R   0.352311 0.821097 0.359553 -0.296924
C52   C     C_R   0.357405 0.184822 0.850282 -0.289206
C53   C     C_R   0.889211 0.355445 0.414583 0.215993
C54   C     C_R   0.898615 0.654331 0.896551 0.122857
C55   C     C_R   0.389148 0.855513 0.414741 0.216282
C56   C     C_R   0.398715 0.154324 0.896352 0.150992
C57   C     C_R   0.789227 0.239338 0.197060 -0.169720
C58   C     C_R   0.789254 0.761914 0.694369 -0.169294
C59   C     C_R   0.288927 0.739555 0.197444 -0.169039
C60   C     C_R   0.289609 0.262115 0.693483 -0.175178
C61   C     C_R   0.249759 0.706151 0.151399 -0.158384
C62   C     C_R   0.250192 0.294732 0.647711 -0.152865
C63   C     C_R   0.750157 0.205863 0.150690 -0.157529
C64   C     C_R   0.749858 0.794538 0.648517 -0.156329
C65   C     C_R   0.204323 0.719227 0.057156 0.159231
C66   C     C_R   0.204436 0.280400 0.556865 0.159419
C67   C     C_R   0.704817 0.218835 0.055780 0.161892
C68   C     C_R   0.704157 0.780236 0.557338 0.159939
C69   C     C_R   0.199780 0.767196 0.011083 -0.164434
C70   C     C_R   0.199448 0.231988 0.514661 -0.171705
C71   C     C_R   0.700269 0.266778 0.009406 -0.164072
C72   C     C_R   0.699195 0.731835 0.514928 -0.170323
C73   C     C_R   0.739419 0.300216 0.055385 -0.162364
C74   C     C_R   0.738630 0.699080 0.561309 -0.159748
C75   C     C_R   0.239039 0.800561 0.056692 -0.163622
C76   C     C_R   0.238895 0.199243 0.560985 -0.156714
C77   C     C_R   0.784658 0.287229 0.150520 0.166226
C78   C     C_R   0.784528 0.713537 0.651650 0.159445
C79   C     C_R   0.284369 0.787467 0.151182 0.166460
C80   C     C_R   0.284837 0.213721 0.651042 0.161306
C81   C     C_R   0.135186 0.686592 0.850711 -0.283415
C82   C     C_R   0.137247 0.312669 0.345854 -0.271118
C83   C     C_R   0.635884 0.186011 0.848922 -0.274242
C84   C     C_R   0.637062 0.812554 0.346123 -0.271579
C85   C     C_R   0.098516 0.652128 0.795044 0.192074
C86   C     C_R   0.104657 0.349390 0.285400 0.272430
C87   C     C_R   0.599265 0.151501 0.793195 0.243380
C88   C     C_R   0.604542 0.849310 0.285559 0.272562
C89   C     C_R   0.114681 0.609071 0.041538 0.372126
C90   C     C_R   0.119190 0.392157 0.535842 0.323875
C91   C     C_R   0.614978 0.108821 0.040583 0.371825
C92   C     C_R   0.619061 0.892090 0.535987 0.324440
C93   C     C_R   0.151996 0.643539 0.097251 -0.245295
C94   C     C_R   0.152803 0.355909 0.596410 -0.255671
C95   C     C_R   0.652384 0.143233 0.096065 -0.244660
C96   C     C_R   0.652597 0.855802 0.596670 -0.255648
C97   C     C_R   0.162861 0.683040 0.002681 0.033366
C98   C     C_R   0.163781 0.316308 0.500241 0.017516
C99   C     C_R   0.663451 0.182571 0.001091 0.020647
C100  C     C_R   0.663548 0.816173 0.500580 0.017501
C101  C     C_R   0.088690 0.614054 0.890953 -0.521366
C102  C     C_R   0.099803 0.389446 0.377710 -0.533087
C103  C     C_R   0.589203 0.113596 0.889537 -0.542970
C104  C     C_R   0.599710 0.889377 0.377829 -0.532903
H81   H     H_    0.172901 0.639031 0.212779 0.151241
H82   H     H_    0.171052 0.359066 0.716195 0.159238
H83   H     H_    0.673136 0.138851 0.211879 0.151476
H84   H     H_    0.670821 0.858957 0.716483 0.159391
H85   H     H_    0.255752 0.669697 0.187282 0.121666
H86   H     H_    0.256328 0.331654 0.680042 0.121682
H87   H     H_    0.756149 0.169434 0.186865 0.121484
H88   H     H_    0.755982 0.831449 0.681024 0.121385
H89   H     H_    0.823581 0.227337 0.267844 0.123370
H90   H     H_    0.824128 0.775019 0.760829 0.118677
H91   H     H_    0.323345 0.727487 0.267753 0.123467
H92   H     H_    0.324522 0.275228 0.759711 0.120387
H93   H     H_    0.820624 0.363392 0.985702 0.158499
H94   H     H_    0.815617 0.633275 0.492309 0.144037
H95   H     H_    0.320434 0.863505 0.986024 0.158320
H96   H     H_    0.315884 0.133469 0.491780 0.148255
H97   H     H_    0.165354 0.779346 0.941015 0.115800
H98   H     H_    0.164728 0.219182 0.446605 0.122082
H99   H     H_    0.665918 0.278859 0.938827 0.118757
H100  H     H_    0.664512 0.719047 0.446629 0.122011
H101  H     H_    0.733654 0.336656 0.018870 0.116753
H102  H     H_    0.732743 0.662227 0.527795 0.114589
H103  H     H_    0.233297 0.837027 0.020428 0.116183
H104  H     H_    0.232977 0.162377 0.527695 0.114741
H105  H     H_    0.143436 0.714985 0.772447 0.144136
H106  H     H_    0.143326 0.282556 0.270573 0.148425
H107  H     H_    0.644010 0.214489 0.770837 0.149610
H108  H     H_    0.643130 0.782433 0.270868 0.148390
H109  H     H_    0.844703 0.292277 0.436950 0.157450
H110  H     H_    0.847423 0.711866 0.932875 0.148420
H111  H     H_    0.344537 0.792419 0.437304 0.157448
H112  H     H_    0.347831 0.212147 0.932137 0.151263
H113  H     H_    0.063826 0.585780 0.842410 0.147046
H114  H     H_    0.081764 0.419823 0.323045 0.116119
H115  H     H_    0.563985 0.085502 0.841560 0.151725
H116  H     H_    0.581719 0.919761 0.323098 0.116062
N1    N     N_2   0.935459 0.428034 0.369767 -0.087887
H117  H     H_    0.931179 0.443906 0.476828 0.235136
C105  C     C_3   0.986808 0.414808 0.339063 -0.561699
H118  H     H_    0.013334 0.420128 0.440535 0.232812
H119  H     H_    0.003231 0.439136 0.258861 0.260608
H120  H     H_    0.989668 0.376880 0.305575 0.140938
N2    N     N_2   0.951409 0.588593 0.833443 -0.118046
H121  H     H_    0.985452 0.605658 0.867970 0.144843
C106  C     C_3   0.935798 0.551541 0.932768 -0.466978
H122  H     H_    0.970907 0.537282 0.995114 0.284697
H123  H     H_    0.913559 0.524328 0.863290 0.228655
H124  H     H_    0.909999 0.563742 0.020498 0.208973
N3    N     N_2   0.435441 0.928065 0.369798 -0.087690
H125  H     H_    0.431180 0.943930 0.476883 0.235508
C107  C     C_3   0.486777 0.914816 0.339069 -0.561198
H126  H     H_    0.513301 0.920154 0.440530 0.232802
H127  H     H_    0.503212 0.939129 0.258849 0.260655
H128  H     H_    0.489624 0.876883 0.305605 0.140976
N4    N     N_2   0.451411 0.088508 0.833467 -0.117277
H129  H     H_    0.485527 0.105506 0.867709 0.147773
C108  C     C_3   0.435791 0.051533 0.932980 -0.457548
H130  H     H_    0.470904 0.037268 0.995269 0.283693
H131  H     H_    0.413532 0.024325 0.863523 0.228224
H132  H     H_    0.410049 0.063837 0.020785 0.208928

loop_
_geom_bond_atom_site_label_1
_geom_bond_atom_site_label_2
_geom_bond_distance
_ccdc_geom_bond_type
C24   C28   1.520799 S    
C15   H31   1.108885 S    
C48   C80   1.514107 S    
C63   H87   1.082136 S    
C36   C56   1.401407 A    
C11   H23   1.110965 S    
C26   H58   1.110528 S    
C105  H118  1.057945 S    
C2    H10   1.110616 S    
C34   N2    1.387269 S    
C18   H42   1.106538 S    
C107  H127  1.090754 S    
N3    H125  1.029038 S    
C67   C99   1.520183 S    
C93   C97   1.425781 A    
O38   C13   1.390202 S    
C20   H48   1.110799 S    
C57   C63   1.411659 A    
C73   C77   1.409894 A    
C4    C32   1.520071 S    
C95   H83   1.081809 S    
C44   H96   1.081495 S    
C35   N3    1.406824 S    
C58   C78   1.411339 A    
C73   H101  1.082589 S    
P4    O8    1.574135 S    
O6    Ba1   2.834478 S    
C82   C98   1.422399 A    
C25   H57   1.110665 S    
O9    Ba1   2.783666 S    
C27   H63   1.110153 S    
P9    O41   1.750208 S    
O18   C22   1.410071 S    
C86   C102  1.384754 A    
C22   H50   1.110688 S    
C103  H115  1.079011 S    
C15   H35   1.111434 S    
C76   C80   1.410964 A    
C5    H17   1.110356 S    
C29   H69   1.111875 S    
C83   C99   1.418077 A    
C17   H41   1.108948 S    
O32   Ba4   2.783190 S    
C10   H22   1.110703 S    
C20   H44   1.106453 S    
Ba1   O46   2.972884 S    
C31   H71   1.111866 S    
C14   H30   1.106305 S    
O16   P15   1.547887 D    
C61   C65   1.410893 A    
C38   C42   1.413638 A    
P10   C85   1.854377 S    
C2    H74   1.110641 S    
C61   H85   1.082121 S    
C107  H126  1.057897 S    
C102  H114  1.064927 S    
C70   H98   1.082399 S    
O39   C16   1.395677 S    
C21   H49   1.110409 S    
H3    C31   1.110998 S    
H4    C32   1.113903 S    
C4    H12   1.110593 S    
C62   H86   1.082512 S    
C22   H54   1.111572 S    
P8    C91   1.870786 S    
C23   C27   1.521457 S    
C65   C69   1.413765 A    
C43   H95   1.082093 S    
C33   C53   1.400121 A    
P3    C39   1.888376 S    
P1    C37   1.888367 S    
C68   C100  1.512325 S    
O22   P13   1.746088 S    
O10   Ba2   2.807394 S    
C83   H107  1.081966 S    
C3    H75   1.110787 S    
C84   H108  1.081908 S    
O10   P13   1.784897 S    
P10   O42   1.746984 S    
C45   C77   1.518144 S    
C17   H45   1.110884 S    
C81   H105  1.081999 S    
C82   C86   1.407173 A    
C71   H99   1.082165 S    
O28   Ba4   2.831662 S    
C72   H100  1.082390 S    
P3    O7    1.566339 S    
O24   C32   1.405792 S    
C58   C64   1.407130 A    
C21   H53   1.108769 S    
C96   H84   1.081975 S    
C5    H13   1.112630 S    
C91   C95   1.417847 A    
C7    H15   1.112636 S    
C49   H109  1.082002 S    
C69   C75   1.411759 A    
C52   H112  1.082082 S    
C92   C96   1.412988 A    
N2    C106  1.435274 S    
C82   H106  1.081918 S    
C105  H119  1.090776 S    
O29   Ba1   2.806898 S    
O14   P13   1.546860 D    
C75   C79   1.409852 A    
O31   Ba3   2.806898 S    
C84   C88   1.407154 A    
P9    O29   1.772734 S    
C19   H43   1.108908 S    
P12   O32   1.755774 S    
C9    H25   1.110665 S    
O4    Ba4   2.830768 S    
C11   H27   1.110665 S    
C50   C54   1.405256 A    
C3    H11   1.110733 S    
C18   H38   1.110721 S    
C52   C56   1.405286 A    
C81   C97   1.418025 A    
P5    O25   1.555343 D    
C90   C102  1.388875 A    
C106  H123  1.092996 S    
C41   H93   1.082078 S    
C88   C104  1.384725 A    
C47   C51   1.420358 A    
C108  H131  1.093065 S    
C16   H36   1.111518 S    
P13   C54   1.895846 S    
C66   C70   1.411658 A    
C84   C100  1.422405 A    
C28   H68   1.109880 S    
C65   C97   1.520013 S    
P2    O18   1.749781 S    
P9    C86   1.865261 S    
C13   C17   1.521761 S    
C27   H67   1.109129 S    
C24   H52   1.110408 S    
C15   C19   1.521795 S    
N1    H117  1.029041 S    
O19   C23   1.408264 S    
C26   H66   1.110202 S    
C57   C77   1.412790 A    
O17   C21   1.408269 S    
O25   Ba1   2.833206 S    
C7    C11   1.519540 S    
O27   Ba3   2.833206 S    
O30   Ba2   2.783190 S    
P5    O37   1.750055 S    
C93   H81   1.081782 S    
C20   H40   1.110729 S    
Ba2   O45   2.969485 S    
C1    C29   1.519657 S    
C68   C72   1.411726 A    
C37   C41   1.415955 A    
C89   C93   1.417891 A    
C40   C44   1.413487 A    
C13   H33   1.111447 S    
C28   H64   1.110483 S    
C60   C80   1.411300 A    
C25   H65   1.109113 S    
C46   C50   1.424070 A    
C57   H89   1.082312 S    
P10   O34   1.544646 D    
C81   C85   1.406822 A    
C22   C26   1.521142 S    
C43   C47   1.426339 A    
C23   H55   1.108751 S    
C41   C45   1.426385 A    
O1    Ba1   2.829232 S    
C59   C61   1.411542 A    
O11   Ba3   2.783666 S    
C74   H102  1.082234 S    
O3    Ba3   2.829232 S    
Ba3   O48   2.972884 S    
O24   P15   1.747301 S    
C12   H28   1.110657 S    
C14   C18   1.522114 S    
C8    H20   1.111654 S    
C85   C101  1.394415 A    
O9    P14   1.771637 S    
O26   Ba2   2.831662 S    
C94   C98   1.426900 A    
P11   O43   1.750173 S    
C45   C49   1.420461 A    
P1    O1    1.548739 D    
C44   C48   1.428724 A    
O37   C14   1.396047 S    
P6    O38   1.750882 S    
P3    O3    1.548739 D    
P4    O20   1.749893 S    
Ba1   O45   2.813182 S    
C21   C25   1.521457 S    
C104  H116  1.064828 S    
C34   C38   1.392151 A    
P6    C89   1.871257 S    
H1    C29   1.110980 S    
C50   H110  1.082112 S    
O41   C5    1.405811 S    
P4    O4    1.555681 D    
C51   C55   1.407660 A    
C33   N1    1.406882 S    
C6    H18   1.110351 S    
C12   H80   1.110955 S    
C107  H128  1.109735 S    
N3    C107  1.440915 S    
C76   H104  1.082241 S    
P15   C56   1.894998 S    
P9    O33   1.545932 D    
P4    Ba4   3.409572 S    
C19   H47   1.110885 S    
N4    H129  1.024131 S    
P10   O30   1.757983 S    
C8    H16   1.111837 S    
O11   P16   1.771600 S    
P1    O5    1.566339 S    
O2    Ba2   2.830768 S    
P12   O36   1.547025 D    
C48   C52   1.424070 A    
C9    H21   1.110965 S    
O21   C29   1.406578 S    
C64   H88   1.082505 S    
C1    H5    1.110604 S    
C96   C100  1.426929 A    
P11   C88   1.865239 S    
C3    H7    1.110587 S    
C47   C79   1.517856 S    
P16   C55   1.870383 S    
C67   C71   1.413769 A    
P8    Ba4   3.414309 S    
O20   C24   1.410042 S    
C51   H111  1.082024 S    
P6    O26   1.548414 D    
P11   O35   1.545932 D    
C42   H94   1.081538 S    
P7    Ba3   3.411318 S    
C59   C79   1.412698 A    
C92   C104  1.388833 A    
C95   C99   1.425578 A    
Ba1   Ba2   4.685164 S    
C4    H76   1.110782 S    
Ba3   Ba4   4.685164 S    
N2    H121  1.023901 S    
C34   C54   1.401938 A    
C70   C76   1.411132 A    
C24   H56   1.111407 S    
C59   H91   1.082332 S    
C23   H51   1.110411 S    
C60   H92   1.082412 S    
C1    H9    1.110732 S    
C46   C78   1.514226 S    
C18   H46   1.110797 S    
C7    H19   1.110383 S    
C32   H72   1.110385 S    
C9    H77   1.110957 S    
C6    H14   1.114359 S    
C2    C30   1.520374 S    
P12   C87   1.852822 S    
C63   C67   1.410898 A    
P1    O17   1.754375 S    
C106  H122  1.088393 S    
P3    O19   1.754410 S    
C87   C103  1.394508 A    
C26   H62   1.110487 S    
C28   H60   1.110518 S    
C72   C74   1.411205 A    
C25   H61   1.110150 S    
O8    Ba3   2.834478 S    
C108  H130  1.088375 S    
C27   H59   1.110689 S    
C58   H90   1.082414 S    
P12   O44   1.750709 S    
P1    Ba1   3.412474 S    
C35   C39   1.398533 A    
P3    Ba3   3.412474 S    
C74   C78   1.410979 A    
P5    C90   1.879409 S    
C10   H26   1.110665 S    
C16   H32   1.106358 S    
C12   H24   1.110792 S    
P5    Ba1   3.411318 S    
C3    C31   1.519659 S    
C49   C53   1.407784 A    
C14   H34   1.111380 S    
C1    H73   1.110787 S    
C8    C12   1.519566 S    
C39   C43   1.415949 A    
C17   H37   1.110691 S    
C101  H113  1.078998 S    
C89   C101  1.393996 A    
P2    O2    1.555681 D    
C10   H78   1.110613 S    
P7    O39   1.749899 S    
O42   C6    1.402881 S    
P7    O48   1.579523 S    
Ba2   O46   2.833897 S    
O12   P15   1.783596 S    
P8    O47   1.571593 S    
P14   C53   1.870460 S    
C91   C103  1.394610 A    
C64   C68   1.408955 A    
C4    H8    1.111005 S    
C105  H120  1.109689 S    
H2    C30   1.114571 S    
C33   C37   1.398505 A    
C62   C66   1.409008 A    
P6    O45   1.571593 S    
P8    O40   1.750914 S    
C36   C40   1.391737 A    
N4    C108  1.434777 S    
C36   N4    1.387296 S    
P2    C38   1.903816 S    
O23   P16   1.754016 S    
C71   C73   1.411771 A    
O21   P14   1.754020 S    
O44   C8    1.406520 S    
C66   C98   1.512300 S    
C6    C10   1.520160 S    
O12   Ba4   2.807394 S    
P2    Ba2   3.409572 S    
C94   H82   1.081995 S    
C106  H124  1.110116 S    
P11   O31   1.772671 S    
P2    O6    1.574135 S    
Ba3   O47   2.813182 S    
Ba4   O48   2.833897 S    
P7    O27   1.555343 D    
C5    C9    1.519542 S    
C108  H132  1.110453 S    
P8    O28   1.548414 D    
O22   C30   1.403009 S    
C2    H6    1.110797 S    
P6    Ba2   3.414309 S    
P5    O46   1.579523 S    
C83   C87   1.406979 A    
C16   C20   1.522187 S    
C90   C94   1.413025 A    
O5    Ba2   2.813726 S    
C35   C55   1.400114 A    
O7    Ba4   2.813726 S    
O40   C15   1.390035 S    
O43   C7    1.405819 S    
C69   H97   1.082253 S    
N1    C105  1.440984 S    
C30   H70   1.110649 S    
O15   P16   1.547638 D    
O13   P14   1.547644 D    
C42   C46   1.428871 A    
C11   H79   1.110954 S    
P7    C92   1.879499 S    
C75   H103  1.082603 S    
Ba4   O47   2.969485 S    
C60   C62   1.407244 A    
C19   H39   1.110693 S    
C13   H29   1.108944 S    
P4    C40   1.902984 S    
O23   C31   1.406565 S    
