data_mof_unit_57134.cif
_audit_creation_date              2013-03-05T15:52:43-0500
_audit_creation_method            fapswitch 2.2
_symmetry_space_group_name_H-M    P1
_symmetry_Int_Tables_number       1
_space_group_crystal_system       triclinic
_cell_length_a                    10.708703
_cell_length_b                    10.799593
_cell_length_c                    16.999615
_cell_angle_alpha                 99.828874
_cell_angle_beta                  99.507436
_cell_angle_gamma                 61.387854
_cell_volume                      1692.65307657

loop_
_atom_site_label
_atom_site_type_symbol
_atom_site_description
_atom_site_fract_x
_atom_site_fract_y
_atom_site_fract_z
_atom_type_partial_charge
O1    O     O_R   0.749250 0.499990 0.439200 -0.501403
O2    O     O_R   0.477870 0.725740 0.440280 -0.531141
C1    C     C_R   0.354637 0.775574 0.401780 0.613497
O3    O     O_R   0.260770 0.742210 0.412610 -0.456559
O4    O     O_R   0.297990 0.466320 0.394220 -0.493706
C2    C     C_R   0.369605 0.346301 0.357262 0.542969
O5    O     O_R   0.487720 0.253870 0.385870 -0.516235
O6    O     O_R   0.721940 0.304340 0.422320 -0.494514
C3    C     C_R   0.776395 0.376874 0.404794 0.563309
O7    O     O_R   0.750770 0.502570 0.614050 -0.459078
O8    O     O_R   0.479280 0.728140 0.602370 -0.488766
C4    C     C_R   0.381794 0.712901 0.631202 0.542981
O9    O     O_R   0.262290 0.744790 0.587460 -0.473537
O10   O     O_R   0.299400 0.468710 0.556310 -0.487163
C5    C     C_R   0.364097 0.346229 0.579303 0.550252
O11   O     O_R   0.489240 0.256450 0.560730 -0.460093
O12   O     O_R   0.723350 0.306730 0.584410 -0.506092
C6    C     C_R   0.771175 0.382265 0.630087 0.583334
Cr1   Cr    Cr6+3 0.608020 0.610770 0.522990 1.081782
Cr2   Cr    Cr6+3 0.289390 0.599570 0.488050 1.095557
Cr3   Cr    Cr6+3 0.602610 0.289690 0.489020 1.062852
O13   O     O_3   0.500010 0.500010 0.500020 -0.308586
C7    C     C_1   0.343162 0.335972 0.273912 -0.024564
C8    C     C_1   0.331389 0.326652 0.203011 -0.012040
C9    C     C_2   0.847951 0.329347 0.332276 -0.097635
C10   C     C_2   0.829661 0.330707 0.159684 -0.109464
C11   C     C_2   0.854860 0.218038 0.195266 -0.157973
C12   C     C_2   0.827266 0.233559 0.278006 -0.131531
H1    H     H_    0.900347 0.111293 0.164489 0.178959
H2    H     H_    0.782560 0.169827 0.292782 0.174801
H3    H     H_    0.780185 0.437571 0.190136 0.117135
H4    H     H_    0.897443 0.388848 0.317521 0.109000
C13   C     C_2   0.326706 0.858046 0.335792 0.289402
C14   C     C_2   0.347831 0.820400 0.157195 0.245507
C15   C     C_2   0.419826 0.868591 0.215865 -0.118264
C16   C     C_2   0.438674 0.835571 0.298067 -0.115564
H5    H     H_    0.456268 0.942110 0.205518 0.115330
H6    H     H_    0.548063 0.776442 0.323738 0.121151
C17   C     C_2   0.294011 0.318107 0.635402 0.206455
C18   C     C_2   0.326247 0.312024 0.815918 0.313637
C19   C     C_2   0.323426 0.212708 0.754998 0.233851
C20   C     C_2   0.367372 0.204735 0.676401 0.162038
C21   C     C_1   0.814844 0.343422 0.709166 0.031721
C22   C     C_1   0.842438 0.314074 0.776647 0.007645
C23   C     C_1   0.359706 0.760889 0.713785 -0.016679
C24   C     C_1   0.327294 0.808192 0.780911 0.020513
O14   O     O_R   0.170650 0.915100 0.051290 -0.515485
O15   O     O_R   0.941960 0.184500 0.049060 -0.501592
C25   C     C_R   0.894161 0.308036 0.086777 0.549111
O16   O     O_R   0.922640 0.402670 0.071640 -0.509357
O17   O     O_R   0.196880 0.368740 0.083740 -0.499421
C26   C     C_R   0.319004 0.299792 0.119689 0.548638
O18   O     O_R   0.411120 0.181190 0.091480 -0.522128
O19   O     O_R   0.364220 0.944920 0.062310 -0.526014
C27   C     C_R   0.294846 0.890259 0.083474 0.526012
O20   O     O_R   0.158740 0.906940 0.874970 -0.480473
O21   O     O_R   0.930920 0.176940 0.885610 -0.486031
C28   C     C_R   0.885364 0.296932 0.858765 0.566168
O22   O     O_R   0.910730 0.394510 0.895320 -0.496294
O23   O     O_R   0.185840 0.361180 0.920280 -0.479569
C29   C     C_R   0.308019 0.291510 0.893577 0.654357
O24   O     O_R   0.399210 0.173040 0.915160 -0.504720
O25   O     O_R   0.353170 0.937370 0.898860 -0.472515
C30   C     C_R   0.281261 0.879645 0.857551 0.594300
Cr4   Cr    Cr6+3 0.053780 0.052210 0.965970 1.067292
Cr5   Cr    Cr6+3 0.060060 0.372530 0.992430 1.072977
Cr6   Cr    Cr6+3 0.372600 0.061970 0.991430 1.053079
O26   O     O_3   0.162150 0.162240 0.983280 -0.266029
O27   O     O_3   0.490842 0.089775 0.650663 -0.680412
H7    H     H_    0.530529 0.021013 0.691265 0.342095
O28   O     O_3   0.368802 0.413248 0.811901 -0.725012
H8    H     H_    0.418156 0.390886 0.763242 0.307210
N1    N     N_R   0.153525 0.425349 0.656054 0.053120
O29   O     O_R   0.060230 0.388131 0.668621 -0.338357
O30   O     O_R   0.119818 0.559501 0.664874 -0.288058
O31   O     O_3   0.308194 0.722210 0.171489 -0.674080
H9    H     H_    0.258654 0.698163 0.121337 0.336159
O32   O     O_3   0.185446 0.939592 0.307665 -0.662742
H10   H     H_    0.180065 0.008521 0.273826 0.320647
O33   O     O_3   0.278993 0.116924 0.767127 -0.699174
H11   H     H_    0.276820 0.058907 0.715437 0.333203

loop_
_geom_bond_atom_site_label_1
_geom_bond_atom_site_label_2
_geom_bond_distance
_ccdc_geom_bond_type
C8    C26   1.393756 S    
Cr5   O26   1.983602 S    
O11   Cr3   2.035819 S    
C18   O28   1.385740 S    
C11   H1    1.086471 S    
N1    O29   1.299907 A    
C15   C16   1.458998 S    
C19   O33   1.384051 S    
C3    C9    1.445570 S    
O4    Cr2   1.939464 S    
C23   C24   1.202334 T    
C9    C12   1.340324 D    
O8    Cr1   1.919690 S    
C10   C11   1.342432 D    
O24   Cr6   2.044871 S    
C15   H5    1.086613 S    
O22   Cr5   2.058384 S    
O4    C2    1.261743 A    
C13   O32   1.386145 S    
C1    C13   1.454721 S    
C5    O11   1.275340 A    
C13   C16   1.352777 D    
C14   C15   1.346498 D    
C19   C20   1.464136 S    
C22   C28   1.410331 S    
O6    C3    1.271623 A    
C7    C8    1.182910 T    
O20   C30   1.274429 A    
O15   Cr4   1.923913 S    
C9    H4    1.087131 S    
O23   Cr5   1.915707 S    
C14   C27   1.462748 S    
Cr3   O13   1.983421 S    
N1    O30   1.301777 A    
O27   H7    0.992119 S    
O6    Cr3   1.917601 S    
C17   C20   1.338369 D    
O25   Cr6   1.940986 S    
O1    Cr1   2.035794 S    
Cr6   O26   1.970149 S    
O10   Cr2   1.931046 S    
Cr1   O13   1.984323 S    
O1    C3    1.270797 A    
O31   H9    0.991317 S    
C10   C25   1.445808 S    
O32   H10   0.991226 S    
C4    C23   1.428044 S    
O19   Cr6   1.929309 S    
C28   O22   1.251112 A    
O5    Cr3   2.061479 S    
C20   O27   1.383652 S    
O12   Cr3   1.941278 S    
C18   C29   1.434025 S    
O17   C26   1.263687 A    
C24   C30   1.428449 S    
O23   C29   1.273103 A    
O17   Cr5   1.941846 S    
C21   C22   1.194238 T    
O7    Cr1   2.055122 S    
Cr4   O26   1.983410 S    
O12   C6    1.258244 A    
O16   Cr5   2.032461 S    
C5    C17   1.455561 S    
C18   C19   1.365757 D    
Cr2   O13   1.971051 S    
C1    O3    1.266814 A    
C26   O18   1.257008 A    
O14   C27   1.268129 A    
O19   C27   1.269116 A    
O15   C25   1.270963 A    
O9    Cr2   2.054495 S    
O2    Cr1   1.937098 S    
O21   Cr4   1.936184 S    
O33   H11   0.992209 S    
O8    C4    1.310829 A    
C2    O5    1.259401 A    
C12   H2    1.086436 S    
O2    C1    1.270525 A    
O28   H8    0.987855 S    
C6    C21   1.413790 S    
O21   C28   1.283903 A    
O7    C6    1.280404 A    
C2    C7    1.394281 S    
C16   H6    1.086395 S    
C17   N1    1.447338 S    
C29   O24   1.253181 A    
O18   Cr6   2.061531 S    
O25   C30   1.267442 A    
O3    Cr2   2.050383 S    
C10   H3    1.087021 S    
C4    O9    1.288489 A    
C25   O16   1.271993 A    
C11   C12   1.450232 S    
O10   C5    1.261660 A    
O14   Cr4   2.054569 S    
O20   Cr4   2.043203 S    
C14   O31   1.384491 S    
