data_mof_unit_40230.cif
_audit_creation_date              2012-12-11T16:57:10-0500
_audit_creation_method            fapswitch 2.2
_symmetry_space_group_name_H-M    P1
_symmetry_Int_Tables_number       1
_space_group_crystal_system       monoclinic
_cell_length_a                    14.511382
_cell_length_b                    16.146032
_cell_length_c                    6.976541
_cell_angle_alpha                 90.0
_cell_angle_beta                  98.779287
_cell_angle_gamma                 90.0
_cell_volume                      1615.46046114

loop_
_atom_site_label
_atom_site_type_symbol
_atom_type_description
_atom_site_fract_x
_atom_site_fract_y
_atom_site_fract_z
_atom_type_partial_charge
O1    O     O_R   0.584990 0.413650 0.534420 -0.535624
O2    O     O_R   0.584990 0.586350 0.534420 -0.535624
O3    O     O_R   0.596190 0.585230 0.208380 -0.545019
O4    O     O_R   0.596190 0.414770 0.208380 -0.545019
O5    O     O_R   0.415010 0.586420 0.976930 -0.539682
O6    O     O_R   0.415010 0.413580 0.976930 -0.539682
C1    C     C_R   0.618636 0.614226 0.384103 0.699831
C2    C     C_R   0.618636 0.385774 0.384103 0.699831
O7    O     O_3   0.440560 0.500000 0.319140 -0.371312
V1    V     V_3+5 0.511030 0.500000 0.068070 1.407593
O8    O     O_R   0.403810 0.414840 0.643540 -0.542239
O9    O     O_R   0.403810 0.585160 0.643540 -0.542239
C3    C     C_R   0.381623 0.386072 0.805908 0.757921
C4    C     C_R   0.381623 0.613928 0.805908 0.757920
V2    V     V_3+5 0.488970 0.500000 0.560620 1.417902
O10   O     O_3   0.559440 0.500000 0.859420 -0.374352
H1    H     H_    0.188134 0.806058 0.806900 0.150713
H2    H     H_    0.188137 0.193940 0.806900 0.150713
H3    H     H_    0.318672 0.693141 0.100877 0.154582
H4    H     H_    0.318669 0.306861 0.100877 0.154582
C5    C     C_2   0.312362 0.681833 0.796626 -0.328031
C6    C     C_2   0.312363 0.318166 0.796626 -0.328030
C7    C     C_2   0.287767 0.715647 0.958687 -0.115707
C8    C     C_2   0.287767 0.284353 0.958687 -0.115707
H5    H     H_    0.225427 0.795340 0.252945 0.125102
H6    H     H_    0.225425 0.204662 0.252945 0.125101
C9    C     C_2   0.194531 0.818041 0.110947 -0.309400
C10   C     C_2   0.194530 0.181959 0.110947 -0.309399
C11   C     C_2   0.219079 0.783798 0.949289 -0.115732
C12   C     C_2   0.219079 0.216202 0.949289 -0.115732
H7    H     H_    0.281470 0.704920 0.654968 0.128138
H8    H     H_    0.281472 0.295078 0.654968 0.128138
C13   C     C_R   0.750503 0.689263 0.591456 0.038597
C14   C     C_R   0.750504 0.310738 0.591456 0.038596
C15   C     C_R   0.689803 0.681272 0.415473 -0.082790
C16   C     C_R   0.689803 0.318728 0.415473 -0.082790
C17   C     C_R   0.696924 0.741203 0.271430 -0.154861
C18   C     C_R   0.696924 0.258796 0.271431 -0.154860
H9    H     H_    0.649928 0.739087 0.135408 0.149339
H10   H     H_    0.649927 0.260912 0.135408 0.149339
C19   C     C_R   0.760024 0.808126 0.307274 -0.087082
C20   C     C_R   0.760024 0.191874 0.307274 -0.087082
H11   H     H_    0.759708 0.856595 0.202063 0.193623
H12   H     H_    0.759707 0.143405 0.202063 0.193624
C21   C     C_R   0.819951 0.816177 0.483672 -0.059930
C22   C     C_R   0.819951 0.183823 0.483672 -0.059929
C23   C     C_R   0.812551 0.756226 0.625027 0.006338
C24   C     C_R   0.812551 0.243774 0.625027 0.006338
C25   C     C_3   0.788008 0.770237 0.821587 0.278001
C26   C     C_3   0.788008 0.229764 0.821587 0.278002
C27   C     C_3   0.725449 0.694417 0.790806 -0.440696
C28   C     C_3   0.725450 0.305584 0.790806 -0.440697
H13   H     H_    0.650216 0.707943 0.789573 0.202460
H14   H     H_    0.650217 0.292058 0.789574 0.202460
H15   H     H_    0.751445 0.639770 0.880232 0.145424
H16   H     H_    0.751447 0.360231 0.880231 0.145424
O11   O     O_R   0.921430 0.915960 0.371040 -0.534208
O12   O     O_R   0.921430 0.084040 0.371040 -0.534208
O13   O     O_R   0.910450 0.087500 0.697310 -0.518115
O14   O     O_R   0.910450 0.912500 0.697310 -0.518115
O15   O     O_R   0.091710 0.087460 0.928430 -0.550965
O16   O     O_R   0.091710 0.912540 0.928430 -0.550965
C29   C     C_R   0.887565 0.113896 0.519556 0.734714
C30   C     C_R   0.887565 0.886104 0.519556 0.734714
O17   O     O_3   0.065970 0.000000 0.586140 -0.393616
V3    V     V_3+5 0.995640 0.000000 0.837400 1.554685
O18   O     O_R   0.103020 0.915700 0.261710 -0.545305
O19   O     O_R   0.103020 0.084300 0.261710 -0.545305
C31   C     C_R   0.125269 0.886021 0.100168 0.764135
C32   C     C_R   0.125269 0.113979 0.100168 0.764135
V4    V     V_3+5 0.017940 0.000000 0.344880 1.478829
O20   O     O_3   0.947330 0.000000 0.046180 -0.339716
Cl1   Cl    Cl    0.723746 0.864814 0.832057 -0.626144
Cl2   Cl    Cl    0.723746 0.135187 0.832057 -0.626145
C33   C     C_1   0.870034 0.761076 0.972318 0.292866
N1    N     N_1   0.934849 0.753694 0.090240 -0.380260
C34   C     C_1   0.870034 0.238924 0.972318 0.292868
N2    N     N_1   0.934849 0.246306 0.090240 -0.380260

loop_
_geom_bond_atom_site_label_1
_geom_bond_atom_site_label_2
_ccdc_geom_bond_type
O15   C32   A    
C9    C11   D    
O1    C2    A    
H1    C11   S    
O2    C1    A    
O4    C2    A    
C23   C25   S    
C34   N2    T    
C5    H7    S    
C6    H8    S    
C7    C11   S    
C4    C5    S    
C15   C17   A    
C18   C20   A    
O3    C1    A    
C26   Cl2   S    
O13   V3    S    
C20   C22   A    
O12   V4    S    
V2    O10   S    
C2    C16   S    
C14   C28   S    
O8    V2    S    
O15   V3    S    
V3    O20   S    
H4    C8    S    
C25   C27   S    
C26   C28   S    
C25   C33   S    
H2    C12   S    
O7    V1    S    
C14   C16   A    
C9    C31   S    
C6    C8    D    
C24   C26   S    
O14   V3    S    
C19   H11   S    
C20   H12   S    
C28   H14   S    
C21   C23   A    
C22   C24   A    
O16   V3    S    
C27   H15   S    
O17   V4    S    
O16   C31   A    
O18   C31   A    
H3    C7    S    
C33   N1    T    
O9    V2    S    
O11   V4    S    
O2    V2    S    
O5    C4    A    
O1    V2    S    
O9    C4    A    
C5    C7    D    
C13   C23   A    
C25   Cl1   S    
O13   C29   A    
C13   C27   S    
O4    V1    S    
C26   C34   S    
O11   C30   A    
O12   C29   A    
C1    C15   S    
C10   C32   S    
O6    V1    S    
H5    C9    S    
C21   C30   S    
H6    C10   S    
C22   C29   S    
O14   C30   A    
C16   C18   A    
O7    V2    S    
O5    V1    S    
C17   H9    S    
O3    V1    S    
V1    O10   S    
O6    C3    A    
C18   H10   S    
O8    C3    A    
O19   V4    S    
C10   C12   D    
C13   C15   A    
C3    C6    S    
O18   V4    S    
C17   C19   A    
C8    C12   S    
V4    O20   S    
C14   C24   A    
O19   C32   A    
O17   V3    S    
C19   C21   A    
C27   H13   S    
C28   H16   S    
