data_mof_unit_9826.cif
_audit_creation_date              2012-12-10T20:03:08-0500
_audit_creation_method            fapswitch 2.2
_symmetry_space_group_name_H-M    P1
_symmetry_Int_Tables_number       1
_space_group_crystal_system       triclinic
_cell_length_a                    8.580674
_cell_length_b                    19.334344
_cell_length_c                    18.452711
_cell_angle_alpha                 89.944916
_cell_angle_beta                  98.736999
_cell_angle_gamma                 90.092776
_cell_volume                      3025.80768333

loop_
_atom_site_label
_atom_site_type_symbol
_atom_type_description
_atom_site_fract_x
_atom_site_fract_y
_atom_site_fract_z
_atom_type_partial_charge
C1    C     C_R   0.499700 0.365639 0.500031 0.861222
C2    C     C_R   0.500239 0.634361 0.499966 0.861211
C3    C     C_R   0.606936 0.964371 0.551133 -0.186904
C4    C     C_R   0.391120 0.035629 0.448866 -0.186934
C5    C     C_R   0.606213 0.036002 0.551165 -0.186479
C6    C     C_R   0.391847 0.963993 0.448833 -0.186509
C7    C     C_R   0.498310 0.071741 0.500031 0.107640
C8    C     C_R   0.499769 0.928257 0.499963 0.107633
C9    C     C_R   0.606748 0.540377 0.732239 -0.031734
C10   C     C_R   0.393263 0.459616 0.267761 -0.031723
C11   C     C_R   0.610483 0.543442 0.808879 -0.068581
C12   C     C_R   0.389537 0.456548 0.191123 -0.068590
C13   C     C_R   0.501962 0.502719 0.841640 0.058854
C14   C     C_R   0.498050 0.497273 0.158361 0.058849
C15   C     C_R   0.392848 0.461969 0.795458 -0.301851
C16   C     C_R   0.607150 0.538031 0.204541 -0.301858
C17   C     C_R   0.393915 0.461247 0.719569 0.008794
C18   C     C_R   0.606078 0.538757 0.280430 0.008812
C19   C     C_R   0.360108 0.510553 0.951691 -0.207934
C20   C     C_R   0.639905 0.489434 0.048310 -0.207929
C21   C     C_R   0.359038 0.510295 0.027692 -0.151260
C22   C     C_R   0.640973 0.489688 0.972309 -0.151271
C23   C     C_R   0.200832 0.499975 0.480853 0.980045
C24   C     C_R   0.799168 0.500025 0.519147 0.980067
C25   C     C_R   0.498752 0.499082 0.077061 0.110799
C26   C     C_R   0.501259 0.500904 0.922940 0.110780
C27   C     C_2   0.035781 0.500011 0.470473 -0.389379
C28   C     C_2   0.964218 0.499989 0.529527 -0.389404
C29   C     C_R   0.498345 0.745678 0.433949 -0.194984
C30   C     C_R   0.500892 0.254359 0.566030 -0.195005
C31   C     C_R   0.498153 0.817312 0.433987 -0.180823
C32   C     C_R   0.500482 0.182728 0.565978 -0.180873
C33   C     C_R   0.500422 0.853156 0.499980 0.118948
C34   C     C_R   0.497884 0.146844 0.499977 0.118963
C35   C     C_R   0.503067 0.817168 0.565988 -0.179168
C36   C     C_R   0.495440 0.182793 0.433964 -0.179110
C37   C     C_R   0.503097 0.745539 0.566026 -0.191569
C38   C     C_R   0.496008 0.254425 0.433940 -0.191556
C39   C     C_R   0.500593 0.709472 0.499974 -0.030537
C40   C     C_R   0.498904 0.290528 0.500008 -0.030531
H1    H     H_    0.973647 0.500077 0.414484 0.175107
H2    H     H_    0.026353 0.499923 0.585516 0.175106
H3    H     H_    0.308291 0.430046 0.818150 0.146132
H4    H     H_    0.691700 0.569958 0.181849 0.146128
H5    H     H_    0.309821 0.429555 0.684602 0.125563
H6    H     H_    0.690164 0.570454 0.315397 0.125564
H7    H     H_    0.250623 0.519163 0.915225 0.134503
H8    H     H_    0.749392 0.480829 0.084778 0.134491
H9    H     H_    0.248756 0.519089 0.047961 0.143264
H10   H     H_    0.751254 0.480894 0.952041 0.143271
H11   H     H_    0.496838 0.718801 0.382375 0.155085
H12   H     H_    0.502659 0.281263 0.617616 0.155104
H13   H     H_    0.497733 0.844769 0.382746 0.129583
H14   H     H_    0.500758 0.155306 0.617225 0.129591
H15   H     H_    0.503329 0.844500 0.617230 0.130861
H16   H     H_    0.494936 0.155428 0.382716 0.130835
H17   H     H_    0.504734 0.718559 0.617614 0.156766
H18   H     H_    0.494520 0.281378 0.382352 0.156725
H19   H     H_    0.692089 0.937146 0.590313 0.133421
H20   H     H_    0.306005 0.062858 0.409675 0.133401
H21   H     H_    0.690870 0.063528 0.590351 0.132867
H22   H     H_    0.307237 0.936462 0.409635 0.132857
H23   H     H_    0.687476 0.571554 0.706249 0.131606
H24   H     H_    0.312539 0.428436 0.293751 0.131602
N1    N     N_R   0.500020 0.499980 0.689440 -0.096801
N2    N     N_R   0.499980 0.500020 0.310560 -0.096800
O1    O     O_R   0.500010 0.398180 0.560840 -0.626827
O2    O     O_R   0.499990 0.601820 0.439160 -0.626811
O3    O     O_R   0.499930 0.398180 0.439210 -0.626901
O4    O     O_R   0.500070 0.601820 0.560790 -0.626924
O5    O     O_R   0.271780 0.500000 0.546590 -0.617633
O6    O     O_R   0.728220 0.500000 0.453410 -0.617619
O7    O     O_R   0.271710 0.499990 0.424960 -0.631599
O8    O     O_R   0.728290 0.500010 0.575040 -0.631589
Zn1   Zn    Zn3+2 0.500050 0.500000 0.581210 0.937335
Zn2   Zn    Zn3+2 0.499950 0.500000 0.418790 0.937350
C41   C     C_R   0.723583 0.591491 0.851943 0.097240
C42   C     C_R   0.670650 0.641513 0.897806 -0.122755
C43   C     C_R   0.777860 0.686578 0.938336 -0.141743
C44   C     C_R   0.938220 0.682668 0.932816 -0.112300
C45   C     C_R   0.991644 0.633790 0.886612 -0.136206
C46   C     C_R   0.885009 0.588331 0.846273 -0.180483
H25   H     H_    0.546510 0.645715 0.902051 0.125577
H26   H     H_    0.736493 0.724728 0.973828 0.123972
H27   H     H_    0.021003 0.717708 0.964101 0.120239
H28   H     H_    0.115731 0.631224 0.882011 0.125323
H29   H     H_    0.928379 0.550374 0.811105 0.123764
C47   C     C_R   0.276465 0.408489 0.148062 0.097257
C48   C     C_R   0.115027 0.411658 0.153706 -0.180503
C49   C     C_R   0.008417 0.366187 0.113371 -0.136194
C50   C     C_R   0.061881 0.317286 0.067202 -0.112292
C51   C     C_R   0.222253 0.313367 0.061710 -0.141750
C52   C     C_R   0.329437 0.358447 0.102232 -0.122749
H30   H     H_    0.071629 0.449632 0.188848 0.123767
H31   H     H_    0.884318 0.368760 0.117950 0.125321
H32   H     H_    0.979119 0.282235 0.035921 0.120238
H33   H     H_    0.263650 0.275198 0.026247 0.123971
H34   H     H_    0.453586 0.354241 0.098010 0.125566

loop_
_geom_bond_atom_site_label_1
_geom_bond_atom_site_label_2
_ccdc_geom_bond_type
C30   C32   A    
O6    Zn2   S    
C21   H9    S    
C45   C46   A    
C49   H31   S    
C41   C42   A    
C19   C21   A    
C17   H5    S    
C2    O2    A    
C43   H26   S    
C19   H7    S    
C20   C25   A    
C46   H29   S    
O3    Zn2   S    
C48   H30   S    
C19   C26   A    
C27   H1    S    
C21   C25   A    
C11   C41   S    
C1    C40   S    
C1    O1    A    
C50   H32   S    
C38   H18   S    
C42   H25   S    
C31   C33   A    
C23   C27   S    
C16   H4    S    
C45   H28   S    
C22   H10   S    
C38   C40   A    
C4    H20   S    
C23   O7    A    
C4    C7    A    
C18   H6    S    
C32   H14   S    
C51   H33   S    
C10   N2    A    
O8    Zn1   S    
C12   C47   S    
C35   H15   S    
C23   O5    A    
C4    C6    A    
C3    C8    A    
C50   C51   A    
C5    C7    A    
C42   C43   A    
C6    C8    A    
C1    O3    A    
C32   C34   A    
O7    Zn2   S    
C44   H27   S    
C36   H16   S    
C2    C39   S    
N2    Zn2   S    
C29   C39   A    
C30   C40   A    
C31   H13   S    
C9    C11   A    
C20   H8    S    
C10   C12   A    
C16   C18   A    
C20   C22   A    
C13   C15   A    
C7    C34   S    
C14   C16   A    
C13   C26   S    
O2    Zn2   S    
O4    Zn1   S    
C24   O6    A    
C29   H11   S    
C15   C17   A    
C30   H12   S    
C47   C52   A    
C35   C37   A    
C9    H23   S    
C10   H24   S    
C24   C28   S    
C12   C14   A    
C44   C45   A    
C3    C5    A    
C18   N2    A    
C17   N1    A    
N1    Zn1   S    
C6    H22   S    
C36   C38   A    
C15   H3    S    
C37   C39   A    
O5    Zn1   S    
C11   C13   A    
C24   O8    A    
C49   C50   A    
C41   C46   A    
C28   H2    S    
C51   C52   A    
C33   C35   A    
C34   C36   A    
C8    C33   S    
C14   C25   S    
C9    N1    A    
C43   C44   A    
O1    Zn1   S    
C47   C48   A    
C29   C31   A    
C22   C26   A    
C27   C28   D    
C48   C49   A    
C2    O4    A    
C52   H34   S    
C37   H17   S    
C5    H21   S    
C3    H19   S    
