data_mof_unit_16461.cif
_audit_creation_date              2012-12-11T16:23:26-0500
_audit_creation_method            fapswitch 2.2
_symmetry_space_group_name_H-M    P1
_symmetry_Int_Tables_number       1
_space_group_crystal_system       triclinic
_cell_length_a                    19.965229
_cell_length_b                    7.206207
_cell_length_c                    19.805744
_cell_angle_alpha                 91.23688
_cell_angle_beta                  98.597995
_cell_angle_gamma                 91.439187
_cell_volume                      2815.68455693

loop_
_atom_site_label
_atom_site_type_symbol
_atom_type_description
_atom_site_fract_x
_atom_site_fract_y
_atom_site_fract_z
_atom_type_partial_charge
O1    O     O_R   0.188410 0.619490 0.310050 -0.537880
O2    O     O_R   0.811590 0.380510 0.689950 -0.536228
O3    O     O_R   0.311590 0.119490 0.189950 -0.538184
O4    O     O_R   0.688410 0.880510 0.810050 -0.536811
O5    O     O_R   0.327280 0.288800 0.321740 -0.533310
O6    O     O_R   0.672720 0.711200 0.678260 -0.536330
O7    O     O_R   0.172720 0.788800 0.178260 -0.535368
O8    O     O_R   0.827280 0.211200 0.821740 -0.538244
C1    C     C_R   0.351708 0.462372 0.338384 0.711688
C2    C     C_R   0.648301 0.537628 0.661600 0.709782
C3    C     C_R   0.148580 0.954776 0.160666 0.710267
C4    C     C_R   0.851436 0.045231 0.839312 0.709735
O9    O     O_R   0.189900 0.289710 0.318190 -0.536830
O10   O     O_R   0.810100 0.710290 0.681810 -0.539694
O11   O     O_R   0.310100 0.789710 0.181810 -0.536129
O12   O     O_R   0.689900 0.210290 0.818190 -0.539286
O13   O     O_R   0.173230 0.120350 0.186370 -0.537698
O14   O     O_R   0.826770 0.879650 0.813630 -0.534364
O15   O     O_R   0.326770 0.620350 0.313630 -0.540233
O16   O     O_R   0.673230 0.379650 0.686370 -0.537044
C5    C     C_R   0.169702 0.458308 0.333956 0.733834
C6    C     C_R   0.830550 0.541765 0.666231 0.734886
C7    C     C_R   0.330348 0.958606 0.166027 0.737261
C8    C     C_R   0.669488 0.041406 0.833885 0.737500
O17   O     O_3   0.244690 0.453290 0.206760 -0.374173
O18   O     O_3   0.755310 0.546710 0.793240 -0.373616
O19   O     O_3   0.255310 0.953290 0.293240 -0.374157
O20   O     O_3   0.744690 0.046710 0.706760 -0.373323
V1    V     V_3+5 0.250980 0.178070 0.258020 1.463951
V2    V     V_3+5 0.749020 0.821930 0.741980 1.461229
V3    V     V_3+5 0.249020 0.678070 0.241980 1.467658
V4    V     V_3+5 0.750980 0.321930 0.758020 1.464868
C9    C     C_R   0.479215 0.854949 0.073087 0.515412
C10   C     C_R   0.524768 0.873269 0.924362 0.497832
C11   C     C_R   0.020768 0.347608 0.427326 0.516364
C12   C     C_R   0.975241 0.380639 0.576078 0.497746
C13   C     C_R   0.430136 0.838265 0.116875 -0.227653
C14   C     C_R   0.572847 0.882022 0.879289 -0.237421
C15   C     C_R   0.069879 0.331134 0.383596 -0.228167
C16   C     C_R   0.927246 0.389524 0.621220 -0.240519
H1    H     H_    0.433172 0.725680 0.152494 0.153521
H2    H     H_    0.572001 0.773785 0.840318 0.153806
H3    H     H_    0.066692 0.213372 0.348203 0.155346
H4    H     H_    0.928020 0.286685 0.660414 0.151314
C17   C     C_R   0.379397 0.969600 0.116727 -0.175455
C18   C     C_R   0.620254 0.030797 0.883146 -0.177168
C19   C     C_R   0.120776 0.468966 0.383442 -0.177529
C20   C     C_R   0.879939 0.531594 0.617080 -0.174740
C21   C     C_R   0.376929 0.114836 0.070329 -0.195180
C22   C     C_R   0.620485 0.167873 0.934645 -0.189069
C23   C     C_R   0.123361 0.620819 0.429551 -0.196776
C24   C     C_R   0.879792 0.661511 0.565252 -0.190017
H5    H     H_    0.337741 0.216588 0.069001 0.173918
H6    H     H_    0.657504 0.281735 0.939446 0.176121
H7    H     H_    0.162631 0.727860 0.430658 0.174375
H8    H     H_    0.842838 0.769811 0.560192 0.173583
C25   C     C_R   0.423545 0.127764 0.024124 0.407493
C26   C     C_R   0.574785 0.156185 0.981842 0.416895
C27   C     C_R   0.076710 0.634194 0.475684 0.406387
C28   C     C_R   0.925431 0.649112 0.517999 0.417704
C29   C     C_R   0.475532 0.998143 0.025276 -0.046031
C30   C     C_R   0.525761 0.009945 0.976614 -0.039702
C31   C     C_R   0.024553 0.497846 0.474808 -0.045728
C32   C     C_R   0.974324 0.509898 0.523487 -0.039165
C33   C     C_R   0.088237 0.950149 0.105756 -0.152003
C34   C     C_R   0.911809 0.049849 0.894183 -0.150164
C35   C     C_R   0.412735 0.491156 0.391368 -0.148220
C36   C     C_R   0.587299 0.508830 0.608583 -0.150669
C37   C     C_R   0.012060 0.218681 0.954051 0.448887
C38   C     C_R   0.988027 0.781242 0.045839 0.447895
C39   C     C_R   0.493623 0.300903 0.557308 0.435717
C40   C     C_R   0.506452 0.699003 0.442598 0.436078
C41   C     C_R   0.957004 0.204145 0.901101 -0.153156
C42   C     C_R   0.043070 0.795790 0.098796 -0.147907
C43   C     C_R   0.546408 0.347345 0.610041 -0.170920
C44   C     C_R   0.453653 0.652573 0.389873 -0.173096
C45   C     C_R   0.922993 0.907771 0.941796 -0.146311
C46   C     C_R   0.077066 0.092225 0.058136 -0.148516
C47   C     C_R   0.573037 0.627607 0.553473 -0.131352
C48   C     C_R   0.427006 0.372382 0.446472 -0.129132
C49   C     C_R   0.977505 0.921169 0.996762 0.022268
C50   C     C_R   0.022568 0.078798 0.003150 0.023537
C51   C     C_R   0.520045 0.582940 0.499125 0.027370
C52   C     C_R   0.480013 0.417018 0.500802 0.026318
H9    H     H_    0.112133 0.210402 0.063383 0.188486
H10   H     H_    0.887919 0.789609 0.936561 0.188686
H11   H     H_    0.395075 0.249313 0.447706 0.191089
H12   H     H_    0.604959 0.750697 0.552250 0.190521
H13   H     H_    0.050340 0.685204 0.135158 0.159937
H14   H     H_    0.949745 0.314677 0.864714 0.157471
H15   H     H_    0.443959 0.745938 0.347573 0.157526
H16   H     H_    0.556116 0.253914 0.652317 0.160789
O21   O     O_3   0.529942 0.727414 0.075781 -0.498077
C53   C     C_3   0.582073 0.782748 0.129060 -0.087431
H17   H     H_    0.624273 0.685358 0.129637 0.204805
H18   H     H_    0.564357 0.776763 0.179668 0.119511
H19   H     H_    0.602699 0.924279 0.121044 0.132380
O22   O     O_3   0.478716 0.725438 0.919301 -0.504390
C54   C     C_3   0.424094 0.763110 0.868125 -0.096503
H20   H     H_    0.440748 0.771479 0.817071 0.116975
H21   H     H_    0.398734 0.892927 0.880330 0.136097
H22   H     H_    0.385988 0.647479 0.865439 0.204970
O23   O     O_3   0.969832 0.213385 0.424809 -0.497354
C55   C     C_3   0.917607 0.255898 0.371728 -0.090156
H23   H     H_    0.875282 0.152998 0.371223 0.204618
H24   H     H_    0.935127 0.246403 0.321024 0.116683
H25   H     H_    0.897216 0.395701 0.379927 0.132462
O24   O     O_3   0.021055 0.239212 0.581332 -0.504667
C56   C     C_3   0.075659 0.290079 0.632597 -0.099552
H26   H     H_    0.058925 0.302265 0.683610 0.114313
H27   H     H_    0.101198 0.421791 0.620474 0.136024
H28   H     H_    0.113640 0.179744 0.635306 0.204866
Cl1   Cl    Cl    0.414105 0.305642 0.964155 -0.576228
Cl2   Cl    Cl    0.582454 0.322586 0.048984 -0.579369
Cl3   Cl    Cl    0.086265 0.821694 0.535160 -0.578065
Cl4   Cl    Cl    0.917768 0.804899 0.450376 -0.582326
Cl5   Cl    Cl    0.066658 0.415747 0.956307 -0.640615
Cl6   Cl    Cl    0.933468 0.584075 0.043539 -0.641407
Cl7   Cl    Cl    0.446918 0.092781 0.564121 -0.634226
Cl8   Cl    Cl    0.553212 0.906998 0.435739 -0.635715

loop_
_geom_bond_atom_site_label_1
_geom_bond_atom_site_label_2
_ccdc_geom_bond_type
O17   V3    S    
C6    C20   S    
C26   C30   A    
O21   C53   S    
C7    C17   S    
O19   V1    S    
O13   V1    S    
O3    C7    A    
O1    V3    S    
C40   C44   A    
O15   V3    S    
C55   H24   S    
C49   C50   A    
C36   C43   A    
O1    C5    A    
C22   H6    S    
C42   H13   S    
O9    V1    S    
C41   H14   S    
C14   H2    S    
C48   H11   S    
C11   O23   S    
C56   H27   S    
O4    C8    A    
C12   O24   S    
C10   C30   A    
C21   C25   A    
O24   C56   S    
O2    V4    S    
C25   C29   A    
O3    V1    S    
C38   C49   A    
C38   C42   A    
C55   H23   S    
C37   C50   A    
C24   C28   A    
C1    O15   A    
C51   C52   A    
C2    O16   A    
O2    C6    A    
C37   C41   A    
O14   V2    S    
C45   C49   A    
C16   H4    S    
C48   C52   A    
C36   C47   A    
O11   C7    A    
O12   C8    A    
C29   C30   S    
O10   V2    S    
C47   H12   S    
O7    C3    A    
O5    V1    S    
C15   H3    S    
C39   C43   A    
O7    V3    S    
O8    V4    S    
C12   C16   A    
C56   H28   S    
O18   V4    S    
C25   Cl1   S    
C53   H19   S    
C34   C41   A    
C4    C34   S    
C9    C13   A    
C33   C42   A    
C22   C26   A    
C11   C15   A    
C1    C35   S    
O5    C1    A    
C46   C50   A    
C54   H20   S    
C17   C21   A    
O8    C4    A    
C40   Cl8   S    
O9    C5    A    
C53   H18   S    
C43   H16   S    
C46   H9    S    
C9    C29   A    
C54   H21   S    
C45   H10   S    
C28   Cl4   S    
C23   C27   A    
C13   C17   A    
C15   C19   A    
C39   C52   A    
O16   V4    S    
C16   C20   A    
C34   C45   A    
C3    O13   A    
C33   C46   A    
O6    V2    S    
C10   C14   A    
C35   C48   A    
C9    O21   S    
O6    C2    A    
C19   C23   A    
O11   V3    S    
C2    C36   S    
O12   V4    S    
C18   C22   A    
C27   C31   A    
C39   Cl7   S    
C28   C32   A    
C8    C18   S    
O10   C6    A    
O20   V2    S    
C56   H26   S    
C47   C51   A    
C38   Cl6   S    
C21   H5    S    
C37   Cl5   S    
C10   O22   S    
C23   H7    S    
C13   H1    S    
C53   H17   S    
C14   C18   A    
C40   C51   A    
C44   H15   S    
C31   C32   S    
C3    C33   S    
C20   C24   A    
C54   H22   S    
C27   Cl3   S    
O22   C54   S    
C4    O14   A    
O23   C55   S    
C26   Cl2   S    
C11   C31   A    
C35   C44   A    
C12   C32   A    
C55   H25   S    
O4    V2    S    
C24   H8    S    
C5    C19   S    
