data_mof_unit_35022.cif
_audit_creation_date              2013-03-05T16:45:41-0500
_audit_creation_method            fapswitch 2.2
_symmetry_space_group_name_H-M    P1
_symmetry_Int_Tables_number       1
_space_group_crystal_system       triclinic
_cell_length_a                    10.801822
_cell_length_b                    16.017778
_cell_length_c                    17.017081
_cell_angle_alpha                 95.946819
_cell_angle_beta                  93.883337
_cell_angle_gamma                 92.871169
_cell_volume                      2916.9048408

loop_
_atom_site_label
_atom_site_type_symbol
_atom_site_description
_atom_site_fract_x
_atom_site_fract_y
_atom_site_fract_z
_atom_type_partial_charge
O1    O     O_R   0.494270 0.420530 0.382500 -0.629138
O2    O     O_R   0.505730 0.579470 0.617500 -0.597048
O3    O     O_R   0.504620 0.563720 0.388950 -0.500764
O4    O     O_R   0.495380 0.436280 0.611050 -0.504903
C1    C     C_R   0.512903 0.490062 0.349216 0.871647
C2    C     C_R   0.498901 0.509727 0.651419 0.921449
O5    O     O_R   0.311680 0.428420 0.496760 -0.587551
O6    O     O_R   0.688320 0.571580 0.503240 -0.589051
O7    O     O_R   0.322030 0.571610 0.503210 -0.558457
O8    O     O_R   0.677970 0.428390 0.496790 -0.579180
C3    C     C_R   0.259889 0.500540 0.502072 0.898328
C4    C     C_R   0.739638 0.499533 0.496237 0.862154
Cu1   Cu    Cu3+1 0.493870 0.415220 0.496180 1.013115
Cu2   Cu    Cu3+1 0.506130 0.584780 0.503820 1.040786
C5    C     C_3   0.037580 0.441171 0.443358 -0.367741
C6    C     C_3   0.961238 0.559919 0.551426 -0.372126
C7    C     C_3   0.957206 0.515056 0.425638 0.368032
C8    C     C_3   0.041050 0.486239 0.569853 0.360394
H1    H     H_    0.067550 0.393494 0.397879 0.176121
H2    H     H_    0.932081 0.609550 0.594870 0.171680
C9    C     C_3   0.875299 0.498161 0.493415 -0.216358
C10   C     C_3   0.123659 0.502713 0.502151 -0.212219
C11   C     C_3   0.956307 0.425320 0.512396 0.210687
C12   C     C_3   0.042670 0.575627 0.482895 0.233252
C13   C     C_R   0.546331 0.487056 0.264604 -0.278570
C14   C     C_R   0.498392 0.513717 0.738549 -0.225469
C15   C     C_R   0.590991 0.561758 0.233946 0.319601
C16   C     C_R   0.411443 0.464234 0.776071 0.247952
C17   C     C_R   0.603060 0.561443 0.151905 0.138184
C18   C     C_R   0.406761 0.478013 0.859106 0.121553
C19   C     C_R   0.575080 0.487064 0.100362 0.139073
C20   C     C_R   0.498880 0.529976 0.905249 0.215571
C21   C     C_R   0.556408 0.410262 0.132340 0.201845
C22   C     C_R   0.588131 0.576173 0.868209 0.149333
C23   C     C_R   0.543426 0.410014 0.214277 0.154115
C24   C     C_R   0.589192 0.566914 0.785265 0.158075
N1    N     N_2   0.575851 0.486791 0.016771 -0.240855
N2    N     N_2   0.500816 0.534933 0.989032 -0.197003
N3    N     N_R   0.515330 0.712130 0.509560 -0.296745
N4    N     N_R   0.484670 0.287870 0.490440 -0.298778
C25   C     C_R   0.448576 0.750937 0.452351 0.413615
C26   C     C_R   0.543748 0.250259 0.550982 0.429289
C27   C     C_R   0.441167 0.839514 0.458466 0.017640
C28   C     C_R   0.544562 0.161605 0.549555 -0.011686
C29   C     C_R   0.505978 0.891384 0.521536 0.119132
C30   C     C_R   0.492779 0.109009 0.482164 0.111599
C31   C     C_R   0.569865 0.851243 0.580102 0.200136
C32   C     C_R   0.436115 0.148612 0.420197 0.187212
C33   C     C_R   0.583268 0.762627 0.570305 0.263601
C34   C     C_R   0.419286 0.236739 0.429480 0.246547
N5    N     N_2   0.498269 0.981676 0.532938 -0.175825
N6    N     N_2   0.501464 0.018638 0.471536 -0.160192
N7    N     N_R   0.915651 0.527428 0.344744 0.150418
O9    O     O_R   0.968352 0.586933 0.309980 -0.306906
O10   O     O_R   0.842978 0.470014 0.302730 -0.412986
N8    N     N_R   0.078855 0.477874 0.652182 0.145636
O11   O     O_R   0.024323 0.420386 0.688560 -0.307968
O12   O     O_R   0.146264 0.538674 0.693578 -0.384614
N9    N     N_R   0.616071 0.899953 0.652382 0.126734
O13   O     O_R   0.573572 0.883213 0.719098 -0.356999
O14   O     O_R   0.711492 0.952875 0.653057 -0.392798
N10   N     N_R   0.397292 0.099805 0.346491 0.148119
O15   O     O_R   0.303532 0.045087 0.342475 -0.388223
O16   O     O_R   0.441121 0.120184 0.281301 -0.356866
N11   N     N_2   0.668439 0.726992 0.623997 -0.386730
H3    H     H_    0.677747 0.664159 0.612625 0.316203
C35   C     C_3   0.789034 0.770767 0.645451 -0.600377
H4    H     H_    0.861683 0.725404 0.653125 0.180464
H5    H     H_    0.787666 0.808762 0.703623 0.286974
H6    H     H_    0.816515 0.810935 0.599354 0.233452
N12   N     N_2   0.331814 0.270990 0.376259 -0.420927
H7    H     H_    0.321519 0.334070 0.385855 0.298687
C36   C     C_3   0.212988 0.225014 0.354757 -0.601549
H8    H     H_    0.137997 0.269132 0.348674 0.182512
H9    H     H_    0.188354 0.183107 0.400148 0.231822
H10   H     H_    0.215517 0.188137 0.296095 0.287446
N13   N     N_2   0.911375 0.341680 0.525469 -0.342140
H11   H     H_    0.840969 0.317561 0.484207 0.263787
C37   C     C_3   0.006026 0.282201 0.535585 -0.518550
H12   H     H_    0.963759 0.224509 0.556208 0.232554
H13   H     H_    0.081360 0.308665 0.579997 0.285497
H14   H     H_    0.046258 0.264878 0.478383 0.176868
N14   N     N_2   0.086087 0.659332 0.468765 -0.341902
H15   H     H_    0.160689 0.683183 0.506824 0.270978
C38   C     C_3   0.990925 0.719269 0.462986 -0.545420
H16   H     H_    0.973155 0.747977 0.523040 0.176965
H17   H     H_    0.902878 0.689125 0.433563 0.285075
H18   H     H_    0.022446 0.769429 0.427426 0.235952
N15   N     N_R   0.335593 0.395112 0.733108 0.183502
O17   O     O_R   0.288819 0.398531 0.661351 -0.329464
O18   O     O_R   0.319624 0.324935 0.764368 -0.334977
N16   N     N_R   0.636391 0.635739 0.285878 0.173719
O19   O     O_R   0.709939 0.628089 0.348002 -0.351787
O20   O     O_R   0.626605 0.710531 0.263483 -0.279929
N17   N     N_2   0.303696 0.444398 0.896190 -0.387905
H19   H     H_    0.220017 0.438580 0.862492 0.302010
C39   C     C_3   0.326596 0.374418 0.941435 -0.512236
H20   H     H_    0.258811 0.320840 0.920954 0.227540
H21   H     H_    0.315079 0.394135 0.004828 0.228477
H22   H     H_    0.421618 0.352370 0.934787 0.233695
N18   N     N_2   0.656419 0.634293 0.123161 -0.379115
H23   H     H_    0.611950 0.652533 0.073143 0.279530
C40   C     C_3   0.790558 0.637422 0.123405 -0.522790
H24   H     H_    0.824010 0.696498 0.100872 0.218786
H25   H     H_    0.821231 0.582949 0.085198 0.204720
H26   H     H_    0.832741 0.636485 0.184579 0.293903
N19   N     N_2   0.560214 0.332470 0.082992 -0.410019
H27   H     H_    0.600779 0.333939 0.029938 0.269125
C41   C     C_3   0.458920 0.269397 0.082939 -0.584983
H28   H     H_    0.428484 0.243243 0.021331 0.205564
H29   H     H_    0.377516 0.295930 0.111148 0.221874
H30   H     H_    0.491572 0.216820 0.115073 0.276774
N20   N     N_2   0.679242 0.631477 0.913655 -0.433105
H31   H     H_    0.717720 0.608137 0.963121 0.276574
C42   C     C_3   0.643260 0.717273 0.927938 -0.632456
H32   H     H_    0.720077 0.756344 0.962561 0.236352
H33   H     H_    0.558715 0.719952 0.961607 0.233788
H34   H     H_    0.623587 0.744121 0.871102 0.254885
N21   N     N_2   0.534895 0.330804 0.244674 -0.397919
H35   H     H_    0.455125 0.317377 0.271343 0.293280
C43   C     C_3   0.649158 0.303264 0.280273 -0.486899
H36   H     H_    0.681340 0.344904 0.334770 0.231179
H37   H     H_    0.722572 0.303111 0.237591 0.242233
H38   H     H_    0.633583 0.238360 0.296258 0.223911
N22   N     N_2   0.690954 0.603463 0.749218 -0.440356
H39   H     H_    0.721905 0.662685 0.774470 0.297162
C44   C     C_3   0.791862 0.548284 0.738448 -0.555655
H40   H     H_    0.870973 0.582653 0.715697 0.223070
H41   H     H_    0.761536 0.493110 0.695221 0.258225
H42   H     H_    0.824680 0.526594 0.795842 0.253335
N23   N     N_R   0.604776 0.300041 0.618530 0.171500
O21   O     O_R   0.720071 0.326230 0.617218 -0.338033
O22   O     O_R   0.556675 0.301307 0.686617 -0.334790
N24   N     N_R   0.389215 0.703864 0.381960 0.175110
O23   O     O_R   0.294359 0.652274 0.386354 -0.324956
O24   O     O_R   0.405095 0.730315 0.313452 -0.285150
N25   N     N_2   0.609319 0.128145 0.613552 -0.382310
H43   H     H_    0.671583 0.083799 0.598410 0.313371
C45   C     C_3   0.539025 0.115075 0.681350 -0.383254
H44   H     H_    0.597991 0.135834 0.736529 0.239887
H45   H     H_    0.510691 0.047669 0.681200 0.237678
H46   H     H_    0.453498 0.150951 0.681533 0.226854
N26   N     N_2   0.355819 0.873164 0.404684 -0.342577
H47   H     H_    0.395024 0.912647 0.368120 0.335107
C46   C     C_3   0.241346 0.898712 0.436957 -0.498639
H48   H     H_    0.170674 0.904802 0.387738 0.246956
H49   H     H_    0.256639 0.960158 0.473850 0.233347
H50   H     H_    0.205133 0.851116 0.473936 0.193035

loop_
_geom_bond_atom_site_label_1
_geom_bond_atom_site_label_2
_geom_bond_distance
_ccdc_geom_bond_type
C28   N25   1.420510 S    
C15   C17   1.410446 A    
C36   H9    1.111484 S    
C36   H8    1.107891 S    
N7    O10   1.299439 A    
C23   N21   1.420061 S    
N17   H19   1.031891 S    
C21   N19   1.432656 S    
C34   N12   1.432810 S    
C46   H50   1.110437 S    
C39   H20   1.111129 S    
N3    C25   1.388994 A    
N23   O22   1.300198 A    
N7    O9    1.300230 A    
C22   N20   1.420904 S    
O5    C3    1.305977 A    
N25   C45   1.450595 S    
N10   O15   1.299179 A    
C33   N11   1.433105 S    
O1    C1    1.313568 A    
C12   N14   1.447252 S    
C41   H29   1.112023 S    
C38   H16   1.109363 S    
C45   H46   1.112177 S    
C29   N5    1.446524 S    
C42   H32   1.110255 S    
C30   N6    1.448637 S    
N8    O11   1.300490 A    
C18   N17   1.425867 S    
N26   C46   1.447122 S    
C29   C31   1.402480 A    
O4    Cu1   1.947719 S    
Cu1   N4    2.029175 S    
N10   O16   1.300774 A    
C39   H21   1.109258 S    
Cu2   N3    2.029175 S    
C27   N26   1.419784 S    
C5    C10   1.554053 S    
C24   N22   1.424277 S    
C43   H38   1.109230 S    
N19   H27   1.031790 S    
C19   C21   1.406742 A    
C26   N23   1.430558 S    
C20   N2    1.418394 S    
N15   O18   1.301228 A    
C6    H2    1.101179 S    
C5    C11   1.547443 S    
N9    O13   1.301108 A    
C6    C12   1.540971 S    
Cu1   Cu2   2.701747 S    
C25   C27   1.418511 A    
O2    C2    1.310610 A    
C26   C28   1.418213 A    
C25   N24   1.440435 S    
C46   H49   1.109848 S    
C28   C30   1.415445 A    
C46   H48   1.109763 S    
N21   C43   1.446931 S    
C30   C32   1.406796 A    
N9    O14   1.299986 A    
C7    C12   1.528224 S    
C38   H17   1.108044 S    
C8    C11   1.528932 S    
N18   H23   1.025075 S    
C31   C33   1.427719 A    
C41   H30   1.109831 S    
C37   H13   1.108511 S    
N24   O24   1.300089 A    
N11   C35   1.453567 S    
N13   H11   1.030864 S    
C4    C9    1.470612 S    
C7    C9    1.537913 S    
C35   H4    1.106220 S    
C35   H5    1.108424 S    
C20   C22   1.407760 A    
C5    H1    1.105982 S    
O7    Cu2   1.988447 S    
C44   H41   1.110457 S    
N1    N2    1.249232 D    
O7    C3    1.289956 A    
C32   N10   1.432795 S    
N14   H15   1.030525 S    
O6    C4    1.302996 A    
C42   H34   1.110424 S    
N16   O20   1.301331 A    
C2    C14   1.477843 S    
N13   C37   1.445799 S    
C17   N18   1.422027 S    
C15   N16   1.446315 S    
C40   H25   1.111040 S    
C6    C8    1.541553 S    
C11   N13   1.446091 S    
N21   H35   1.024347 S    
C27   C29   1.409786 A    
C43   H36   1.109343 S    
C16   N15   1.446342 S    
O3    Cu2   1.947718 S    
O8    C4    1.292062 A    
C13   C23   1.425053 A    
C1    C13   1.504549 S    
C14   C24   1.410789 A    
N14   C38   1.446632 S    
C9    C11   1.540576 S    
N22   H39   1.029847 S    
C36   H10   1.108746 S    
C10   C12   1.542583 S    
O4    C2    1.296896 A    
O1    Cu1   1.945441 S    
C44   H40   1.106813 S    
C7    N7    1.455150 S    
C39   H22   1.111221 S    
N12   C36   1.452437 S    
N20   H31   1.026875 S    
C38   H18   1.108560 S    
C5    C7    1.544886 S    
C42   H33   1.110779 S    
O6    Cu2   1.990390 S    
N3    C33   1.387753 A    
C8    C10   1.540083 S    
N4    C26   1.381894 A    
O3    C1    1.307922 A    
O8    Cu1   1.988448 S    
C37   H14   1.107615 S    
C45   H44   1.109516 S    
N17   C39   1.446129 S    
C6    C9    1.548018 S    
N24   O23   1.294856 A    
C8    N8    1.454107 S    
C13   C15   1.429081 A    
N25   H43   1.027966 S    
C3    C10   1.473766 S    
C14   C16   1.424627 A    
C35   H6    1.111043 S    
C16   C18   1.412106 A    
N26   H47   1.028022 S    
C44   H42   1.111768 S    
N5    N6    1.254797 D    
C17   C19   1.411229 A    
C41   H28   1.109594 S    
C18   C20   1.405437 A    
C45   H45   1.107088 S    
N19   C41   1.451487 S    
N4    C34   1.382910 A    
C32   C34   1.426200 A    
N16   O19   1.298688 A    
C21   C23   1.411170 A    
N8    O12   1.300851 A    
C40   H26   1.109603 S    
C22   C24   1.404766 A    
O2    Cu2   1.945441 S    
C43   H37   1.110971 S    
C31   N9    1.431689 S    
C37   H12   1.110057 S    
C19   N1    1.422626 S    
O5    Cu1   1.990389 S    
N12   H7    1.019542 S    
N18   C40   1.447008 S    
N11   H3    1.016329 S    
C40   H24   1.110291 S    
N22   C44   1.446673 S    
N15   O17   1.297069 A    
N23   O21   1.296485 A    
N20   C42   1.447698 S    
