data_mof_unit_56935.cif
_audit_creation_date              2012-10-26T17:11:31-0400
_audit_creation_method            fapswitch 2.2
_symmetry_space_group_name_H-M    P1
_symmetry_Int_Tables_number       1
_space_group_crystal_system       triclinic
_cell_length_a                    27.757529
_cell_length_b                    18.834609
_cell_length_c                    16.871154
_cell_angle_alpha                 89.999952
_cell_angle_beta                  62.522593
_cell_angle_gamma                 89.999578
_cell_volume                      7825.28619319

loop_
_atom_site_label
_atom_site_type_symbol
_atom_type_description
_atom_site_fract_x
_atom_site_fract_y
_atom_site_fract_z
_atom_type_partial_charge
C1    C     C_R   0.295205 0.728478 0.329578 0.809848
C2    C     C_R   0.704794 0.271518 0.670426 0.807720
C3    C     C_R   0.704796 0.728476 0.670421 0.809845
C4    C     C_R   0.295206 0.271518 0.329574 0.807706
C5    C     C_R   0.795405 0.228908 0.329468 0.804606
C6    C     C_R   0.204828 0.771579 0.670405 0.807782
C7    C     C_R   0.204596 0.228905 0.670532 0.804527
C8    C     C_R   0.795172 0.771580 0.329595 0.807774
C9    C     C_R   0.412728 0.999997 0.457668 -0.016166
C10   C     C_R   0.587280 0.999997 0.542295 -0.016176
C11   C     C_R   0.912401 0.499993 0.457985 -0.018606
C12   C     C_R   0.087615 0.500001 0.541956 -0.018658
C13   C     C_R   0.577422 0.872682 0.566145 0.123752
C14   C     C_R   0.422696 0.127287 0.433478 0.122070
C15   C     C_R   0.422581 0.872680 0.433832 0.123747
C16   C     C_R   0.577310 0.127288 0.566480 0.122072
C17   C     C_R   0.077481 0.372731 0.566169 0.123994
C18   C     C_R   0.922520 0.627269 0.433808 0.123848
C19   C     C_R   0.922506 0.372709 0.433873 0.124010
C20   C     C_R   0.077498 0.627281 0.566098 0.123874
C21   C     C_R   0.221068 0.766393 0.952464 0.110221
C22   C     C_R   0.778960 0.233682 0.047566 0.109636
C23   C     C_R   0.778935 0.766391 0.047534 0.110216
C24   C     C_R   0.221039 0.233682 0.952435 0.109636
C25   C     C_R   0.720767 0.265826 0.952728 0.110370
C26   C     C_R   0.279227 0.734152 0.047315 0.110378
C27   C     C_R   0.279231 0.265832 0.047273 0.110368
C28   C     C_R   0.720777 0.734142 0.952683 0.110375
C29   C     C_R   0.277984 0.771290 0.910480 -0.174787
C30   C     C_R   0.722041 0.228853 0.089610 -0.174521
C31   C     C_R   0.722020 0.771290 0.089515 -0.174788
C32   C     C_R   0.277957 0.228860 0.910390 -0.174520
C33   C     C_R   0.777687 0.270649 0.910700 -0.174582
C34   C     C_R   0.222311 0.729261 0.089294 -0.174672
C35   C     C_R   0.222312 0.270648 0.089302 -0.174581
C36   C     C_R   0.777692 0.729248 0.910708 -0.174675
C37   C     C_R   0.306803 0.755258 0.957473 -0.177500
C38   C     C_R   0.693205 0.244831 0.042621 -0.177471
C39   C     C_R   0.693201 0.755255 0.042522 -0.177498
C40   C     C_R   0.306793 0.244842 0.957379 -0.177471
C41   C     C_R   0.806518 0.254666 0.957679 -0.177475
C42   C     C_R   0.193494 0.745289 0.042304 -0.177365
C43   C     C_R   0.193481 0.254662 0.042323 -0.177475
C44   C     C_R   0.806508 0.745279 0.957698 -0.177363
C45   C     C_R   0.144429 0.828701 0.943626 -0.202710
C46   C     C_R   0.855563 0.171323 0.056426 -0.200944
C47   C     C_R   0.855572 0.828700 0.056373 -0.202709
C48   C     C_R   0.144437 0.171321 0.943574 -0.200945
C49   C     C_R   0.644186 0.328282 0.943828 -0.203258
C50   C     C_R   0.355801 0.671692 0.056196 -0.203306
C51   C     C_R   0.355812 0.328287 0.056174 -0.203259
C52   C     C_R   0.644202 0.671686 0.943802 -0.203305
C53   C     C_R   0.117557 0.851388 0.895198 -0.059418
C54   C     C_R   0.882534 0.148790 0.104754 -0.060847
C55   C     C_R   0.882443 0.851388 0.104802 -0.059420
C56   C     C_R   0.117468 0.148787 0.895244 -0.060867
C57   C     C_R   0.617422 0.351170 0.895303 -0.059267
C58   C     C_R   0.382573 0.648816 0.104709 -0.059094
C59   C     C_R   0.382577 0.351173 0.104698 -0.059266
C60   C     C_R   0.617428 0.648813 0.895290 -0.059094
C61   C     C_R   0.136010 0.829289 0.807066 -0.237576
C62   C     C_R   0.864267 0.171229 0.192730 -0.240287
C63   C     C_R   0.863989 0.829290 0.192934 -0.237581
C64   C     C_R   0.135736 0.171223 0.807267 -0.240215
C65   C     C_R   0.635915 0.329139 0.807130 -0.239572
C66   C     C_R   0.364084 0.670852 0.192881 -0.239687
C67   C     C_R   0.364085 0.329140 0.192870 -0.239576
C68   C     C_R   0.635918 0.670848 0.807118 -0.239678
C69   C     C_R   0.182149 0.786982 0.765863 -0.059020
C70   C     C_R   0.818131 0.213566 0.233953 -0.060410
C71   C     C_R   0.817851 0.786983 0.234137 -0.059015
C72   C     C_R   0.181870 0.213563 0.766046 -0.060404
C73   C     C_R   0.682018 0.286760 0.765954 -0.061841
C74   C     C_R   0.317976 0.713223 0.234061 -0.062802
C75   C     C_R   0.317981 0.286761 0.234047 -0.061839
C76   C     C_R   0.682027 0.713217 0.765937 -0.062806
C77   C     C_R   0.209008 0.764342 0.814457 -0.201661
C78   C     C_R   0.791174 0.236023 0.185439 -0.201377
C79   C     C_R   0.790993 0.764341 0.185542 -0.201663
C80   C     C_R   0.208825 0.236022 0.814562 -0.201387
C81   C     C_R   0.708759 0.263910 0.814652 -0.202387
C82   C     C_R   0.291224 0.736053 0.185378 -0.202215
C83   C     C_R   0.291240 0.263914 0.185348 -0.202385
C84   C     C_R   0.708781 0.736043 0.814620 -0.202214
C85   C     C_R   0.197488 0.631458 0.523192 0.833695
C86   C     C_R   0.802513 0.368540 0.476800 0.833240
C87   C     C_R   0.802514 0.631458 0.476799 0.833674
C88   C     C_R   0.197487 0.368542 0.523197 0.833210
C89   C     C_R   0.697430 0.131387 0.523237 0.832484
C90   C     C_R   0.302413 0.868623 0.477493 0.813724
C91   C     C_R   0.302570 0.131387 0.476759 0.832487
C92   C     C_R   0.697588 0.868623 0.522502 0.813725
C93   C     C_R   0.190496 0.785456 0.903373 0.071570
C94   C     C_R   0.809566 0.214689 0.096627 0.072702
C95   C     C_R   0.809506 0.785455 0.096626 0.071569
C96   C     C_R   0.190433 0.214688 0.903374 0.072702
C97   C     C_R   0.690203 0.284938 0.903620 0.071837
C98   C     C_R   0.309780 0.715023 0.096418 0.071881
C99   C     C_R   0.309795 0.284944 0.096381 0.071838
C100  C     C_R   0.690225 0.715013 0.903579 0.071879
C101  C     C_R   0.926588 0.903048 0.066503 0.805408
C102  C     C_R   0.073398 0.096987 0.933500 0.804467
C103  C     C_R   0.073412 0.903048 0.933497 0.805408
C104  C     C_R   0.926603 0.096988 0.066499 0.804469
C105  C     C_R   0.426630 0.402984 0.066467 0.806442
C106  C     C_R   0.573370 0.597013 0.933530 0.806438
C107  C     C_R   0.573369 0.402983 0.933533 0.806444
C108  C     C_R   0.426630 0.597014 0.066469 0.806438
C109  C     C_R   0.039214 0.628722 0.532165 0.042367
C110  C     C_R   0.960793 0.371274 0.467801 0.042394
C111  C     C_R   0.960820 0.628715 0.467708 0.042385
C112  C     C_R   0.039183 0.371283 0.532264 0.042413
C113  C     C_R   0.539032 0.128774 0.532541 0.045090
C114  C     C_R   0.460929 0.871211 0.467573 0.042811
C115  C     C_R   0.460980 0.128773 0.467404 0.045097
C116  C     C_R   0.539079 0.871212 0.532395 0.042799
C117  C     C_R   0.018562 0.692907 0.517382 -0.212495
C118  C     C_R   0.981420 0.307092 0.482641 -0.212553
C119  C     C_R   0.981481 0.692904 0.482466 -0.212482
C120  C     C_R   0.018498 0.307100 0.517561 -0.212543
C121  C     C_R   0.518464 0.192972 0.517601 -0.213038
C122  C     C_R   0.481511 0.807008 0.482440 -0.212486
C123  C     C_R   0.481548 0.192971 0.482341 -0.213034
C124  C     C_R   0.518490 0.807008 0.517546 -0.212486
C125  C     C_R   0.979357 0.564426 0.486345 0.025694
C126  C     C_R   0.020662 0.435568 0.513588 0.025693
C127  C     C_R   0.020676 0.564429 0.513542 0.025704
C128  C     C_R   0.979345 0.435565 0.486388 0.025697
C129  C     C_R   0.479470 0.064475 0.486158 0.025750
C130  C     C_R   0.520561 0.935528 0.513737 0.025509
C131  C     C_R   0.520545 0.064475 0.513784 0.025752
C132  C     C_R   0.479453 0.935528 0.486215 0.025509
C133  C     C_R   0.458371 0.000003 0.473858 -0.052532
C134  C     C_R   0.541642 0.000003 0.526091 -0.052529
C135  C     C_R   0.958118 0.499994 0.474231 -0.052475
C136  C     C_R   0.041905 0.500000 0.525693 -0.052456
C137  C     C_R   0.389647 0.934980 0.450291 0.028051
C138  C     C_R   0.610250 0.064981 0.550149 0.018877
C139  C     C_R   0.610357 0.934980 0.549685 0.028040
C140  C     C_R   0.389756 0.064980 0.449818 0.018871
C141  C     C_R   0.889529 0.434998 0.449992 0.022021
C142  C     C_R   0.110480 0.564996 0.549963 0.021934
C143  C     C_R   0.110475 0.435009 0.549987 0.021960
C144  C     C_R   0.889533 0.564987 0.449976 0.021949
C145  C     C_R   0.333410 0.935142 0.469831 -0.151484
C146  C     C_R   0.666419 0.064787 0.531170 -0.119832
C147  C     C_R   0.666592 0.935142 0.530158 -0.151468
C148  C     C_R   0.333583 0.064787 0.468816 -0.119832
C149  C     C_R   0.833633 0.435102 0.467331 -0.151239
C150  C     C_R   0.166372 0.564895 0.532651 -0.151382
C151  C     C_R   0.166369 0.435106 0.532660 -0.151083
C152  C     C_R   0.833635 0.564892 0.467325 -0.151368
C153  C     C_R   0.304421 0.999988 0.497443 0.062937
C154  C     C_R   0.695582 0.999988 0.502549 0.062926
C155  C     C_R   0.804446 0.499997 0.490982 0.041950
C156  C     C_R   0.195560 0.500000 0.509007 0.041929
Cu1   Cu    Cu3+1 0.209920 0.785290 0.495070 0.904599
Cu2   Cu    Cu3+1 0.790080 0.214710 0.504930 0.906521
Cu3   Cu    Cu3+1 0.790080 0.785290 0.504930 0.904603
Cu4   Cu    Cu3+1 0.209920 0.214710 0.495070 0.906568
Cu5   Cu    Cu3+1 0.709920 0.285290 0.495070 0.894032
Cu6   Cu    Cu3+1 0.290080 0.714710 0.504930 0.895659
Cu7   Cu    Cu3+1 0.290080 0.285290 0.504930 0.894029
Cu8   Cu    Cu3+1 0.709920 0.714710 0.495070 0.895667
Cu9   Cu    Cu3+1 0.495240 0.500000 0.924150 0.923721
Cu10  Cu    Cu3+1 0.504760 0.500000 0.075850 0.923722
Cu11  Cu    Cu3+1 0.995240 0.000000 0.924150 0.925802
Cu12  Cu    Cu3+1 0.004760 0.000000 0.075850 0.925803
H1    H     H_    0.532532 0.756541 0.529832 0.131843
H2    H     H_    0.467529 0.243443 0.470020 0.132018
H3    H     H_    0.467457 0.756542 0.470176 0.131847
H4    H     H_    0.532481 0.243443 0.529924 0.132018
H5    H     H_    0.032530 0.256626 0.529840 0.132909
H6    H     H_    0.967428 0.743381 0.470234 0.132985
H7    H     H_    0.967342 0.256615 0.470468 0.132918
H8    H     H_    0.032617 0.743387 0.529604 0.132987
H9    H     H_    0.149670 0.740434 0.075874 0.129784
H10   H     H_    0.850346 0.259468 0.924062 0.129816
H11   H     H_    0.850332 0.740422 0.924130 0.129787
H12   H     H_    0.149653 0.259458 0.075942 0.129821
H13   H     H_    0.649377 0.240046 0.076241 0.129757
H14   H     H_    0.350628 0.760095 0.923902 0.129777
H15   H     H_    0.350621 0.240062 0.923758 0.129757
H16   H     H_    0.649377 0.760095 0.076090 0.129781
H17   H     H_    0.300148 0.788750 0.841749 0.131940
H18   H     H_    0.699892 0.211489 0.158385 0.132094
H19   H     H_    0.699856 0.788756 0.158243 0.131944
H20   H     H_    0.300107 0.211500 0.841615 0.132094
H21   H     H_    0.799851 0.288042 0.841941 0.131520
H22   H     H_    0.200142 0.711788 0.158019 0.131550
H23   H     H_    0.200147 0.288038 0.158061 0.131520
H24   H     H_    0.799860 0.711769 0.841985 0.131550
H25   H     H_    0.131065 0.847174 0.011370 0.148577
H26   H     H_    0.868802 0.152650 0.988795 0.148298
H27   H     H_    0.868937 0.847171 0.988628 0.148578
H28   H     H_    0.131198 0.152648 0.011205 0.148301
H29   H     H_    0.630797 0.346708 0.011598 0.148231
H30   H     H_    0.369189 0.653273 0.988424 0.148238
H31   H     H_    0.369200 0.346715 0.988406 0.148231
H32   H     H_    0.630814 0.653267 0.011574 0.148239
H33   H     H_    0.115775 0.847524 0.769159 0.173151
H34   H     H_    0.884559 0.153091 0.230589 0.175341
H35   H     H_    0.884224 0.847525 0.230842 0.173151
H36   H     H_    0.115447 0.153082 0.769407 0.175349
H37   H     H_    0.615766 0.347525 0.769150 0.172820
H38   H     H_    0.384240 0.652477 0.230855 0.172744
H39   H     H_    0.384234 0.347524 0.230850 0.172821
H40   H     H_    0.615760 0.652476 0.769145 0.172744
H41   H     H_    0.244928 0.731367 0.782828 0.147601
H42   H     H_    0.755259 0.269003 0.217064 0.147626
H43   H     H_    0.755074 0.731366 0.217170 0.147603
H44   H     H_    0.244738 0.269006 0.782938 0.147629
H45   H     H_    0.744645 0.230874 0.783044 0.148266
H46   H     H_    0.255332 0.769080 0.216986 0.148400
H47   H     H_    0.255355 0.230877 0.216956 0.148267
H48   H     H_    0.744673 0.769068 0.783011 0.148402
O1    O     O_R   0.255040 0.869590 0.478480 -0.592424
O2    O     O_R   0.744960 0.130410 0.521520 -0.584927
O3    O     O_R   0.744960 0.869590 0.521520 -0.592425
O4    O     O_R   0.255040 0.130410 0.478480 -0.584927
O5    O     O_R   0.755040 0.369590 0.478480 -0.575800
O6    O     O_R   0.244960 0.630410 0.521520 -0.575910
O7    O     O_R   0.244960 0.369590 0.521520 -0.575805
O8    O     O_R   0.755040 0.630410 0.478480 -0.575909
O9    O     O_R   0.182050 0.796550 0.624440 -0.601766
O10   O     O_R   0.817950 0.203450 0.375560 -0.592463
O11   O     O_R   0.817950 0.796550 0.375560 -0.601778
O12   O     O_R   0.182050 0.203450 0.624440 -0.592451
O13   O     O_R   0.682050 0.296550 0.624440 -0.602410
O14   O     O_R   0.317950 0.703450 0.375560 -0.602355
O15   O     O_R   0.317950 0.296550 0.375560 -0.602413
O16   O     O_R   0.682050 0.703450 0.624440 -0.602343
O17   O     O_R   0.250530 0.763330 0.367210 -0.589602
O18   O     O_R   0.749470 0.236670 0.632790 -0.591454
O19   O     O_R   0.749470 0.763330 0.632790 -0.589595
O20   O     O_R   0.250530 0.236670 0.367210 -0.591449
O21   O     O_R   0.750530 0.263330 0.367210 -0.593380
O22   O     O_R   0.249470 0.736670 0.632790 -0.591777
O23   O     O_R   0.249470 0.263330 0.632790 -0.593377
O24   O     O_R   0.750530 0.736670 0.367210 -0.591780
O25   O     O_R   0.177260 0.690030 0.513710 -0.590912
O26   O     O_R   0.822740 0.309970 0.486290 -0.591608
O27   O     O_R   0.822740 0.690030 0.486290 -0.590910
O28   O     O_R   0.177260 0.309970 0.513710 -0.591559
O29   O     O_R   0.677260 0.190030 0.513710 -0.590464
O30   O     O_R   0.322740 0.809970 0.486290 -0.584192
O31   O     O_R   0.322740 0.190030 0.486290 -0.590464
O32   O     O_R   0.677260 0.809970 0.513710 -0.584173
O33   O     O_R   0.051640 0.926880 0.885090 -0.591966
O34   O     O_R   0.948360 0.073120 0.114910 -0.592197
O35   O     O_R   0.948360 0.926880 0.114910 -0.591965
O36   O     O_R   0.051640 0.073120 0.885090 -0.592198
O37   O     O_R   0.551640 0.426880 0.885090 -0.592053
O38   O     O_R   0.448360 0.573120 0.114910 -0.592061
O39   O     O_R   0.448360 0.426880 0.114910 -0.592053
O40   O     O_R   0.551640 0.573120 0.885090 -0.592062
O41   O     O_R   0.940620 0.926560 0.986760 -0.591341
O42   O     O_R   0.059380 0.073440 0.013240 -0.590923
O43   O     O_R   0.059380 0.926560 0.013240 -0.591342
O44   O     O_R   0.940620 0.073440 0.986760 -0.590924
O45   O     O_R   0.440620 0.426560 0.986760 -0.591694
O46   O     O_R   0.559380 0.573440 0.013240 -0.591706
O47   O     O_R   0.559380 0.426560 0.013240 -0.591693
O48   O     O_R   0.440620 0.573440 0.986760 -0.591705
C157  C     C_3   0.245905 0.000037 0.573944 -0.356703
C158  C     C_3   0.241828 0.036939 0.657736 -0.823364
H49   H     H_    0.269022 0.010369 0.680469 0.248520
H50   H     H_    0.253052 0.093695 0.645682 0.245670
H51   H     H_    0.199454 0.033497 0.712167 0.242131
H52   H     H_    0.217008 0.023407 0.552928 0.226642
H53   H     H_    0.230483 0.946036 0.597812 0.213732
C159  C     C_3   0.754101 0.000035 0.426055 -0.356700
C160  C     C_3   0.758184 0.036939 0.342260 -0.823357
H54   H     H_    0.730990 0.010374 0.319522 0.248518
H55   H     H_    0.746962 0.093696 0.354313 0.245670
H56   H     H_    0.800558 0.033494 0.287833 0.242133
H57   H     H_    0.782995 0.023403 0.447078 0.226641
H58   H     H_    0.769522 0.946034 0.402187 0.213732
C161  C     C_3   0.744872 0.499999 0.564120 -0.318186
C162  C     C_3   0.702588 0.500001 0.529038 -0.679087
H59   H     H_    0.722208 0.500005 0.454830 0.247335
H60   H     H_    0.675801 0.452755 0.554168 0.225511
H61   H     H_    0.675797 0.547243 0.554173 0.225381
H62   H     H_    0.737318 0.453821 0.609436 0.176612
H63   H     H_    0.737320 0.546177 0.609436 0.176460
C163  C     C_3   0.255135 0.499998 0.435875 -0.318194
C164  C     C_3   0.297415 0.499999 0.470965 -0.679114
H64   H     H_    0.277793 0.499999 0.545171 0.247341
H65   H     H_    0.324204 0.452757 0.445836 0.225511
H66   H     H_    0.324203 0.547241 0.445838 0.225384
H67   H     H_    0.262690 0.453818 0.390561 0.176615
H68   H     H_    0.262690 0.546175 0.390557 0.176466
C165  C     C_3   0.568453 0.820012 0.641019 -0.372649
C166  C     C_3   0.579332 0.850455 0.715449 -0.811001
H69   H     H_    0.623195 0.859360 0.692322 0.239566
H70   H     H_    0.557047 0.901224 0.740434 0.247213
H71   H     H_    0.565032 0.812195 0.771846 0.234929
H72   H     H_    0.524929 0.804150 0.674547 0.186671
H73   H     H_    0.591024 0.769820 0.614801 0.225987
C167  C     C_3   0.431610 0.180119 0.358795 -0.374451
C168  C     C_3   0.420892 0.149784 0.284148 -0.813441
H74   H     H_    0.443241 0.099060 0.259093 0.247830
H75   H     H_    0.377051 0.140832 0.307088 0.237001
H76   H     H_    0.435230 0.188139 0.227841 0.235759
H77   H     H_    0.408924 0.230210 0.385159 0.226437
H78   H     H_    0.475095 0.196146 0.325429 0.187409
C169  C     C_3   0.431544 0.820008 0.358964 -0.372702
C170  C     C_3   0.420674 0.850457 0.284524 -0.810918
H79   H     H_    0.376811 0.859393 0.307658 0.239556
H80   H     H_    0.442985 0.901211 0.259515 0.247201
H81   H     H_    0.434961 0.812183 0.228136 0.234918
H82   H     H_    0.475061 0.804122 0.325446 0.186667
H83   H     H_    0.408961 0.769827 0.385187 0.226011
C171  C     C_3   0.568385 0.180117 0.641171 -0.374433
C172  C     C_3   0.579094 0.149780 0.715827 -0.813437
H84   H     H_    0.556747 0.099054 0.740872 0.247827
H85   H     H_    0.622934 0.140833 0.692899 0.237004
H86   H     H_    0.564747 0.188133 0.772138 0.235755
H87   H     H_    0.591069 0.230210 0.614816 0.226426
H88   H     H_    0.524899 0.196142 0.674527 0.187408
C173  C     C_3   0.068438 0.319881 0.640938 -0.371924
C174  C     C_3   0.079104 0.350112 0.715692 -0.810794
H89   H     H_    0.122971 0.358648 0.692992 0.238127
H90   H     H_    0.056989 0.401033 0.740474 0.248047
H91   H     H_    0.064455 0.311865 0.772147 0.234480
H92   H     H_    0.024928 0.303962 0.674249 0.186929
H93   H     H_    0.091048 0.269729 0.614644 0.226123
C175  C     C_3   0.931559 0.680129 0.359052 -0.371636
C176  C     C_3   0.920878 0.649918 0.284304 -0.810549
H94   H     H_    0.942952 0.598979 0.259543 0.247948
H95   H     H_    0.877011 0.641435 0.307004 0.238436
H96   H     H_    0.935550 0.688144 0.227835 0.234393
H97   H     H_    0.908955 0.730283 0.385362 0.226424
H98   H     H_    0.975070 0.696039 0.325735 0.186830
C177  C     C_3   0.931548 0.319813 0.359152 -0.371941
C178  C     C_3   0.920954 0.350014 0.284313 -0.810800
H99   H     H_    0.877115 0.358808 0.307018 0.238168
H100  H     H_    0.943250 0.400790 0.259305 0.248016
H101  H     H_    0.935452 0.311627 0.228013 0.234485
H102  H     H_    0.975045 0.303839 0.325911 0.186925
H103  H     H_    0.908899 0.269693 0.385485 0.226198
C179  C     C_3   0.068433 0.680139 0.640869 -0.371580
C180  C     C_3   0.079093 0.649931 0.715641 -0.810551
H104  H     H_    0.057020 0.598990 0.740390 0.247927
H105  H     H_    0.122958 0.641452 0.692968 0.238445
H106  H     H_    0.064406 0.688157 0.772111 0.234387
H107  H     H_    0.091034 0.730297 0.614575 0.226401
H108  H     H_    0.024920 0.696042 0.674160 0.186823

loop_
_geom_bond_atom_site_label_1
_geom_bond_atom_site_label_2
_ccdc_geom_bond_type
Cu5   O13   S    
C174  H90   S    
C4    O20   A    
Cu7   O31   S    
C34   C42   A    
C16   C113  A    
C110  C118  A    
C50   H30   S    
C168  H74   S    
C19   C177  S    
C6    O22   A    
C27   C99   S    
C38   H13   S    
C163  H67   S    
C13   C139  A    
C47   H27   S    
C179  H107  S    
C117  C119  A    
Cu6   O22   S    
C174  H91   S    
C160  H56   S    
C30   C38   A    
C33   H21   S    
C90   O1    A    
C2    O13   A    
C3    O19   A    
C109  C127  A    
C1    O17   A    
C159  C160  S    
C101  O41   A    
C111  C125  A    
C164  H65   S    
C85   O6    A    
Cu2   O10   S    
C170  H81   S    
C125  C135  A    
C143  C151  A    
C64   H36   S    
C126  C136  A    
C19   C141  A    
C92   C147  S    
C171  H88   S    
C82   C98   A    
C130  C134  A    
C154  C159  S    
C44   H11   S    
C73   C81   A    
C43   H12   S    
C115  C123  A    
C84   C100  A    
Cu4   Cu7   S    
C127  C136  A    
C128  C135  A    
C112  C120  A    
C179  C180  S    
C27   C35   A    
C171  C172  S    
C173  H93   S    
C21   C29   A    
C23   C31   A    
C157  H52   S    
C24   C32   A    
C175  H97   S    
Cu8   O8    S    
C146  C154  A    
C88   O7    A    
Cu2   O2    S    
C59   C105  S    
C129  C133  A    
C63   C71   A    
C36   C44   A    
C148  C153  A    
C105  O39   A    
Cu7   O23   S    
C167  C168  S    
C168  H76   S    
C54   C104  S    
Cu12  O35   S    
C8    C71   S    
C159  H58   S    
C48   C96   A    
C16   C138  A    
C178  H99   S    
C20   C179  S    
Cu8   O16   S    
Cu9   O40   S    
C24   C96   S    
C149  C155  A    
C177  H102  S    
C21   C93   S    
C78   C94   A    
C23   C95   S    
C108  O48   A    
Cu10  O46   S    
C118  C120  A    
C121  C123  A    
C49   C97   A    
C177  C178  S    
C102  O42   A    
C116  C130  A    
C173  C174  S    
Cu4   O20   S    
C31   H19   S    
C125  C127  A    
C24   C43   A    
C10   C138  A    
Cu1   Cu6   S    
C14   C115  A    
C110  C128  A    
C15   C137  A    
C9    C133  A    
C167  H77   S    
C6    C69   S    
C165  H73   S    
C69   C77   A    
C45   C93   A    
C71   C79   A    
C92   O32   A    
C49   H29   S    
C62   C70   A    
C63   H35   S    
C1    C74   S    
Cu12  O43   S    
C119  H6    S    
C9    C140  A    
C65   H37   S    
C66   C74   A    
C6    O9    A    
C106  O46   A    
C49   C57   A    
C14   C167  S    
C169  H82   S    
Cu2   O26   S    
C165  H72   S    
C155  C161  S    
C52   C60   A    
C59   C67   A    
C53   C61   A    
C81   H45   S    
C89   O29   A    
C55   C63   A    
C56   C64   A    
C52   H32   S    
C35   C43   A    
C78   H42   S    
C17   C173  S    
C39   H16   S    
C80   H44   S    
C40   H15   S    
C45   C53   A    
C22   C94   S    
C178  H101  S    
C170  H80   S    
C46   H26   S    
C8    O24   A    
C50   C98   A    
C103  O33   A    
C106  O40   A    
C34   H22   S    
C162  H59   S    
C7    C72   S    
C52   C100  A    
Cu11  O36   S    
C21   C42   A    
C92   O3    A    
Cu5   O29   S    
C165  C166  S    
C25   C38   A    
C46   C94   A    
C27   C40   A    
Cu10  O39   S    
Cu4   O28   S    
C11   C141  A    
C60   C68   A    
C2    C73   S    
C158  H50   S    
C25   C97   S    
C14   C140  A    
C87   C152  S    
C180  H105  S    
C88   C151  S    
C67   C75   A    
C122  C124  A    
C177  H103  S    
C60   C106  S    
C171  H87   S    
C172  H86   S    
C126  C128  A    
C22   C30   A    
C108  O38   A    
C36   H24   S    
Cu3   O19   S    
C175  C176  S    
C158  H51   S    
C68   C76   A    
Cu12  O34   S    
C13   C165  S    
C12   C143  A    
C163  H68   S    
C56   C102  S    
C144  C152  A    
C179  H108  S    
Cu2   O18   S    
Cu4   O4    S    
C138  C146  A    
C160  H55   S    
C29   H17   S    
Cu9   O37   S    
C123  H2    S    
C121  H4    S    
C113  C121  A    
C122  H3    S    
C12   C136  A    
Cu3   Cu8   S    
C25   C33   A    
C86   O26   A    
C172  H85   S    
C162  H61   S    
C131  C134  A    
C76   C84   A    
C109  C117  A    
C16   C171  S    
C79   H43   S    
Cu9   Cu10  S    
C5    O21   A    
C161  H63   S    
C137  C145  A    
C90   C145  S    
C115  C129  A    
C166  H69   S    
C22   C41   A    
Cu5   O21   S    
C173  H92   S    
C107  O37   A    
C104  O44   A    
C91   O4    A    
Cu12  O42   S    
C85   C150  S    
C62   H34   S    
C4    C75   S    
C175  H98   S    
Cu2   Cu5   S    
C89   O2    A    
C9    C137  A    
C1    O14   A    
C2    O18   A    
C124  H1    S    
C68   H40   S    
C35   H23   S    
C161  C162  S    
C169  H83   S    
C86   O5    A    
C112  C126  A    
Cu1   O9    S    
C174  H89   S    
C172  H84   S    
C83   C99   A    
C101  O35   A    
C74   C82   A    
Cu3   O27   S    
C168  H75   S    
C45   H25   S    
C91   O31   A    
C169  C170  S    
C50   C58   A    
C4    O15   A    
C104  O34   A    
C166  H71   S    
C178  H100  S    
Cu11  Cu12  S    
C54   C62   A    
C28   C39   A    
C23   C44   A    
Cu4   O12   S    
C130  C132  A    
C79   C95   A    
C11   C135  A    
C164  H64   S    
C152  C155  A    
C46   C54   A    
C85   O25   A    
Cu9   O48   S    
Cu10  O47   S    
C18   C111  A    
Cu6   O14   S    
Cu3   O3    S    
Cu11  O44   S    
C167  H78   S    
C116  C124  A    
C103  O43   A    
C57   C65   A    
C88   O28   A    
C83   H47   S    
C26   C37   A    
C15   C169  S    
C17   C143  A    
C33   C41   A    
C87   O8    A    
C142  C150  A    
C18   C144  A    
C157  H53   S    
C75   C83   A    
C53   C103  S    
C37   H14   S    
C90   O30   A    
C77   C93   A    
C12   C142  A    
C58   C108  S    
C13   C116  A    
C28   C36   A    
C72   C80   A    
C29   C37   A    
C180  H104  S    
C159  H57   S    
C70   C78   A    
C176  H94   S    
C153  C157  S    
C140  C148  A    
C156  C163  S    
C141  C149  A    
C139  C147  A    
C5    C70   S    
C102  O36   A    
C30   H18   S    
C111  C119  A    
C162  H60   S    
Cu7   O15   S    
C163  C164  S    
C66   H38   S    
C7    O12   A    
C42   H9    S    
C65   C73   A    
C5    O10   A    
C147  C154  A    
Cu1   O25   S    
C61   H33   S    
C82   H46   S    
C26   C34   A    
Cu6   O6    S    
C132  C133  A    
Cu8   O24   S    
Cu3   O11   S    
C80   C96   A    
C11   C144  A    
C77   H41   S    
C145  C153  A    
C28   C100  S    
C32   C40   A    
C150  C156  A    
C48   H28   S    
Cu1   O1    S    
C91   C148  S    
C8    O11   A    
C58   C66   A    
C51   C99   A    
C89   C146  S    
C164  H66   S    
C32   H20   S    
C20   C142  A    
C41   H10   S    
C86   C149  S    
C151  C156  A    
Cu5   O5    S    
Cu6   O30   S    
C87   O27   A    
Cu11  O41   S    
C161  H62   S    
C160  H54   S    
C176  H95   S    
C15   C114  A    
C3    C76   S    
C51   H31   S    
C26   C98   S    
C117  H8    S    
C57   C107  S    
C7    O23   A    
C118  H7    S    
C176  H96   S    
Cu9   O45   S    
C51   C59   A    
C17   C112  A    
C67   H39   S    
C170  H79   S    
C47   C55   A    
C157  C158  S    
C19   C110  A    
C61   C69   A    
C48   C56   A    
C113  C131  A    
C114  C132  A    
C10   C134  A    
C3    O16   A    
Cu7   O7    S    
C55   C101  S    
Cu11  O33   S    
C166  H70   S    
Cu1   O17   S    
C81   C97   A    
Cu10  O38   S    
C31   C39   A    
C64   C72   A    
C18   C175  S    
Cu8   O32   S    
C158  H49   S    
C20   C109  A    
C114  C122  A    
C120  H5    S    
C105  O45   A    
C10   C139  A    
C180  H106  S    
C47   C95   A    
C107  O47   A    
C84   H48   S    
C129  C131  A    
