data_mof_unit_66706.cif
_audit_creation_date              2013-03-05T15:41:25-0500
_audit_creation_method            fapswitch 2.2
_symmetry_space_group_name_H-M    P1
_symmetry_Int_Tables_number       1
_space_group_crystal_system       triclinic
_cell_length_a                    12.065731
_cell_length_b                    18.640648
_cell_length_c                    10.467284
_cell_angle_alpha                 90.954512
_cell_angle_beta                  110.16381
_cell_angle_gamma                 89.477875
_cell_volume                      2209.61933465

loop_
_atom_site_label
_atom_site_type_symbol
_atom_site_description
_atom_site_fract_x
_atom_site_fract_y
_atom_site_fract_z
_atom_type_partial_charge
O1    O     O_R   0.267710 0.668200 0.902110 -0.426017
O2    O     O_R   0.732290 0.331800 0.097890 -0.413385
O3    O     O_R   0.732290 0.168200 0.097890 -0.420308
O4    O     O_R   0.267710 0.831800 0.902110 -0.402052
O5    O     O_R   0.099480 0.674460 0.038850 -0.448494
O6    O     O_R   0.900520 0.325540 0.961150 -0.509667
O7    O     O_R   0.900520 0.174460 0.961150 -0.487396
O8    O     O_R   0.099480 0.825540 0.038850 -0.498132
C1    C     C_R   0.135251 0.640827 0.157960 0.566364
C2    C     C_R   0.923112 0.354408 0.859196 0.548250
C3    C     C_R   0.920849 0.145878 0.856057 0.575522
C4    C     C_R   0.088814 0.856694 0.146758 0.524662
O9    O     O_R   0.116720 0.669210 0.267660 -0.462722
O10   O     O_R   0.883280 0.330790 0.732340 -0.470461
O11   O     O_R   0.883280 0.169210 0.732340 -0.492999
O12   O     O_R   0.116720 0.830790 0.267660 -0.485052
O13   O     O_R   0.366710 0.675440 0.427590 -0.468483
O14   O     O_R   0.633290 0.324560 0.572410 -0.451657
O15   O     O_R   0.633290 0.175440 0.572410 -0.442354
O16   O     O_R   0.366710 0.824560 0.427590 -0.465288
C5    C     C_R   0.472077 0.648597 0.441764 0.615226
C6    C     C_R   0.533646 0.354759 0.565120 0.598456
C7    C     C_R   0.533126 0.146105 0.561699 0.610396
C8    C     C_R   0.468269 0.853360 0.437699 0.579741
O17   O     O_R   0.534870 0.669390 0.371760 -0.478035
O18   O     O_R   0.465130 0.330610 0.628240 -0.500681
O19   O     O_R   0.465130 0.169390 0.628240 -0.503940
O20   O     O_R   0.534870 0.830610 0.371760 -0.501014
O21   O     O_R   0.453080 0.674480 0.075160 -0.445786
O22   O     O_R   0.546920 0.325520 0.924840 -0.453541
O23   O     O_R   0.546920 0.174480 0.924840 -0.471843
O24   O     O_R   0.453080 0.825520 0.075160 -0.452348
C9    C     C_R   0.373555 0.643215 0.970993 0.656069
C10   C     C_R   0.648176 0.359151 0.987618 0.594256
C11   C     C_R   0.624236 0.145693 0.030387 0.637140
C12   C     C_R   0.357156 0.861553 0.005243 0.582545
Cr1   Cr    Cr6+3 0.187610 0.750000 0.979860 1.169218
Cr2   Cr    Cr6+3 0.812390 0.250000 0.020140 1.150438
Cr3   Cr    Cr6+3 0.245810 0.750000 0.341640 1.159915
Cr4   Cr    Cr6+3 0.754190 0.250000 0.658360 1.171862
Cr5   Cr    Cr6+3 0.485760 0.750000 0.219910 1.174045
Cr6   Cr    Cr6+3 0.514240 0.250000 0.780090 1.187665
O25   O     O_3   0.306390 0.750000 0.180470 -0.381356
O26   O     O_3   0.693610 0.250000 0.819530 -0.367230
C13   C     C_R   0.508009 0.428078 0.503661 0.102649
C14   C     C_R   0.511433 0.579384 0.515918 0.066415
C15   C     C_R   0.505326 0.923176 0.510046 0.063894
C16   C     C_R   0.507016 0.073291 0.496421 0.102496
C17   C     C_R   0.304219 0.437890 0.520825 0.043322
C18   C     C_R   0.708377 0.579256 0.500537 0.048252
C19   C     C_R   0.704435 0.916091 0.503405 0.023033
C20   C     C_R   0.312194 0.071930 0.535640 0.031591
C21   C     C_R   0.221539 0.480772 0.557963 0.033239
C22   C     C_R   0.771872 0.553243 0.419938 0.040317
C23   C     C_R   0.780543 0.939062 0.437227 0.077800
C24   C     C_R   0.251086 0.040771 0.613608 0.014162
C25   C     C_R   0.245733 0.554182 0.590838 0.177728
C26   C     C_R   0.758858 0.480347 0.379341 0.205861
C27   C     C_R   0.765916 0.009357 0.386776 0.208635
C28   C     C_R   0.269818 0.967861 0.644485 0.195532
C29   C     C_R   0.356483 0.580394 0.608176 0.160876
C30   C     C_R   0.677198 0.435843 0.409915 0.215199
C31   C     C_R   0.683786 0.057642 0.411669 0.185814
C32   C     C_R   0.362874 0.931399 0.623819 0.195882
C33   C     C_R   0.429985 0.542168 0.554740 -0.025099
C34   C     C_R   0.597661 0.466612 0.471117 -0.004825
C35   C     C_R   0.596680 0.031565 0.464866 0.013972
C36   C     C_R   0.426821 0.963256 0.551897 -0.005090
C37   C     C_R   0.414243 0.468306 0.526757 -0.027557
C38   C     C_R   0.606762 0.541611 0.498495 -0.050478
C39   C     C_R   0.601828 0.957256 0.492093 -0.059497
C40   C     C_R   0.413511 0.036441 0.523169 -0.000013
C41   C     C_2   0.380227 0.938846 0.003733 0.163193
C42   C     C_2   0.599639 0.070662 0.030776 0.205852
C43   C     C_2   0.630211 0.436490 0.977544 0.189925
C44   C     C_2   0.401993 0.568831 0.944527 0.175162
C45   C     C_2   0.490625 0.967391 0.058062 0.161419
C46   C     C_2   0.513225 0.045386 0.070102 0.152789
C47   C     C_2   0.545447 0.468384 0.015618 0.166155
C48   C     C_2   0.515143 0.545130 0.988503 0.155137
C49   C     C_2   0.069455 0.933377 0.138219 0.086093
C50   C     C_2   0.960924 0.071443 0.870220 0.070112
C51   C     C_2   0.982060 0.426014 0.888883 0.033670
C52   C     C_2   0.141633 0.561561 0.145966 0.036859
C53   C     C_2   0.999539 0.964564 0.023793 0.020195
C54   C     C_2   0.008693 0.043361 0.995275 0.018254
C55   C     C_2   0.048683 0.445925 0.018753 0.040929
C56   C     C_2   0.046145 0.522625 0.068924 0.044171
C57   C     C_2   0.119156 0.448230 0.581159 0.697445
O27   O     O_2   0.025219 0.479741 0.546778 -0.432449
O28   O     O_R   0.133108 0.385082 0.655334 -0.591916
H1    H     H_    0.056223 0.367322 0.661527 0.366742
C58   C     C_2   0.839455 0.604761 0.367459 0.703231
O29   O     O_2   0.928298 0.586150 0.344957 -0.390864
O30   O     O_R   0.798984 0.675502 0.341158 -0.600481
H2    H     H_    0.851300 0.705584 0.305503 0.362959
C59   C     C_2   0.867770 0.888171 0.412245 0.713549
O31   O     O_2   0.925549 0.847786 0.501220 -0.394736
O32   O     O_R   0.878616 0.882546 0.284186 -0.589788
H3    H     H_    0.918453 0.836267 0.272210 0.355983
C60   C     C_2   0.161865 0.082865 0.650676 0.680095
O33   O     O_2   0.193687 0.122619 0.750637 -0.411849
O34   O     O_R   0.044921 0.084253 0.562860 -0.610481
H4    H     H_    0.996216 0.122398 0.588962 0.377311
Br1   Br    Br    0.131458 0.623487 0.604650 -0.273107
Br2   Br    Br    0.858331 0.438761 0.289931 -0.259273
Br3   Br    Br    0.856201 0.039286 0.278687 -0.289250
Br4   Br    Br    0.146886 0.909760 0.658297 -0.192091
C61   C     C_2   0.268224 0.367781 0.448622 0.653963
O35   O     O_2   0.205138 0.326115 0.480336 -0.427090
O36   O     O_R   0.316013 0.347407 0.349625 -0.605849
H5    H     H_    0.292668 0.298044 0.311825 0.359999
C62   C     C_2   0.754234 0.640423 0.599595 0.670260
O37   O     O_2   0.700485 0.660274 0.673795 -0.488836
O38   O     O_R   0.863053 0.671955 0.615912 -0.623379
H6    H     H_    0.890737 0.706071 0.697100 0.364412
C63   C     C_2   0.724052 0.847942 0.582005 0.603819
O39   O     O_2   0.750255 0.792977 0.534551 -0.423144
O40   O     O_R   0.692510 0.844633 0.698401 -0.648480
H7    H     H_    0.700396 0.794731 0.737432 0.388802
C64   C     C_2   0.263527 0.136412 0.451695 0.605798
O41   O     O_2   0.195809 0.177960 0.479108 -0.457129
O42   O     O_R   0.299630 0.150021 0.342086 -0.612425
H8    H     H_    0.256109 0.191493 0.286836 0.355869
Br5   Br    Br    0.412612 0.669496 0.705688 -0.310624
Br6   Br    Br    0.667738 0.338057 0.339405 -0.249101
Br7   Br    Br    0.693564 0.154628 0.355258 -0.305017
Br8   Br    Br    0.424054 0.846892 0.726435 -0.273483
Br9   Br    Br    0.427176 0.109484 0.147963 -0.285001
Br10  Br    Br    0.634667 0.910029 0.112178 -0.308469
Br11  Br    Br    0.644129 0.612484 0.033954 -0.355863
Br12  Br    Br    0.459733 0.414108 0.107030 -0.306417
Br13  Br    Br    0.635248 0.022798 0.886798 -0.408808
Br14  Br    Br    0.243950 0.997362 0.948095 -0.378198
Br15  Br    Br    0.270170 0.504890 0.884845 -0.389297
Br16  Br    Br    0.673694 0.476376 0.834297 -0.473395
C65   C     C_2   0.076752 0.095614 0.100766 0.625262
O43   O     O_2   0.157199 0.128132 0.082432 -0.400584
O44   O     O_R   0.031780 0.119006 0.200269 -0.637855
H9    H     H_    0.059019 0.168903 0.236028 0.348984
C66   C     C_2   0.913496 0.915407 0.927500 0.578133
O45   O     O_2   0.824378 0.898559 0.949723 -0.389396
O46   O     O_R   0.946179 0.878712 0.828340 -0.597286
H10   H     H_    0.907621 0.830088 0.804378 0.349191
C67   C     C_2   0.929272 0.557059 0.029868 0.641052
O47   O     O_2   0.859094 0.534943 0.078925 -0.410227
O48   O     O_R   0.898800 0.613374 0.937613 -0.630489
H11   H     H_    0.817819 0.633904 0.923434 0.399470
C68   C     C_2   0.097468 0.387246 0.114366 0.656299
O49   O     O_2   0.160396 0.342023 0.087198 -0.428030
O50   O     O_R   0.055016 0.376680 0.220155 -0.622256
H12   H     H_    0.062566 0.324742 0.249055 0.351837
C69   C     C_2   0.900966 0.028188 0.751223 0.569757
O51   O     O_2   0.954466 0.993091 0.692757 -0.395239
O52   O     O_R   0.779951 0.027315 0.708473 -0.701455
H13   H     H_    0.753748 0.978743 0.726722 0.372533
C70   C     C_2   0.144237 0.972352 0.256266 0.569160
O53   O     O_2   0.241491 0.993469 0.262804 -0.494358
O54   O     O_R   0.103431 0.981290 0.363112 -0.611972
H14   H     H_    0.100212 0.033835 0.382730 0.382371
C71   C     C_2   0.262410 0.532272 0.196259 0.536515
O55   O     O_2   0.281290 0.470891 0.233825 -0.445733
O56   O     O_R   0.356649 0.575805 0.202148 -0.721904
H15   H     H_    0.434699 0.549147 0.232163 0.340679
C72   C     C_2   0.945756 0.479431 0.780192 0.610926
O57   O     O_2   0.857753 0.469514 0.680545 -0.490548
O58   O     O_R   0.012014 0.541233 0.791363 -0.609254
H16   H     H_    0.975769 0.573144 0.711607 0.404916

loop_
_geom_bond_atom_site_label_1
_geom_bond_atom_site_label_2
_geom_bond_distance
_ccdc_geom_bond_type
C26   C30   1.415109 A    
C25   Br1   1.920873 S    
C55   C56   1.518596 S    
O4    C12   1.351102 A    
C11   C42   1.432771 S    
C58   O29   1.220443 D    
O23   Cr6   2.020381 S    
O5    Cr1   2.000922 S    
C2    C51   1.495057 S    
C51   C55   1.366432 D    
O30   H2    1.013901 S    
O48   H11   1.009109 S    
C71   O55   1.210022 D    
O1    C9    1.316543 A    
O42   H8    1.002968 S    
C45   C46   1.476980 S    
O7    C3    1.310806 A    
C51   C72   1.471034 S    
C72   O57   1.217859 D    
Cr6   O26   2.058727 S    
C32   C36   1.392269 A    
C46   Br9   1.923040 S    
C24   C60   1.479035 S    
C5    C14   1.503532 S    
C23   C27   1.407708 A    
C68   O50   1.388328 S    
C67   O47   1.209874 D    
C33   C37   1.403755 A    
C68   O49   1.223594 D    
O38   H6    1.014074 S    
C42   Br13  1.909580 S    
O21   C9    1.310327 A    
O20   Cr5   2.103024 S    
C64   O42   1.388048 S    
O13   Cr3   1.992223 S    
C1    O9    1.342769 A    
C58   O30   1.400281 S    
C22   C58   1.493180 S    
O14   Cr4   1.992221 S    
O34   H4    1.011029 S    
C54   C65   1.481877 S    
C67   O48   1.397001 S    
C50   C69   1.442526 S    
C3    O11   1.296958 A    
C70   O53   1.220156 D    
O56   H15   1.012523 S    
O3    Cr2   2.128817 S    
C32   Br8   1.915370 S    
O50   H12   1.013065 S    
O6    Cr2   2.000921 S    
C71   O56   1.386374 S    
C7    O19   1.313007 A    
O8    C4    1.306360 A    
C69   O52   1.371954 S    
C8    O20   1.291661 A    
C19   C23   1.400738 A    
C28   Br4   1.891111 S    
O1    Cr1   2.096534 S    
C10   C43   1.456048 S    
C49   C53   1.342330 D    
O2    C10   1.350850 A    
C60   O34   1.393736 S    
C48   Br11  1.931327 S    
C17   C37   1.429453 A    
Cr5   O25   2.058727 S    
C19   C39   1.421344 A    
C16   C40   1.435759 A    
C59   O32   1.393154 S    
C44   Br15  1.914528 S    
Cr2   O26   2.094893 S    
C59   O31   1.219126 D    
O15   Cr4   1.989857 S    
C3    C50   1.458140 S    
C31   C35   1.439690 A    
O52   H13   1.004397 S    
C49   C70   1.442966 S    
O22   C10   1.328232 A    
C13   C37   1.437969 A    
C60   O33   1.222177 D    
C4    O12   1.292937 A    
C14   C33   1.381759 A    
C2    O10   1.316198 A    
C53   C66   1.482743 S    
O58   H16   1.001070 S    
C30   Br6   1.944544 S    
O16   Cr3   1.989856 S    
C30   C34   1.435937 A    
C43   Br16  1.913862 S    
Cr3   O25   2.056794 S    
O12   Cr3   2.111448 S    
C53   C54   1.516260 S    
C27   Br3   1.913062 S    
C24   C28   1.400479 A    
C26   Br2   1.910642 S    
C66   O46   1.397969 S    
C52   C56   1.363722 D    
Cr1   O25   2.094893 S    
O15   C7    1.299524 A    
O5    C1    1.335617 A    
C20   C40   1.428809 A    
C65   O44   1.392672 S    
C20   C64   1.492735 S    
O2    Cr2   2.096533 S    
C9    C44   1.470075 S    
O54   H14   1.000575 S    
O3    C11   1.319106 A    
C36   C40   1.397726 A    
C23   C59   1.496405 S    
C56   C67   1.470541 S    
C55   C68   1.470754 S    
C18   C22   1.399639 A    
C41   Br14  1.887036 S    
O40   H7    1.012665 S    
C15   C39   1.401053 A    
C64   O41   1.221648 D    
C6    O18   1.309888 A    
O23   C11   1.295706 A    
C57   O28   1.397684 S    
O8    Cr1   1.972605 S    
O24   Cr5   2.020379 S    
O17   Cr5   2.132934 S    
O24   C12   1.320821 A    
C15   C36   1.381875 A    
O28   H1    1.011004 S    
C14   C38   1.406285 A    
O18   Cr6   2.132933 S    
C17   C61   1.489598 S    
C62   O37   1.222305 D    
C22   C26   1.410783 A    
C5    O17   1.287920 A    
C21   C25   1.413685 A    
C7    C16   1.495618 S    
O36   H5    0.999155 S    
O21   Cr5   1.989986 S    
O14   C6    1.301552 A    
C8    C15   1.487087 S    
C44   C48   1.354063 D    
O6    C2    1.313435 A    
C70   O54   1.375807 S    
O44   H9    1.011120 S    
C25   C29   1.378070 A    
C65   O43   1.220433 D    
C27   C31   1.419143 A    
O32   H3    1.010608 S    
C28   C32   1.384930 A    
C18   C62   1.502628 S    
C63   O40   1.398440 S    
C18   C38   1.411805 A    
C50   C54   1.347919 D    
C63   O39   1.217305 D    
C21   C57   1.475907 S    
O19   Cr6   2.103026 S    
C34   C38   1.419994 A    
C20   C24   1.409070 A    
C17   C21   1.423985 A    
C47   Br12  1.934496 S    
C61   O36   1.394737 S    
C19   C63   1.497241 S    
O7    Cr2   1.972606 S    
C4    C49   1.445550 S    
C35   C39   1.415322 A    
C45   Br10  1.947384 S    
C16   C35   1.451533 A    
O13   C5    1.322689 A    
O11   Cr4   2.111450 S    
O9    Cr3   2.113294 S    
C12   C41   1.471291 S    
C1    C52   1.484345 S    
O10   Cr4   2.113293 S    
C47   C48   1.480961 S    
C29   C33   1.387175 A    
Cr4   O26   2.056795 S    
C6    C13   1.503951 S    
O4    Cr1   2.128815 S    
C72   O58   1.388458 S    
C42   C46   1.337847 D    
C61   O35   1.219169 D    
C13   C34   1.441681 A    
C41   C45   1.364341 D    
O22   Cr6   1.989985 S    
C29   Br5   1.935607 S    
C62   O38   1.398109 S    
C57   O27   1.213621 D    
C66   O45   1.220638 D    
C43   C47   1.349194 D    
O16   C8    1.312129 A    
C31   Br7   1.928337 S    
C52   C71   1.471403 S    
O46   H10   1.010236 S    
C69   O51   1.212658 D    
