data_mof_unit_40089.cif
_audit_creation_date              2012-12-11T16:05:02-0500
_audit_creation_method            fapswitch 2.2
_symmetry_space_group_name_H-M    P1
_symmetry_Int_Tables_number       1
_space_group_crystal_system       triclinic
_cell_length_a                    10.665972
_cell_length_b                    10.667283
_cell_length_c                    16.949097
_cell_angle_alpha                 98.304891
_cell_angle_beta                  98.76295
_cell_angle_gamma                 61.735183
_cell_volume                      1672.8621243

loop_
_atom_site_label
_atom_site_type_symbol
_atom_type_description
_atom_site_fract_x
_atom_site_fract_y
_atom_site_fract_z
_atom_type_partial_charge
C1    C     C_R   0.353065 0.778072 0.399476 0.537555
C2    C     C_3   0.715965 0.334566 0.250301 -0.134429
C3    C     C_3   0.816462 0.353021 0.321430 0.036457
C4    C     C_3   0.946347 0.228453 0.286836 -0.171834
C5    C     C_3   0.963747 0.335687 0.242558 -0.119404
C6    C     C_3   0.832986 0.460057 0.277868 0.080546
C7    C     C_3   0.732646 0.443000 0.206552 -0.154717
C8    C     C_3   0.862250 0.318610 0.172059 0.036152
C9    C     C_3   0.467449 0.793683 0.224215 -0.090290
C10   C     C_3   0.417959 0.697710 0.257029 -0.092652
C11   C     C_3   0.340792 0.820003 0.319883 0.061296
C12   C     C_R   0.370604 0.347267 0.358796 0.540242
C13   C     C_3   0.391266 0.914652 0.288809 -0.106117
C14   C     C_3   0.252637 0.970805 0.231560 -0.125082
C15   C     C_3   0.202578 0.875357 0.263692 -0.113409
C16   C     C_3   0.279207 0.753762 0.200303 -0.122529
C17   C     C_3   0.328945 0.848290 0.168752 0.036937
C18   C     C_3   0.459528 0.265499 0.776638 -0.113888
C19   C     C_3   0.394871 0.405175 0.735167 -0.109586
C20   C     C_3   0.337854 0.333730 0.663479 0.053887
C21   C     C_3   0.402534 0.194897 0.704331 -0.111588
C22   C     C_3   0.259880 0.251270 0.741085 -0.111327
C23   C     C_R   0.774646 0.378908 0.401386 0.543438
C24   C     C_3   0.195397 0.391107 0.699062 -0.122876
C25   C     C_3   0.252252 0.461429 0.772320 -0.120963
C26   C     C_3   0.317745 0.321953 0.812713 0.053754
C27   C     C_1   0.817252 0.341832 0.709621 -0.043749
C28   C     C_1   0.843775 0.315237 0.778175 -0.045178
C29   C     C_1   0.338508 0.811831 0.709853 -0.047294
C30   C     C_1   0.313186 0.839531 0.778493 -0.045756
C31   C     C_R   0.897341 0.307748 0.092165 0.547957
C32   C     C_R   0.319230 0.298903 0.120242 0.536135
C33   C     C_R   0.296915 0.887156 0.087223 0.537385
C34   C     C_R   0.356996 0.770772 0.627348 0.537874
C35   C     C_R   0.884984 0.299541 0.860929 0.543256
C36   C     C_R   0.307950 0.294171 0.891826 0.540146
C37   C     C_R   0.279729 0.885299 0.858905 0.542339
C38   C     C_R   0.367474 0.345640 0.585354 0.538482
C39   C     C_R   0.773938 0.379601 0.629612 0.539054
C40   C     C_1   0.343743 0.336961 0.275029 -0.044061
C41   C     C_1   0.332458 0.326015 0.203833 -0.052330
C42   C     C_3   0.847356 0.209161 0.214298 -0.110195
Cr1   Cr    Cr6+3 0.608340 0.611040 0.520430 1.050728
Cr2   Cr    Cr6+3 0.287650 0.601120 0.489350 1.060222
Cr3   Cr    Cr6+3 0.604040 0.287870 0.490280 1.022507
Cr4   Cr    Cr6+3 0.054020 0.052700 0.970850 1.024282
Cr5   Cr    Cr6+3 0.059230 0.375120 0.993390 1.032419
Cr6   Cr    Cr6+3 0.374950 0.061200 0.992340 1.027208
H1    H     H_    0.614786 0.331981 0.255367 0.124610
H2    H     H_    0.189988 0.082369 0.215824 0.118302
H3    H     H_    0.094325 0.907947 0.280836 0.137443
H4    H     H_    0.236053 0.686030 0.162685 0.132403
H5    H     H_    0.451002 0.468618 0.730684 0.114638
H6    H     H_    0.567300 0.216231 0.810007 0.129067
H7    H     H_    0.462182 0.086003 0.674866 0.130849
H8    H     H_    0.203757 0.187902 0.745739 0.114668
H9    H     H_    0.192708 0.569898 0.802259 0.132320
H10   H     H_    0.852935 0.106513 0.185612 0.138830
H11   H     H_    0.030546 0.148027 0.325491 0.111159
H12   H     H_    0.065480 0.336662 0.236805 0.135932
H13   H     H_    0.648753 0.523066 0.167648 0.102245
H14   H     H_    0.481404 0.585869 0.272246 0.117764
H15   H     H_    0.573241 0.763615 0.204480 0.144304
H16   H     H_    0.434379 0.982111 0.326730 0.136185
O1    O     O_R   0.751220 0.499230 0.435170 -0.477621
O2    O     O_R   0.297880 0.469080 0.560050 -0.499142
O3    O     O_R   0.489720 0.254590 0.564810 -0.517428
O4    O     O_R   0.725220 0.304230 0.585080 -0.496017
O5    O     O_3   0.500010 0.500010 0.500020 -0.272012
O6    O     O_R   0.171830 0.913880 0.057510 -0.515811
O7    O     O_R   0.940690 0.186050 0.054730 -0.506229
O8    O     O_R   0.920470 0.405720 0.075010 -0.510767
O9    O     O_R   0.196690 0.370460 0.084120 -0.498018
O10   O     O_R   0.412990 0.180750 0.091610 -0.510537
O11   O     O_R   0.366620 0.943130 0.065760 -0.501764
O12   O     O_R   0.477220 0.727600 0.436870 -0.472325
O13   O     O_R   0.160510 0.906330 0.879210 -0.511738
O14   O     O_R   0.930190 0.179050 0.889450 -0.498154
O15   O     O_R   0.909140 0.398170 0.896710 -0.507238
O16   O     O_R   0.186190 0.363460 0.918830 -0.502116
O17   O     O_R   0.401670 0.173200 0.913310 -0.515790
O18   O     O_R   0.356120 0.936130 0.900470 -0.496082
O19   O     O_3   0.162740 0.163010 0.985530 -0.263014
O20   O     O_R   0.258650 0.745120 0.411470 -0.509139
O21   O     O_R   0.297070 0.467240 0.395960 -0.467733
O22   O     O_R   0.488830 0.252610 0.387790 -0.526074
O23   O     O_R   0.724400 0.302390 0.420980 -0.506358
O24   O     O_R   0.752100 0.501210 0.612190 -0.512308
O25   O     O_R   0.478040 0.729440 0.600970 -0.502251
O26   O     O_R   0.259530 0.747110 0.588490 -0.508312
H17   H     H_    0.088144 0.440364 0.665173 0.133409
C43   C     C_2   0.835615 0.597327 0.311752 0.579555
O27   O     O_2   0.941618 0.611925 0.308400 -0.523899
O28   O     O_R   0.717776 0.707520 0.347108 -0.684753
H18   H     H_    0.732640 0.794145 0.367410 0.327944

loop_
_geom_bond_atom_site_label_1
_geom_bond_atom_site_label_2
_ccdc_geom_bond_type
C18   C21   S    
C39   O4    A    
Cr2   O2    S    
C19   C20   S    
C1    C11   S    
Cr5   O15   S    
C3    C6    S    
C42   H10   S    
C7    C8    S    
C1    O20   A    
Cr1   O25   S    
C25   H9    S    
C12   O21   A    
Cr1   O24   S    
Cr5   O16   S    
Cr3   O23   S    
C8    C42   S    
C32   O10   A    
C5    C6    S    
C15   C16   S    
Cr6   O17   S    
C18   C19   S    
C9    C13   S    
C7    H13   S    
C2    C7    S    
C3    C23   S    
C33   O11   A    
C38   O2    A    
C28   C35   S    
C27   C39   S    
C16   C17   S    
C18   C26   S    
Cr3   O3    S    
C32   C41   S    
C15   H3    S    
C9    C10   S    
C19   H5    S    
C11   C15   S    
C31   O7    A    
Cr1   O5    S    
C23   O23   A    
C21   C22   S    
C8    C31   S    
Cr6   O11   S    
C10   H14   S    
C17   C33   S    
C39   O24   A    
Cr3   O5    S    
Cr6   O10   S    
C24   C25   S    
Cr5   O9    S    
C36   O16   A    
C32   O9    A    
C21   H7    S    
C22   H8    S    
C25   C26   S    
C37   O13   A    
C29   C34   S    
C30   C37   S    
C12   C40   S    
C34   O26   A    
C29   C30   T    
C2    H1    S    
C5    C8    S    
C20   C38   S    
C36   O17   A    
Cr1   O1    S    
Cr3   O4    S    
C43   O28   S    
Cr2   O5    S    
C20   C21   S    
Cr4   O7    S    
C33   O6    A    
C26   C36   S    
C31   O8    A    
Cr5   O19   S    
C22   C24   S    
C37   O18   A    
C3    C4    S    
C24   H17   S    
Cr2   O26   S    
Cr4   O14   S    
C9    C17   S    
Cr1   O12   S    
C40   C41   T    
C5    H12   S    
C9    H15   S    
C1    O12   A    
C16   H4    S    
C4    C5    S    
Cr2   O20   S    
Cr4   O13   S    
C6    C7    S    
C35   O14   A    
Cr6   O19   S    
C12   O22   A    
C23   O1    A    
C2    C3    S    
C34   O25   A    
C10   C16   S    
C11   C13   S    
C14   H2    S    
C13   H16   S    
C4    C42   S    
C2    C42   S    
C6    C43   S    
C4    H11   S    
C35   O15   A    
C43   O27   D    
Cr6   O18   S    
Cr3   O22   S    
O28   H18   S    
C19   C25   S    
Cr5   O8    S    
Cr4   O6    S    
C10   C11   S    
C18   H6    S    
Cr4   O19   S    
C38   O3    A    
C22   C26   S    
C27   C28   T    
C14   C15   S    
C13   C14   S    
C20   C24   S    
Cr2   O21   S    
C14   C17   S    
