data_mof_unit_17095.cif
_audit_creation_date              2013-03-05T16:36:13-0500
_audit_creation_method            fapswitch 2.2
_symmetry_space_group_name_H-M    P1
_symmetry_Int_Tables_number       1
_space_group_crystal_system       triclinic
_cell_length_a                    27.833999
_cell_length_b                    9.079994
_cell_length_c                    7.780285
_cell_angle_alpha                 90.037019
_cell_angle_beta                  89.999968
_cell_angle_gamma                 90.000012
_cell_volume                      1966.33081002

loop_
_atom_site_label
_atom_site_type_symbol
_atom_site_description
_atom_site_fract_x
_atom_site_fract_y
_atom_site_fract_z
_atom_type_partial_charge
O1    O     O_R   0.500000 0.288390 0.642760 -0.575255
O2    O     O_R   0.500000 0.711610 0.357240 -0.575255
O3    O     O_R   0.500000 0.711610 0.642760 -0.574852
O4    O     O_R   0.500000 0.288390 0.357240 -0.574852
C1    C     C_R   0.500000 0.220022 0.499966 0.853122
C2    C     C_R   0.500000 0.779978 0.500034 0.853122
O5    O     O_R   0.430260 0.500000 0.642770 -0.585703
O6    O     O_R   0.569740 0.500000 0.357230 -0.585699
O7    O     O_R   0.569740 0.500000 0.642770 -0.585699
O8    O     O_R   0.430260 0.500000 0.357230 -0.585703
C3    C     C_R   0.407180 0.500000 0.500000 0.796684
C4    C     C_R   0.592819 0.500000 0.500000 0.796682
Cu1   Cu    Cu3+1 0.500000 0.500000 0.669080 1.007977
Cu2   Cu    Cu3+1 0.500000 0.500000 0.330920 1.007977
C5    C     C_R   0.178023 0.370873 0.527408 0.536980
C6    C     C_R   0.821983 0.629143 0.472690 0.536945
C7    C     C_R   0.178023 0.629128 0.472592 0.536980
C8    C     C_R   0.821983 0.370857 0.527309 0.536945
O9    O     O_2   0.202892 0.245222 0.553382 -0.516443
O10   O     O_2   0.797117 0.754819 0.446848 -0.516497
O11   O     O_2   0.202892 0.754779 0.446619 -0.516443
O12   O     O_2   0.797117 0.245180 0.553151 -0.516497
N1    N     N_R   0.202056 0.500001 0.500000 -0.472571
N2    N     N_R   0.797947 0.500000 0.500000 -0.472520
C9    C     C_R   0.278654 0.491710 0.655536 -0.099521
C10   C     C_R   0.721343 0.509310 0.344573 -0.099411
C11   C     C_R   0.278654 0.508292 0.344464 -0.099522
C12   C     C_R   0.721343 0.490689 0.655427 -0.099411
C13   C     C_R   0.328754 0.492014 0.655764 -0.205909
C14   C     C_R   0.671243 0.508996 0.344342 -0.206037
C15   C     C_R   0.328754 0.507987 0.344236 -0.205909
C16   C     C_R   0.671243 0.491003 0.655658 -0.206037
C17   C     C_R   0.253515 0.500001 0.500000 0.360742
C18   C     C_R   0.746484 0.500000 0.500000 0.360412
C19   C     C_R   0.101928 0.500000 0.500000 -0.043333
C20   C     C_R   0.898079 0.500000 0.499999 -0.043347
C21   C     C_R   0.127585 0.368419 0.527681 -0.020663
C22   C     C_R   0.872422 0.631593 0.472403 -0.020634
C23   C     C_R   0.127585 0.631582 0.472319 -0.020663
C24   C     C_R   0.872422 0.368407 0.527596 -0.020633
C25   C     C_R   0.102539 0.237437 0.554730 -0.145240
C26   C     C_R   0.897468 0.762587 0.445438 -0.145221
C27   C     C_R   0.102539 0.762564 0.445271 -0.145240
C28   C     C_R   0.897468 0.237413 0.554560 -0.145220
C29   C     C_R   0.354270 0.500000 0.500000 -0.037809
C30   C     C_R   0.645728 0.500000 0.500000 -0.037814
H1    H     H_    0.259310 0.514505 0.223869 0.136705
H2    H     H_    0.740684 0.483678 0.775943 0.136900
H3    H     H_    0.259310 0.485497 0.776131 0.136705
H4    H     H_    0.740684 0.516321 0.224056 0.136900
H5    H     H_    0.121430 0.134727 0.576186 0.187089
H6    H     H_    0.878577 0.865310 0.424066 0.187072
H7    H     H_    0.121430 0.865274 0.423818 0.187089
H8    H     H_    0.878577 0.134690 0.575932 0.187072
C31   C     C_R   0.974441 0.365845 0.527742 0.045046
C32   C     C_R   0.025566 0.634150 0.472224 0.045042
C33   C     C_R   0.974441 0.634155 0.472257 0.045046
C34   C     C_R   0.025566 0.365850 0.527777 0.045043
C35   C     C_R   0.949219 0.500000 0.500000 0.067287
C36   C     C_R   0.050787 0.500000 0.500000 0.067297
C37   C     C_R   0.947327 0.235769 0.554648 -0.208211
C38   C     C_R   0.052680 0.764211 0.445205 -0.208227
C39   C     C_R   0.947326 0.764231 0.445350 -0.208211
C40   C     C_R   0.052680 0.235790 0.554797 -0.208228
C41   C     C_1   0.500000 0.065394 0.499953 -0.166725
C42   C     C_1   0.500000 0.934605 0.500047 -0.166725
N3    N     N_1   0.500000 0.500000 0.076820 -0.049777
N4    N     N_1   0.500000 0.500000 0.923180 -0.049777
H9    H     H_    0.347450 0.514274 0.222334 0.160672
H10   H     H_    0.652545 0.483896 0.777471 0.160717
H11   H     H_    0.347450 0.485726 0.777666 0.160672
H12   H     H_    0.652545 0.516104 0.222528 0.160717
H13   H     H_    0.963255 0.129578 0.576604 0.132430
H14   H     H_    0.036751 0.870387 0.423146 0.132472
H15   H     H_    0.963255 0.870422 0.423392 0.132430
H16   H     H_    0.036751 0.129614 0.576858 0.132472

loop_
_geom_bond_atom_site_label_1
_geom_bond_atom_site_label_2
_geom_bond_distance
_ccdc_geom_bond_type
C31   C35   1.422528 A    
C20   C35   1.423442 A    
C11   C17   1.399910 A    
C5    O9    1.349796 S    
C7    N1    1.366738 A    
C2    C42   1.404014 S    
O1    C1    1.272300 A    
C19   C21   1.408600 A    
C22   C26   1.394659 A    
C10   H4    1.083122 S    
C33   C35   1.422529 A    
C34   C36   1.422530 A    
C32   C33   1.423022 A    
C7    C23   1.404092 A    
O7    Cu1   1.951903 S    
C5    C21   1.404089 A    
C20   C24   1.408587 A    
C8    C24   1.404094 A    
C27   H7    1.083656 S    
N1    C17   1.432313 S    
Cu2   N3    1.976970 S    
C8    N2    1.366777 A    
C24   C28   1.394659 A    
O3    Cu1   1.932431 S    
C6    O10   1.349797 S    
O3    C2    1.272542 A    
C5    N1    1.366739 A    
C12   C18   1.399759 A    
C6    N2    1.366777 A    
Cu1   Cu2   2.630982 S    
C21   C25   1.394656 A    
O2    C2    1.272300 A    
C10   C18   1.399759 A    
C33   C39   1.417280 A    
C9    C13   1.394482 A    
C11   C15   1.394482 A    
N3    N4    1.195364 T    
C12   C16   1.394482 A    
C4    C30   1.472663 S    
O8    Cu2   1.951906 S    
C16   H10   1.083192 S    
C34   C40   1.417286 A    
C37   H13   1.075025 S    
N2    C18   1.432407 S    
C32   C36   1.422531 A    
C13   C29   1.406572 A    
C19   C36   1.423439 A    
C19   C23   1.408600 A    
O5    C3    1.283180 A    
C15   H9    1.083353 S    
O6    C4    1.283170 A    
C40   H16   1.075032 S    
C1    C41   1.404014 S    
C10   C14   1.394479 A    
C32   C38   1.417287 A    
C3    C29   1.472702 S    
O1    Cu1   1.932168 S    
C11   H1    1.083279 S    
C12   H2    1.083123 S    
O6    Cu2   1.951904 S    
C8    O12   1.349797 S    
C16   C30   1.406352 A    
C14   C30   1.406354 A    
O4    C1    1.272542 A    
C14   H12   1.083193 S    
C28   C37   1.387845 A    
C20   C22   1.408585 A    
C39   H15   1.075025 S    
C31   C37   1.417279 A    
O4    Cu2   1.932431 S    
O2    Cu2   1.932167 S    
O7    C4    1.283170 A    
C9    H3    1.083279 S    
C9    C17   1.399910 A    
O8    C3    1.283180 A    
C28   H8    1.083651 S    
O5    Cu1   1.951906 S    
C23   C27   1.394657 A    
C41   C42   1.187565 T    
C15   C29   1.406570 A    
C31   C34   1.423024 A    
C26   H6    1.083651 S    
C38   H14   1.075031 S    
C25   C40   1.387848 A    
C26   C39   1.387845 A    
C25   H5    1.083656 S    
C27   C38   1.387848 A    
C6    C22   1.404094 A    
C13   H11   1.083354 S    
Cu1   N4    1.976970 S    
C7    O11   1.349796 S    
