data_mof_unit_40760.cif
_audit_creation_date              2012-12-10T19:09:05-0500
_audit_creation_method            fapswitch 2.2
_symmetry_space_group_name_H-M    P1
_symmetry_Int_Tables_number       1
_space_group_crystal_system       triclinic
_cell_length_a                    17.718792
_cell_length_b                    10.81001
_cell_length_c                    9.572882
_cell_angle_alpha                 90.542657
_cell_angle_beta                  90.348336
_cell_angle_gamma                 90.896611
_cell_volume                      1833.2505709

loop_
_atom_site_label
_atom_site_type_symbol
_atom_type_description
_atom_site_fract_x
_atom_site_fract_y
_atom_site_fract_z
_atom_type_partial_charge
C1    C     C_R   0.501854 0.262397 0.499728 0.799324
C2    C     C_R   0.885644 0.492797 0.500039 0.150319
C3    C     C_1   0.966259 0.492717 0.499572 -0.067102
C4    C     C_1   0.033940 0.493201 0.499089 -0.067918
C5    C     C_R   0.154152 0.496661 0.625605 -0.161060
C6    C     C_R   0.232809 0.498437 0.625917 -0.197836
C7    C     C_R   0.272548 0.497983 0.499191 -0.035740
C8    C     C_R   0.232151 0.495518 0.372280 -0.200323
C9    C     C_R   0.153440 0.493732 0.372334 -0.157844
C10   C     C_R   0.114566 0.494338 0.498938 0.152214
C11   C     C_R   0.504704 0.064742 0.625860 0.140259
C12   C     C_R   0.355583 0.499495 0.499706 0.780641
C13   C     C_R   0.510353 0.129455 0.500649 -0.096641
C14   C     C_R   0.528535 0.063953 0.378235 -0.222616
C15   C     C_R   0.528035 0.934855 0.378413 -0.212948
C16   C     C_R   0.510489 0.870847 0.501626 -0.099553
C17   C     C_R   0.504942 0.937552 0.626384 0.119025
C18   C     C_3   0.447082 0.930257 0.738909 -0.461607
C19   C     C_3   0.446848 0.070795 0.738520 -0.483357
C20   C     C_R   0.530584 0.597432 0.074999 0.221931
C21   C     C_R   0.460349 0.411839 0.070257 0.239575
C22   C     C_R   0.461286 0.412805 0.921940 -0.085880
C23   C     C_R   0.501916 0.737614 0.500486 0.803813
C24   C     C_R   0.530464 0.597452 0.928051 0.242715
C25   C     C_3   0.609675 0.645184 0.923249 -0.494809
C26   C     C_3   0.609942 0.644784 0.081937 -0.499396
C27   C     C_R   0.644478 0.499027 0.500250 0.784052
C28   C     C_R   0.846981 0.497336 0.626706 -0.157980
C29   C     C_R   0.768305 0.498774 0.627052 -0.192500
C30   C     C_R   0.727607 0.496269 0.500496 -0.034516
C31   C     C_R   0.767215 0.490288 0.373789 -0.192697
C32   C     C_R   0.845843 0.488853 0.373677 -0.158510
Cu1   Cu    Cu3+1 0.500000 0.499980 0.640670 0.937537
Cu2   Cu    Cu3+1 0.500000 0.500020 0.359330 0.937113
H1    H     H_    0.877614 0.499899 0.725041 0.128154
H2    H     H_    0.538025 0.885845 0.281281 0.157456
H3    H     H_    0.470379 0.891444 0.836998 0.195646
H4    H     H_    0.392571 0.109769 0.701849 0.193958
H5    H     H_    0.470041 0.112747 0.836509 0.197144
H6    H     H_    0.648955 0.577236 0.877554 0.208173
H7    H     H_    0.613372 0.739644 0.878640 0.193931
H8    H     H_    0.649322 0.576502 0.126165 0.209364
H9    H     H_    0.739613 0.501684 0.726246 0.140711
H10   H     H_    0.614144 0.739016 0.128964 0.189410
H11   H     H_    0.737677 0.486188 0.274711 0.141485
H12   H     H_    0.875560 0.484743 0.275172 0.128234
H13   H     H_    0.124235 0.497190 0.724004 0.128367
H14   H     H_    0.262370 0.500185 0.725290 0.151178
H15   H     H_    0.122941 0.491965 0.273856 0.128187
N1    N     N_R   0.500470 0.500930 0.147930 -0.184355
N2    N     N_R   0.500480 0.500890 0.852020 -0.201430
O1    O     O_R   0.500000 0.319640 0.618810 -0.581082
O2    O     O_R   0.500010 0.319680 0.381230 -0.581161
O3    O     O_R   0.391250 0.499990 0.618840 -0.582800
O4    O     O_R   0.391260 0.500020 0.381250 -0.588457
O5    O     O_R   0.499990 0.680320 0.618770 -0.574995
O6    O     O_R   0.500000 0.680360 0.381190 -0.580094
O7    O     O_R   0.608740 0.499980 0.618750 -0.580356
O8    O     O_R   0.608750 0.500010 0.381160 -0.581920
H16   H     H_    0.392963 0.887315 0.702249 0.198895
C33   C     C_3   0.416887 0.306392 0.134694 -0.800705
H17   H     H_    0.384117 0.334971 0.226241 0.262644
H18   H     H_    0.374704 0.266431 0.059922 0.175874
H19   H     H_    0.455819 0.230962 0.160540 0.226821
H20   H     H_    0.431789 0.341374 0.862296 0.146140
H21   H     H_    0.261233 0.494905 0.273099 0.151116
H22   H     H_    0.540109 0.111461 0.281640 0.156782

loop_
_geom_bond_atom_site_label_1
_geom_bond_atom_site_label_2
_ccdc_geom_bond_type
C33   H19   S    
C2    C28   A    
C14   H22   S    
C22   H20   S    
C8    H21   S    
C29   C30   A    
C19   H4    S    
Cu1   N2    S    
C11   C13   A    
C9    C10   A    
C21   C33   S    
C31   C32   A    
Cu1   O7    S    
C30   C31   A    
C24   N2    A    
C2    C3    S    
C26   H10   S    
Cu2   O4    S    
C27   O8    A    
C21   C22   A    
C29   H9    S    
Cu1   O1    S    
C5    H13   S    
C11   C19   S    
C6    C7    A    
C20   C26   S    
Cu1   O5    S    
Cu2   O6    S    
C23   O6    A    
C5    C6    A    
C19   H5    S    
C2    C32   A    
C18   H16   S    
C28   C29   A    
C18   H3    S    
Cu1   Cu2   S    
C16   C23   S    
C25   H6    S    
C22   N2    A    
C33   H17   S    
C1    O1    A    
C7    C12   S    
Cu2   N1    S    
C12   O4    A    
C1    C13   S    
C4    C10   S    
C15   C16   A    
C16   C17   A    
C20   C24   A    
C15   H2    S    
C5    C10   A    
C9    H15   S    
C24   C25   S    
C26   H8    S    
Cu2   O2    S    
C17   C18   S    
C18   C19   S    
C31   H11   S    
C23   O5    A    
Cu1   O3    S    
C33   H18   S    
C7    C8    A    
C1    O2    A    
C14   C15   A    
C21   N1    A    
C20   N1    A    
C25   H7    S    
C25   C26   S    
C13   C14   A    
Cu2   O8    S    
C32   H12   S    
C11   C17   A    
C12   O3    A    
C3    C4    T    
C28   H1    S    
C8    C9    A    
C27   C30   S    
C27   O7    A    
C6    H14   S    
