data_mof_unit_20174.cif
_audit_creation_date              2012-12-10T17:32:15-0500
_audit_creation_method            fapswitch 2.2
_symmetry_space_group_name_H-M    P1
_symmetry_Int_Tables_number       1
_space_group_crystal_system       triclinic
_cell_length_a                    12.374895
_cell_length_b                    13.249013
_cell_length_c                    15.078732
_cell_angle_alpha                 76.494192
_cell_angle_beta                  101.262998
_cell_angle_gamma                 116.744348
_cell_volume                      2135.09361336

loop_
_atom_site_label
_atom_site_type_symbol
_atom_type_description
_atom_site_fract_x
_atom_site_fract_y
_atom_site_fract_z
_atom_type_partial_charge
C1    C     C_R   0.854813 0.286641 0.508751 0.766131
C2    C     C_R   0.095827 0.494414 0.109153 0.078361
C3    C     C_R   0.782962 0.467751 0.014843 -0.200753
C4    C     C_R   0.785616 0.471195 0.922445 -0.201363
C5    C     C_R   0.890230 0.482324 0.891449 0.121985
C6    C     C_R   0.993396 0.489038 0.953888 0.078256
C7    C     C_R   0.098400 0.498752 0.922686 0.074187
C8    C     C_R   0.200604 0.505048 0.984388 -0.239562
C9    C     C_R   0.200446 0.502646 0.077726 0.173923
C10   C     C_R   0.893179 0.486708 0.798767 -0.249580
C11   C     C_R   0.997573 0.496515 0.767850 -0.062557
C12   C     C_R   0.999370 0.499206 0.671003 0.787140
C13   C     C_R   0.099666 0.502022 0.829856 -0.227868
C14   C     C_R   0.269698 0.033281 0.412549 0.371344
C15   C     C_R   0.227715 0.835467 0.475551 -0.122019
C16   C     C_R   0.812951 0.087165 0.579247 -0.230979
C17   C     C_R   0.730949 0.979997 0.616526 -0.120185
C18   C     C_R   0.605978 0.945852 0.595355 0.150921
C19   C     C_R   0.561339 0.014870 0.523828 0.056367
C20   C     C_R   0.646410 0.125113 0.486411 0.059166
C21   C     C_R   0.436100 0.981418 0.489822 0.022315
C22   C     C_R   0.395519 0.063377 0.435217 0.076750
C23   C     C_R   0.144987 0.713400 0.487092 0.869792
C24   C     C_R   0.481451 0.169663 0.398324 -0.168665
C25   C     C_R   0.604205 0.195595 0.417595 -0.198236
C26   C     C_R   0.351789 0.866948 0.500955 -0.251301
C27   C     C_R   0.186300 0.919759 0.435264 -0.188305
C28   C     C_R   0.771467 0.163700 0.520117 -0.092567
C29   C     C_R   0.345852 0.327566 0.648175 -0.292528
C30   C     C_R   0.764672 0.656291 0.382962 0.558220
C31   C     C_R   0.687938 0.708423 0.378093 -0.264307
C32   C     C_R   0.592955 0.658076 0.432371 -0.189422
C33   C     C_R   0.564021 0.548140 0.484586 0.018217
C34   C     C_R   0.997399 0.496366 0.329135 0.884332
C35   C     C_R   0.655589 0.506715 0.499090 0.212671
C36   C     C_R   0.453803 0.483076 0.529120 -0.070475
C37   C     C_R   0.448514 0.389889 0.599711 0.131639
C38   C     C_R   0.545287 0.358545 0.620918 -0.257813
C39   C     C_R   0.645361 0.414159 0.570663 -0.163493
C40   C     C_R   0.345568 0.501306 0.503918 0.500239
C41   C     C_R   0.246293 0.354468 0.624757 0.013483
C42   C     C_R   0.094126 0.495799 0.201052 -0.222444
C43   C     C_R   0.991501 0.489007 0.232440 -0.093554
C44   C     C_R   0.885017 0.475557 0.171704 0.121066
C45   C     C_R   0.885629 0.476302 0.078229 0.077163
C46   C     C_R   0.991631 0.486526 0.047233 -0.007975
Cu1   Cu    Cu3+1 0.098270 0.475420 0.521130 0.997748
Cu2   Cu    Cu3+1 0.901730 0.524580 0.478870 0.989400
H1    H     H_    0.174015 0.504001 0.248593 0.241954
H2    H     H_    0.454688 0.230778 0.349746 0.197382
H3    H     H_    0.383029 0.800620 0.524044 0.187390
H4    H     H_    0.908375 0.114033 0.604256 0.169374
H5    H     H_    0.764746 0.926828 0.669076 0.160628
H6    H     H_    0.665346 0.272569 0.377971 0.182948
H7    H     H_    0.167507 0.306838 0.662632 0.138622
H8    H     H_    0.542467 0.288210 0.675779 0.151852
H9    H     H_    0.342309 0.257713 0.703661 0.150833
H10   H     H_    0.547560 0.709626 0.435889 0.208611
H11   H     H_    0.704133 0.790149 0.334132 0.193507
H12   H     H_    0.714619 0.384202 0.592614 0.200132
H13   H     H_    0.700020 0.459399 0.035496 0.143547
H14   H     H_    0.705676 0.465356 0.875099 0.144516
H15   H     H_    0.813686 0.481265 0.750949 0.155201
H16   H     H_    0.180601 0.509813 0.805824 0.156641
H17   H     H_    0.280702 0.511802 0.959838 0.141640
H18   H     H_    0.090114 0.896722 0.416357 0.219648
N1    N     N_R   0.246280 0.438190 0.553160 -0.201595
N2    N     N_R   0.754320 0.561190 0.447410 -0.241300
O1    O     O_R   0.972510 0.318130 0.526570 -0.577063
O2    O     O_R   0.806530 0.359650 0.490890 -0.613000
O3    O     O_R   0.082980 0.479210 0.647590 -0.597538
O4    O     O_R   0.917000 0.520730 0.611900 -0.607551
O5    O     O_R   0.193470 0.640350 0.509110 -0.556869
O6    O     O_R   0.027490 0.681870 0.473430 -0.552484
O7    O     O_R   0.083000 0.479270 0.388100 -0.535556
O8    O     O_R   0.917020 0.520790 0.352410 -0.510650
Cl1   Cl    Cl    0.212620 0.133913 0.353876 -0.626324
N3    N     N_3   0.530993 0.852409 0.658524 -0.610691
H19   H     H_    0.455221 0.862776 0.667580 0.232409
H20   H     H_    0.507390 0.774540 0.637750 0.214591
N4    N     N_3   0.776665 0.458996 0.205996 -0.560991
H21   H     H_    0.752375 0.525730 0.173294 0.250227
H22   H     H_    0.706474 0.380726 0.192135 0.203128
Cl2   Cl    Cl    0.328532 0.591724 0.401400 -0.641177
Cl3   Cl    Cl    0.880208 0.724413 0.309293 -0.600627
N5    N     N_3   0.306264 0.509147 0.140507 -0.554397
H23   H     H_    0.284624 0.428567 0.181556 0.247863
H24   H     H_    0.378470 0.524884 0.105105 0.220305

loop_
_geom_bond_atom_site_label_1
_geom_bond_atom_site_label_2
_ccdc_geom_bond_type
C16   C28   A    
C21   C26   A    
Cu2   O8    S    
C19   C20   A    
C32   H10   S    
C10   H15   S    
N4    H21   S    
C7    C8    A    
C41   N1    A    
C45   C46   A    
C2    C46   A    
C36   C37   A    
C19   C21   A    
C23   O5    A    
C5    C6    A    
N3    H20   S    
C20   C25   A    
C4    H14   S    
C33   C36   A    
C18   C19   A    
C14   Cl1   S    
C31   H11   S    
C40   Cl2   S    
Cu1   O1    S    
C41   H7    S    
C31   C32   A    
C8    C9    A    
C40   N1    A    
C1    C28   S    
C24   C25   A    
C14   C27   A    
C34   O7    A    
C15   C23   S    
C12   O4    A    
C8    H17   S    
C21   C22   A    
Cu2   O4    S    
Cu1   N1    S    
N4    H22   S    
C3    H13   S    
C24   H2    S    
C38   C39   A    
Cu2   O6    S    
C36   C40   A    
C25   H6    S    
Cu1   O5    S    
C44   N4    S    
N5    H23   S    
C16   C17   A    
C15   C26   A    
C20   C28   A    
C3    C45   A    
C1    O1    A    
C35   C39   A    
C43   C44   A    
C37   C38   A    
C9    N5    S    
C15   C27   A    
Cu1   Cu2   S    
C18   N3    S    
C17   C18   A    
Cu2   N2    S    
C30   Cl3   S    
Cu1   O3    S    
C12   O3    A    
C29   H9    S    
C22   C24   A    
C42   C43   A    
C23   O6    A    
C3    C4    A    
C17   H5    S    
C44   C45   A    
C6    C46   A    
C29   C41   A    
N3    H19   S    
C34   C43   S    
C16   H4    S    
Cu2   O2    S    
C4    C5    A    
C11   C12   S    
C6    C7    A    
C1    O2    A    
C32   C33   A    
C14   C22   A    
Cu1   O7    S    
C5    C10   A    
C27   H18   S    
C26   H3    S    
C11   C13   A    
C30   C31   A    
C13   H16   S    
C35   N2    A    
C2    C42   A    
C39   H12   S    
C33   C35   A    
N5    H24   S    
C10   C11   A    
C42   H1    S    
C7    C13   A    
C38   H8    S    
C29   C37   A    
C2    C9    A    
C30   N2    A    
C34   O8    A    
