data_mof_unit_22561.cif
_audit_creation_date              2013-03-05T15:56:33-0500
_audit_creation_method            fapswitch 2.2
_symmetry_space_group_name_H-M    P1
_symmetry_Int_Tables_number       1
_space_group_crystal_system       triclinic
_cell_length_a                    12.346866
_cell_length_b                    13.13922
_cell_length_c                    27.80431
_cell_angle_alpha                 77.159227
_cell_angle_beta                  100.934285
_cell_angle_gamma                 116.630174
_cell_volume                      3910.26020044

loop_
_atom_site_label
_atom_site_type_symbol
_atom_site_description
_atom_site_fract_x
_atom_site_fract_y
_atom_site_fract_z
_atom_type_partial_charge
O1    O     O_R   0.972510 0.318140 0.514280 -0.594944
O2    O     O_R   0.806530 0.359640 0.495100 -0.577314
C1    C     C_R   0.855158 0.286414 0.504001 0.883665
O3    O     O_R   0.082990 0.479270 0.579320 -0.576742
O4    O     O_R   0.917010 0.520770 0.560140 -0.593247
C2    C     C_R   0.999079 0.499523 0.592382 0.840055
Cu1   Cu    Cu3+1 0.098270 0.475420 0.511360 1.006392
Cu2   Cu    Cu3+1 0.901730 0.524580 0.488640 0.999945
O5    O     O_R   0.193470 0.640360 0.504900 -0.565955
O6    O     O_R   0.027490 0.681860 0.485720 -0.535391
O7    O     O_R   0.082990 0.479230 0.439860 -0.552587
O8    O     O_R   0.917010 0.520730 0.420680 -0.591999
C3    C     C_R   0.144868 0.714257 0.493824 0.831992
C4    C     C_R   0.000828 0.500327 0.407535 0.856419
C5    C     C_R   0.942008 0.393559 0.828435 0.662281
O9    O     O_2   0.894996 0.293778 0.810021 -0.493912
N1    N     N_R   0.989781 0.496495 0.797627 -0.435198
C6    C     C_R   0.036754 0.599371 0.814849 0.664151
C7    C     C_R   0.904246 0.520058 0.710276 0.337235
C8    C     C_R   0.908751 0.521680 0.660167 -0.229237
C9    C     C_R   0.081675 0.474021 0.681057 -0.232034
C10   C     C_R   0.081177 0.473783 0.731389 0.336109
C11   C     C_R   0.991575 0.496608 0.746156 0.121354
C12   C     C_R   0.991822 0.496296 0.897789 -0.045555
C13   C     C_R   0.941408 0.391529 0.879049 -0.029042
C14   C     C_R   0.892461 0.287473 0.911203 -0.106852
C15   C     C_R   0.038891 0.601227 0.865269 -0.030445
C16   C     C_R   0.996631 0.498531 0.645273 -0.159857
H1    H     H_    0.150258 0.456708 0.669751 0.217661
H2    H     H_    0.855146 0.205601 0.897916 0.199063
C17   C     C_R   0.001229 0.499960 0.354398 -0.070896
C18   C     C_R   0.928350 0.393856 0.030484 0.046081
C19   C     C_R   0.068818 0.599779 0.020168 -0.142006
C20   C     C_R   0.996706 0.497801 0.050499 0.036404
C21   C     C_R   0.851093 0.296279 0.060541 -0.290397
C22   C     C_R   0.844916 0.297510 0.110165 0.458908
C23   C     C_R   0.918174 0.398883 0.131058 -0.035239
C24   C     C_R   0.993914 0.499424 0.101155 -0.164354
C25   C     C_R   0.066824 0.601556 0.121913 -0.196462
C26   C     C_R   0.066619 0.598444 0.172999 0.590726
N2    N     N_R   0.992346 0.500907 0.200965 -0.474898
C27   C     C_R   0.918398 0.402836 0.181355 0.597179
C28   C     C_R   0.094762 0.496475 0.285510 -0.162606
C29   C     C_R   0.099221 0.496275 0.336440 0.402351
C30   C     C_R   0.901552 0.503633 0.320907 -0.246725
C31   C     C_R   0.898565 0.503660 0.270616 -0.091762
C32   C     C_R   0.995105 0.500307 0.252817 0.284081
O10   O     O_2   0.847192 0.309153 0.210991 -0.425722
C33   C     C_R   0.937249 0.391108 0.980643 0.067179
C34   C     C_R   0.994721 0.496217 0.949016 0.100041
C35   C     C_R   0.054002 0.601521 0.968077 0.049760
C36   C     C_R   0.889733 0.287039 0.961042 -0.187009
H3    H     H_    0.168780 0.493746 0.271038 0.153045
H4    H     H_    0.790746 0.218394 0.045651 0.145373
H5    H     H_    0.852988 0.203511 0.983742 0.155537
O11   O     O_2   0.082184 0.699270 0.783313 -0.476874
C37   C     C_R   0.085032 0.705236 0.883645 -0.106780
H6    H     H_    0.841863 0.539455 0.632731 0.219353
H7    H     H_    0.116813 0.787134 0.859126 0.208254
C38   C     C_R   0.152129 0.696537 0.043152 0.364677
C39   C     C_R   0.143356 0.700946 0.091812 0.433989
O12   O     O_2   0.141400 0.690835 0.195203 -0.482173
C40   C     C_R   0.090911 0.705373 0.934078 -0.193410
H8    H     H_    0.825138 0.506081 0.333564 0.191077
H9    H     H_    0.821250 0.506606 0.245359 0.165465
H10   H     H_    0.121682 0.787957 0.945728 0.206801
C41   C     C_R   0.272385 0.038661 0.455501 -0.135955
H11   H     H_    0.240614 0.103678 0.437197 0.223467
C42   C     C_R   0.226907 0.838341 0.488492 -0.176185
C43   C     C_R   0.814297 0.083247 0.536424 -0.321474
C44   C     C_R   0.732317 0.973088 0.555452 0.366473
C45   C     C_R   0.606904 0.945025 0.546951 0.350205
C46   C     C_R   0.562974 0.016425 0.509763 -0.136130
C47   C     C_R   0.648090 0.125472 0.488879 -0.031430
C48   C     C_R   0.437547 0.983776 0.492906 0.013451
C49   C     C_R   0.397630 0.066932 0.464883 0.020071
C50   C     C_R   0.482685 0.174210 0.444321 0.289467
C51   C     C_R   0.606618 0.195026 0.450511 0.355348
C52   C     C_R   0.351758 0.869002 0.500168 -0.207887
C53   C     C_R   0.186385 0.925982 0.469015 0.311784
C54   C     C_R   0.772679 0.162741 0.507274 -0.111471
H12   H     H_    0.382728 0.801780 0.512906 0.253615
H13   H     H_    0.910822 0.109958 0.547588 0.222788
C55   C     C_R   0.337483 0.316369 0.576382 0.246048
H14   H     H_    0.157407 0.296780 0.581991 0.183265
H15   H     H_    0.542251 0.281995 0.591095 0.203759
N3    N     N_R   0.246290 0.438210 0.528570 -0.247376
C56   C     C_R   0.758045 0.641275 0.431029 0.058370
C57   C     C_R   0.656182 0.663265 0.412139 0.236216
C58   C     C_R   0.551463 0.604181 0.437271 -0.201801
C59   C     C_R   0.549518 0.528702 0.482519 0.000075
C60   C     C_R   0.652747 0.503690 0.497623 0.262786
C61   C     C_R   0.446604 0.471798 0.511498 -0.034772
C62   C     C_R   0.442238 0.379723 0.550391 -0.020679
C63   C     C_R   0.542287 0.352503 0.562326 -0.178011
C64   C     C_R   0.646415 0.416121 0.538071 -0.172889
C65   C     C_R   0.348506 0.503891 0.503953 0.564526
C66   C     C_R   0.238984 0.345562 0.563173 -0.043241
N4    N     N_R   0.754320 0.561170 0.471730 -0.232019
H16   H     H_    0.839554 0.684419 0.412066 0.187897
H17   H     H_    0.470946 0.613831 0.419046 0.231549
H18   H     H_    0.719034 0.391209 0.551656 0.190900
N5    N     N_R   0.810682 0.542058 0.724009 0.160909
O13   O     O_R   0.760196 0.600912 0.691998 -0.244744
O14   O     O_R   0.767676 0.495529 0.766737 -0.308912
O15   O     O_3   0.249146 0.785837 0.020582 -0.670308
H19   H     H_    0.278130 0.753219 0.999517 0.333994
O16   O     O_3   0.215706 0.803302 0.109361 -0.605700
H20   H     H_    0.160306 0.825825 0.121518 0.351986
N6    N     N_R   0.059719 0.902568 0.461339 0.123888
O17   O     O_R   0.995884 0.861338 0.499070 -0.290787
O18   O     O_R   0.015627 0.944742 0.419641 -0.314339
O19   O     O_3   0.442560 0.253999 0.416168 -0.729506
H21   H     H_    0.510971 0.331820 0.415652 0.327695
N7    N     N_R   0.172166 0.450650 0.766841 0.156826
O20   O     O_R   0.223076 0.390809 0.756930 -0.275152
O21   O     O_R   0.212701 0.497194 0.807064 -0.323649
O22   O     O_3   0.532906 0.855939 0.579382 -0.661868
H22   H     H_    0.472044 0.878829 0.586646 0.339577
N8    N     N_R   0.777115 0.894387 0.587360 0.176750
O23   O     O_R   0.890920 0.930620 0.605552 -0.276156
O24   O     O_R   0.707417 0.784313 0.594931 -0.225051
O25   O     O_3   0.686661 0.276462 0.417655 -0.712541
H23   H     H_    0.640106 0.295344 0.386616 0.339109
N9    N     N_R   0.329461 0.223371 0.616242 0.126913
O26   O     O_R   0.410712 0.241391 0.654597 -0.285502
O27   O     O_R   0.229336 0.128871 0.618970 -0.288477
O28   O     O_3   0.362813 0.608760 0.476603 -0.722221
H24   H     H_    0.290610 0.594930 0.452175 0.371984
N10   N     N_R   0.657936 0.742885 0.367006 0.149119
O29   O     O_R   0.754070 0.794704 0.342942 -0.296901
O30   O     O_R   0.564110 0.765534 0.349854 -0.302751
O31   O     O_3   0.198283 0.493621 0.368680 -0.723697
H25   H     H_    0.258098 0.491994 0.349907 0.338022
O32   O     O_3   0.767582 0.200060 0.138556 -0.633786
H26   H     H_    0.723708 0.136831 0.118478 0.339558

loop_
_geom_bond_atom_site_label_1
_geom_bond_atom_site_label_2
_geom_bond_distance
_ccdc_geom_bond_type
C61   C62   1.420584 A    
C64   H18   1.064608 S    
N2    C27   1.363850 A    
N10   O30   1.301692 A    
C63   C64   1.386152 A    
C12   C15   1.408231 A    
C4    C17   1.479492 S    
C28   C29   1.406135 A    
O28   H24   0.984381 S    
C52   H12   1.078941 S    
O25   H23   0.990564 S    
C50   C51   1.411284 A    
Cu1   O7    1.952488 S    
C45   O22   1.379364 S    
N1    C11   1.435122 S    
C44   N8    1.442622 S    
C22   C23   1.412185 A    
Cu2   N4    2.030785 S    
C65   O28   1.369350 S    
O4    C2    1.306184 A    
O7    C4    1.307357 A    
C5    C13   1.402978 A    
O15   H19   0.991641 S    
N7    O20   1.301657 A    
C60   C64   1.404378 A    
C26   O12   1.348851 S    
O16   H20   0.991651 S    
C5    N1    1.368397 A    
C46   C47   1.416454 A    
C23   C27   1.410363 A    
C43   C54   1.399568 A    
C39   O16   1.376256 S    
O5    C3    1.310344 A    
N6    O17   1.301364 A    
H14   C66   1.082214 S    
O22   H22   0.991535 S    
C7    N5    1.442090 S    
C28   H3    1.083364 S    
C2    C16   1.473660 S    
C7    C8    1.399922 A    
N7    O21   1.300988 A    
C1    C54   1.473712 S    
C43   C44   1.396009 A    
C28   C32   1.397754 A    
C36   H5    1.078459 S    
C6    O11   1.349577 S    
N3    C66   1.352618 A    
N9    O26   1.301232 A    
C40   H10   1.080125 S    
O1    Cu1   1.945472 S    
C9    C10   1.399944 A    
C21   H4    1.077761 S    
C46   C48   1.421411 A    
O3    Cu1   1.948065 S    
C50   O19   1.382377 S    
N8    O24   1.301633 A    
C37   C40   1.390669 A    
C12   C34   1.417775 A    
C25   C39   1.416593 A    
Cu1   N3    2.042871 S    
C17   C29   1.417013 A    
C41   C53   1.398359 A    
C41   H11   1.083555 S    
C18   C21   1.407794 A    
O32   H26   0.991590 S    
C35   C40   1.412747 A    
C12   C13   1.407652 A    
C31   H9    1.082893 S    
O3    C2    1.307265 A    
C15   C37   1.398294 A    
C59   C60   1.421253 A    
C27   O10   1.349444 S    
C8    C16   1.401300 A    
C34   C35   1.414878 A    
C13   C14   1.398110 A    
C30   C31   1.391700 A    
C9    H1    1.083082 S    
C57   N10   1.440871 S    
C38   C39   1.393424 A    
O1    C1    1.307382 A    
C21   C22   1.400278 A    
C18   C20   1.419016 A    
C7    C11   1.416307 A    
C48   C49   1.415072 A    
C58   H17   1.074480 S    
C23   C24   1.417824 A    
C43   H13   1.083040 S    
C14   C36   1.391220 A    
C59   C61   1.446296 A    
Cu2   O8    1.948061 S    
C33   C36   1.414827 A    
N1    C6    1.368337 A    
N2    C32   1.433973 S    
N5    O14   1.301001 A    
C55   C62   1.417779 A    
C49   C50   1.399678 A    
C51   O25   1.384284 S    
C56   H16   1.081299 S    
C26   N2    1.364553 A    
C9    C16   1.400210 A    
O8    C4    1.308498 A    
C14   H2    1.083389 S    
C19   C38   1.422025 A    
C17   C30   1.408029 A    
O31   H25   0.991809 S    
C42   C52   1.398408 A    
C37   H7    1.083301 S    
C47   C54   1.416064 A    
C8    H6    1.083152 S    
C22   O32   1.383842 S    
C61   C65   1.418090 A    
C25   C26   1.412336 A    
C38   O15   1.379601 S    
N8    O23   1.301771 A    
O19   H21   0.991462 S    
C55   N9    1.436106 S    
Cu1   O5    1.932365 S    
C31   C32   1.395792 A    
C10   N7    1.441851 S    
C20   C24   1.420490 A    
O2    Cu2   1.932365 S    
C6    C15   1.402557 A    
C45   C46   1.433770 A    
O6    C3    1.303076 A    
O4    Cu2   1.952494 S    
C19   C35   1.421354 A    
C30   H8    1.083140 S    
C55   C66   1.395414 A    
O2    C1    1.305023 A    
C44   C45   1.406278 A    
C58   C59   1.415071 A    
C24   C25   1.417218 A    
C3    C42   1.474849 S    
C29   O31   1.381720 S    
C19   C20   1.418605 A    
N10   O29   1.301683 A    
C62   C63   1.397052 A    
N6    O18   1.301167 A    
C18   C33   1.420341 A    
C56   N4    1.355530 A    
Cu1   Cu2   2.710563 S    
H15   C63   1.080949 S    
C56   C57   1.396010 A    
Cu2   O6    1.945472 S    
C33   C34   1.415088 A    
C47   C51   1.419285 A    
C53   N6    1.434335 S    
N5    O13   1.301697 A    
N9    O27   1.301298 A    
C10   C11   1.416652 A    
C42   C53   1.416371 A    
C41   C49   1.404431 A    
C57   C58   1.401618 A    
C48   C52   1.396695 A    
C5    O9    1.349548 S    
C60   N4    1.383207 A    
N3    C65   1.376506 A    
