data_mof_unit_13725.cif
_audit_creation_date              2012-12-11T16:18:13-0500
_audit_creation_method            fapswitch 2.2
_symmetry_space_group_name_H-M    P1
_symmetry_Int_Tables_number       1
_space_group_crystal_system       triclinic
_cell_length_a                    14.052817
_cell_length_b                    14.063259
_cell_length_c                    30.104722
_cell_angle_alpha                 97.115534
_cell_angle_beta                  96.991844
_cell_angle_gamma                 61.312708
_cell_volume                      5165.79383212

loop_
_atom_site_label
_atom_site_type_symbol
_atom_type_description
_atom_site_fract_x
_atom_site_fract_y
_atom_site_fract_z
_atom_type_partial_charge
C1    C     C_R   0.386115 0.710378 0.442181 0.544868
C2    C     C_R   0.766427 0.277388 0.374212 -0.126742
C3    C     C_R   0.790436 0.258642 0.329401 -0.115797
C4    C     C_R   0.399012 0.381169 0.426438 0.547651
C5    C     C_R   0.812938 0.330621 0.310344 0.037297
C6    C     C_R   0.819214 0.416780 0.336655 -0.107485
C7    C     C_R   0.795055 0.435880 0.381429 -0.123320
C8    C     C_R   0.838883 0.400608 0.159701 -0.099318
C9    C     C_R   0.867231 0.389794 0.116011 -0.118639
C10   C     C_R   0.873079 0.212577 0.104543 -0.022969
C11   C     C_R   0.845068 0.224384 0.148633 -0.117032
C12   C     C_R   0.413482 0.283808 0.221261 -0.113725
C13   C     C_R   0.832642 0.315961 0.176486 0.018980
C14   C     C_1   0.824027 0.318925 0.223375 -0.017504
C15   C     C_1   0.819768 0.322484 0.263062 -0.019077
C16   C     C_R   0.709693 0.405743 0.442345 0.541924
C17   C     C_R   0.890877 0.293417 0.088623 -0.000672
C18   C     C_R   0.366700 0.767504 0.401638 0.006330
C19   C     C_R   0.451086 0.780113 0.386980 -0.131361
C20   C     C_R   0.444990 0.807586 0.343353 -0.000354
C21   C     C_R   0.352989 0.823973 0.314420 0.024633
C22   C     C_R   0.264975 0.820923 0.330151 -0.127263
C23   C     C_R   0.424710 0.287412 0.267991 -0.101584
C24   C     C_R   0.271533 0.793048 0.373594 -0.127641
C25   C     C_R   0.238963 0.866617 0.157710 -0.130920
C26   C     C_R   0.218885 0.891544 0.113342 -0.133121
C27   C     C_R   0.402490 0.867453 0.112833 -0.036434
C28   C     C_R   0.389692 0.711484 0.568260 0.545547
C29   C     C_R   0.422360 0.842358 0.158121 -0.012065
C30   C     C_R   0.338136 0.846756 0.180641 0.012174
C31   C     C_1   0.347836 0.838305 0.227977 -0.004029
C32   C     C_1   0.351218 0.833132 0.267559 -0.005032
C33   C     C_R   0.297465 0.898326 0.091041 -0.007116
C34   C     C_R   0.333120 0.346193 0.292793 0.024414
C35   C     C_R   0.364668 0.363540 0.592130 0.018092
C36   C     C_R   0.429368 0.267564 0.613945 -0.124972
C37   C     C_R   0.409312 0.260216 0.657238 -0.114968
C38   C     C_R   0.324275 0.348227 0.678825 0.035140
C39   C     C_R   0.254182 0.440474 0.656141 -0.114329
C40   C     C_R   0.402120 0.383155 0.552336 0.540821
C41   C     C_R   0.273864 0.448001 0.612797 -0.127337
C42   C     C_R   0.229010 0.417677 0.836373 -0.115208
C43   C     C_R   0.220141 0.401702 0.880323 -0.022683
C44   C     C_R   0.387333 0.229725 0.875453 -0.134378
C45   C     C_R   0.310676 0.339513 0.198967 0.022733
C46   C     C_R   0.395259 0.246792 0.831887 -0.120381
C47   C     C_R   0.313919 0.338310 0.811835 0.021439
C48   C     C_1   0.314034 0.345782 0.765045 -0.026581
C49   C     C_1   0.316398 0.347850 0.725560 -0.028125
C50   C     C_R   0.296926 0.303483 0.899455 0.003371
C51   C     C_1   0.760257 0.377599 0.612843 -0.012946
C52   C     C_R   0.712708 0.407965 0.568604 0.546102
C53   C     C_R   0.728889 0.397751 0.727955 -0.102734
C54   C     C_R   0.749415 0.381024 0.773709 -0.103756
C55   C     C_R   0.934411 0.243995 0.760437 -0.102944
C56   C     C_1   0.300677 0.324503 0.150846 -0.039439
C57   C     C_R   0.913888 0.260794 0.714650 -0.105641
C58   C     C_R   0.811227 0.338276 0.698384 0.038472
C59   C     C_R   0.852328 0.304310 0.790069 0.039049
C60   C     C_1   0.877124 0.292461 0.837488 -0.052210
C61   C     C_1   0.788287 0.357241 0.651470 -0.056984
C62   C     C_1   0.905629 0.282340 0.876783 -0.006167
C63   C     C_1   0.375623 0.759065 0.613473 -0.014469
C64   C     C_1   0.366539 0.364220 0.380634 -0.008359
C65   C     C_R   0.411638 0.727246 0.729204 -0.103498
C66   C     C_R   0.398284 0.748032 0.775297 -0.104207
C67   C     C_1   0.347466 0.354518 0.340814 -0.051028
C68   C     C_R   0.277759 0.938478 0.764122 -0.105514
C69   C     C_R   0.291033 0.917676 0.718039 -0.107440
C70   C     C_R   0.357663 0.811891 0.700464 0.038252
C71   C     C_R   0.330723 0.853626 0.792793 0.038721
C72   C     C_1   0.313340 0.876370 0.839892 -0.054391
C73   C     C_1   0.366628 0.787646 0.652841 -0.058418
C74   C     C_1   0.293292 0.904014 0.878613 -0.008068
C75   C     C_R   0.949906 0.273221 0.048057 0.536883
C76   C     C_R   0.230088 0.402914 0.270837 -0.109185
C77   C     C_R   0.275216 0.270168 0.065418 0.546803
C78   C     C_1   0.290723 0.304480 0.111107 0.005674
C79   C     C_R   0.260925 0.953596 0.048801 0.539711
C80   C     C_R   0.952477 0.269019 0.922050 0.543585
C81   C     C_R   0.276667 0.266656 0.939638 0.534942
C82   C     C_R   0.261520 0.950994 0.922843 0.544991
C83   C     C_R   0.218186 0.399552 0.223857 0.007942
C84   C     C_1   0.887034 0.114877 0.077632 0.213326
C85   C     C_1   0.527274 0.815691 0.181841 0.212181
C86   C     C_1   0.489193 0.862716 0.089494 0.228311
C87   C     C_1   0.110827 0.457157 0.201906 0.196513
C88   C     C_1   0.536364 0.812007 0.328190 0.197366
C89   C     C_R   0.763716 0.369097 0.400030 0.018607
C90   C     C_1   0.129716 0.485718 0.903929 0.220762
Cr1   Cr    Cr6+3 0.581000 0.584320 0.508140 1.025551
Cr2   Cr    Cr6+3 0.339110 0.576430 0.496080 1.024330
Cr3   Cr    Cr6+3 0.579910 0.339270 0.495810 1.025810
Cr4   Cr    Cr6+3 0.082090 0.079210 0.982490 1.063002
Cr5   Cr    Cr6+3 0.082460 0.324610 0.994920 1.069952
Cr6   Cr    Cr6+3 0.323630 0.087860 0.996130 1.062030
H1    H     H_    0.837631 0.160101 0.161892 0.118312
H2    H     H_    0.222346 0.522822 0.596789 0.134185
H3    H     H_    0.499535 0.201059 0.598816 0.134885
H4    H     H_    0.448572 0.154596 0.889047 0.147417
H5    H     H_    0.463598 0.188350 0.674731 0.114332
H6    H     H_    0.649043 0.457649 0.715662 0.105557
H7    H     H_    0.484890 0.236295 0.202460 0.125230
H8    H     H_    0.685721 0.428821 0.796327 0.111267
H9    H     H_    0.014671 0.185156 0.772843 0.105695
H10   H     H_    0.977999 0.214157 0.692105 0.108642
H11   H     H_    0.462763 0.644928 0.715867 0.105381
H12   H     H_    0.785938 0.191493 0.309092 0.114246
H13   H     H_    0.225270 0.020514 0.777354 0.105380
H14   H     H_    0.248338 0.983531 0.696138 0.108065
H15   H     H_    0.504928 0.244597 0.284816 0.121171
H16   H     H_    0.877869 0.454215 0.104880 0.166599
H17   H     H_    0.827769 0.472484 0.181163 0.153527
H18   H     H_    0.837158 0.472466 0.321973 0.126785
H19   H     H_    0.793987 0.506902 0.400496 0.135249
H20   H     H_    0.742807 0.224399 0.387617 0.134579
H21   H     H_    0.159546 0.449724 0.290243 0.116242
H22   H     H_    0.462039 0.185720 0.813051 0.119806
H23   H     H_    0.138387 0.912969 0.097585 0.163102
H24   H     H_    0.439543 0.681870 0.797108 0.111103
H25   H     H_    0.174622 0.868261 0.174876 0.125624
H26   H     H_    0.193553 0.834192 0.307998 0.119467
H27   H     H_    0.205126 0.784564 0.384087 0.138799
H28   H     H_    0.524734 0.761783 0.408393 0.131867
H29   H     H_    0.167552 0.489848 0.820670 0.119139
H30   H     H_    0.187968 0.508728 0.672759 0.116732
N1    N     N_1   0.898123 0.036515 0.056163 -0.278253
N2    N     N_1   0.611010 0.794347 0.200763 -0.258192
N3    N     N_1   0.558553 0.858828 0.070921 -0.266953
N4    N     N_1   0.024847 0.503387 0.184294 -0.303559
N5    N     N_1   0.609581 0.815501 0.316049 -0.274856
N6    N     N_1   0.057200 0.553181 0.922773 -0.271218
O1    O     O_R   0.688580 0.499770 0.460490 -0.517983
O2    O     O_R   0.346150 0.177650 0.050510 -0.496808
O3    O     O_R   0.314200 0.996600 0.036060 -0.484856
O4    O     O_R   0.480400 0.672610 0.462660 -0.502910
O5    O     O_R   0.168690 0.969990 0.933130 -0.499712
O6    O     O_R   0.991920 0.175870 0.937430 -0.494002
O7    O     O_R   0.974010 0.342590 0.941330 -0.492022
O8    O     O_R   0.182630 0.317940 0.955040 -0.485170
O9    O     O_R   0.347320 0.174720 0.953250 -0.515190
O10   O     O_R   0.315290 0.993890 0.945900 -0.492341
O11   O     O_3   0.162730 0.163890 0.991180 -0.263804
O12   O     O_R   0.348600 0.476260 0.536540 -0.503626
O13   O     O_R   0.315310 0.685650 0.451800 -0.513854
O14   O     O_R   0.346220 0.474990 0.446280 -0.493551
O15   O     O_R   0.492270 0.312460 0.441630 -0.508016
O16   O     O_R   0.669740 0.350480 0.455640 -0.502290
O17   O     O_R   0.691150 0.501150 0.557860 -0.504371
O18   O     O_R   0.482790 0.673890 0.552920 -0.492786
O19   O     O_R   0.317880 0.687030 0.549170 -0.509251
O20   O     O_R   0.494840 0.313840 0.539010 -0.514902
O21   O     O_R   0.672120 0.351750 0.545910 -0.493767
O22   O     O_3   0.500010 0.500010 0.500010 -0.245352
O23   O     O_R   0.167510 0.972920 0.030390 -0.504380
O24   O     O_R   0.990840 0.178580 0.027590 -0.485582
O25   O     O_R   0.972840 0.345510 0.038590 -0.509559
O26   O     O_R   0.181550 0.320660 0.045200 -0.487991

loop_
_geom_bond_atom_site_label_1
_geom_bond_atom_site_label_2
_ccdc_geom_bond_type
C81   O8    A    
C83   C87   S    
C28   O18   A    
C8    C13   A    
C55   C59   A    
C27   C29   A    
Cr5   O26   S    
C11   C13   A    
C1    O13   A    
C35   C36   A    
C51   C61   T    
C82   O10   A    
C39   C41   A    
C38   C49   S    
C77   C78   S    
C27   C33   A    
Cr5   O11   S    
C12   C23   A    
C40   O20   A    
C1    C18   S    
C29   C30   A    
C55   H9    S    
C18   C24   A    
Cr4   O11   S    
C87   N4    T    
C54   H8    S    
C36   C37   A    
C82   O5    A    
C30   C31   S    
C10   C17   A    
C44   C50   A    
C65   C70   A    
C7    C89   A    
C56   C78   T    
C46   H22   S    
Cr3   O16   S    
C60   C62   T    
C18   C19   A    
Cr2   O19   S    
C7    H19   S    
C6    H18   S    
C10   C84   S    
C42   H29   S    
Cr6   O9    S    
C68   C69   A    
C2    H20   S    
C75   O24   A    
Cr1   O4    S    
C66   C71   A    
C45   C56   S    
C8    C9    A    
C47   C48   S    
C1    O4    A    
C35   C40   S    
C29   C85   S    
C77   O26   A    
C68   H13   S    
C90   N6    T    
C75   O25   A    
C58   C61   S    
C81   O9    A    
C57   H10   S    
C59   C60   S    
C39   H30   S    
C66   H24   S    
C13   C14   S    
C45   C83   A    
C74   C82   S    
C35   C41   A    
C16   O1    A    
C76   C83   A    
C44   C46   A    
C22   H26   S    
Cr6   O3    S    
C54   C59   A    
C38   C39   A    
C21   C32   S    
C19   H28   S    
C43   C90   S    
Cr2   O14   S    
C51   C52   S    
C64   C67   T    
Cr4   O23   S    
C26   H23   S    
Cr1   O22   S    
C72   C74   T    
Cr1   O17   S    
C52   O17   A    
Cr6   O2    S    
C63   C73   T    
C25   C26   A    
C53   C54   A    
C4    O15   A    
C79   O23   A    
C24   H27   S    
C2    C89   A    
C37   C38   A    
C69   H14   S    
C26   C33   A    
C31   C32   T    
Cr1   O1    S    
C53   H6    S    
C23   C34   A    
C4    O14   A    
C70   C73   S    
C14   C15   T    
Cr5   O8    S    
C86   N3    T    
C8    H17   S    
C12   H7    S    
C9    C17   A    
C48   C49   T    
C55   C57   A    
Cr4   O6    S    
C27   C86   S    
C22   C24   A    
C42   C43   A    
C79   O3    A    
C62   C80   S    
C25   C30   A    
C46   C47   A    
Cr3   O22   S    
Cr2   O13   S    
Cr5   O25   S    
C33   C79   S    
C12   C45   A    
C3    C5    A    
C34   C67   S    
Cr1   O18   S    
C53   C58   A    
C43   C50   A    
C6    C7    A    
C3    H12   S    
C80   O7    A    
C23   H15   S    
C4    C64   S    
Cr5   O7    S    
C76   H21   S    
C16   O16   A    
C11   H1    S    
C19   C20   A    
C40   O12   A    
C2    C3    A    
C52   O21   A    
C71   C72   S    
Cr6   O11   S    
C37   H5    S    
C44   H4    S    
C57   C58   A    
C5    C6    A    
C84   N1    T    
C68   C71   A    
C80   O6    A    
C20   C88   S    
Cr3   O21   S    
Cr3   O20   S    
Cr3   O15   S    
C36   H3    S    
C42   C47   A    
C69   C70   A    
Cr2   O12   S    
C5    C15   S    
C10   C11   A    
Cr6   O10   S    
C28   C63   S    
C9    H16   S    
C16   C89   S    
C20   C21   A    
C28   O19   A    
Cr4   O24   S    
C65   C66   A    
C77   O2    A    
C17   C75   S    
Cr4   O5    S    
C41   H2    S    
C85   N2    T    
Cr2   O22   S    
C88   N5    T    
C21   C22   A    
C25   H25   S    
C65   H11   S    
C50   C81   S    
C34   C76   A    
