data_mof_unit_7373.cif
_audit_creation_date              2012-12-11T16:17:52-0500
_audit_creation_method            fapswitch 2.2
_symmetry_space_group_name_H-M    P1
_symmetry_Int_Tables_number       1
_space_group_crystal_system       triclinic
_cell_length_a                    14.047273
_cell_length_b                    14.057345
_cell_length_c                    30.070924
_cell_angle_alpha                 97.119325
_cell_angle_beta                  97.134469
_cell_angle_gamma                 61.141984
_cell_volume                      5146.35652874

loop_
_atom_site_label
_atom_site_type_symbol
_atom_type_description
_atom_site_fract_x
_atom_site_fract_y
_atom_site_fract_z
_atom_type_partial_charge
C1    C     C_R   0.385490 0.711163 0.442346 0.541713
C2    C     C_R   0.381737 0.238891 0.223252 -0.117508
C3    C     C_R   0.388962 0.246398 0.270060 -0.145851
C4    C     C_R   0.322071 0.344226 0.293766 0.061038
C5    C     C_R   0.307688 0.329226 0.199825 0.015477
C6    C     C_1   0.298346 0.318535 0.151735 -0.061472
C7    C     C_1   0.340405 0.352701 0.341769 -0.040439
C8    C     C_1   0.289382 0.301765 0.111702 -0.016979
C9    C     C_R   0.774008 0.363246 0.402605 -0.032655
C10   C     C_R   0.780872 0.269725 0.377091 -0.132803
C11   C     C_R   0.822362 0.240996 0.334667 0.120435
C12   C     C_R   0.398371 0.380924 0.426603 0.537857
C13   C     C_R   0.856216 0.307762 0.317600 0.084460
C14   C     C_R   0.860143 0.395013 0.344814 0.125365
C15   C     C_R   0.817945 0.422760 0.387045 -0.133171
C16   C     C_R   0.850922 0.393167 0.163951 0.161206
C17   C     C_R   0.860834 0.389966 0.117407 0.146667
C18   C     C_R   0.920291 0.195006 0.111382 -0.172445
C19   C     C_R   0.907396 0.199217 0.156728 -0.165279
C20   C     C_R   0.876997 0.296458 0.183275 0.034540
C21   C     C_1   0.873323 0.296104 0.230648 0.016637
C22   C     C_1   0.868529 0.298815 0.270365 0.043911
C23   C     C_R   0.710620 0.405149 0.442602 0.546040
C24   C     C_R   0.903007 0.288306 0.091702 0.014909
C25   C     C_R   0.362366 0.773790 0.403011 -0.005207
C26   C     C_R   0.446495 0.783098 0.386358 -0.118756
C27   C     C_R   0.432832 0.820501 0.343779 0.158796
C28   C     C_R   0.334177 0.846971 0.317671 0.063154
C29   C     C_R   0.247085 0.847368 0.335769 -0.168288
C30   C     C_R   0.260741 0.811710 0.378406 -0.151381
C31   C     C_R   0.262035 0.829492 0.153702 -0.083244
C32   C     C_R   0.250206 0.844766 0.107406 0.144188
C33   C     C_R   0.363353 0.935226 0.123068 -0.161140
C34   C     C_R   0.389551 0.711807 0.568172 0.543298
C35   C     C_R   0.375147 0.917976 0.168283 -0.129500
C36   C     C_R   0.321215 0.869098 0.183756 0.006730
C37   C     C_1   0.323924 0.863113 0.230942 -0.029032
C38   C     C_1   0.327043 0.858092 0.270607 -0.003837
C39   C     C_R   0.296526 0.904523 0.092643 0.018790
C40   C     C_R   0.365626 0.364141 0.593489 0.058510
C41   C     C_R   0.438401 0.276782 0.620121 0.098760
C42   C     C_R   0.416899 0.278280 0.664346 -0.118002
C43   C     C_R   0.326350 0.365612 0.682730 -0.014926
C44   C     C_R   0.248531 0.445846 0.655918 -0.114266
C45   C     C_R   0.402153 0.382997 0.552623 0.559971
C46   C     C_R   0.265329 0.444236 0.610827 0.105984
C47   C     C_R   0.227965 0.429179 0.839207 -0.143905
C48   C     C_R   0.215759 0.403704 0.880855 0.081996
C49   C     C_R   0.397130 0.244308 0.878310 0.124266
C50   C     C_R   0.407881 0.272792 0.836655 0.152503
C51   C     C_R   0.319607 0.360885 0.816189 -0.003855
C52   C     C_1   0.316660 0.372627 0.769508 -0.014408
C53   C     C_1   0.317474 0.373277 0.729826 -0.022223
C54   C     C_R   0.298180 0.307153 0.900049 0.024309
C55   C     C_1   0.760701 0.377659 0.612969 -0.034119
C56   C     C_R   0.712895 0.407856 0.568629 0.540594
C57   C     C_R   0.807435 0.425922 0.729765 -0.112481
C58   C     C_R   0.823345 0.412351 0.775806 -0.124599
C59   C     C_R   0.847448 0.228890 0.760406 -0.123796
C60   C     C_R   0.831798 0.242381 0.714260 -0.119609
C61   C     C_R   0.812438 0.340752 0.698862 0.037009
C62   C     C_R   0.843255 0.313935 0.791245 0.027185
C63   C     C_1   0.870649 0.297317 0.838301 -0.086383
C64   C     C_1   0.788943 0.358102 0.651740 -0.074489
C65   C     C_1   0.901916 0.284332 0.877308 -0.040672
C66   C     C_1   0.375603 0.759336 0.613371 -0.011772
C67   C     C_1   0.362996 0.362841 0.381310 -0.022854
C68   C     C_R   0.312932 0.916893 0.719533 -0.086847
C69   C     C_R   0.300498 0.938523 0.765813 0.132305
C70   C     C_R   0.384226 0.742263 0.774143 0.138251
C71   C     C_R   0.394648 0.723384 0.727645 -0.082972
C72   C     C_R   0.358928 0.810009 0.700506 -0.033333
C73   C     C_R   0.335233 0.850865 0.793334 0.040927
C74   C     C_1   0.315948 0.874280 0.840454 -0.075455
C75   C     C_1   0.366975 0.787360 0.652794 -0.062457
C76   C     C_1   0.294443 0.902613 0.878988 -0.039698
C77   C     C_R   0.951446 0.272848 0.048630 0.552201
C78   C     C_R   0.246357 0.435401 0.270335 0.149937
C79   C     C_R   0.275207 0.270018 0.065522 0.543367
C80   C     C_R   0.260828 0.954214 0.049070 0.534039
C81   C     C_R   0.951738 0.269405 0.922194 0.536157
C82   C     C_R   0.276525 0.266474 0.939231 0.566930
C83   C     C_R   0.261761 0.950639 0.922965 0.538218
C84   C     C_R   0.238717 0.426557 0.223171 -0.102975
Cr1   Cr    Cr6+3 0.581000 0.584320 0.508140 1.013193
Cr2   Cr    Cr6+3 0.339110 0.576430 0.496080 1.031527
Cr3   Cr    Cr6+3 0.579910 0.339270 0.495810 1.017936
Cr4   Cr    Cr6+3 0.082090 0.079210 0.982490 1.020583
Cr5   Cr    Cr6+3 0.082460 0.324610 0.994920 1.034206
Cr6   Cr    Cr6+3 0.323630 0.087860 0.996130 1.013559
H1    H     H_    0.925787 0.125187 0.171552 0.124451
H2    H     H_    0.224259 0.788844 0.167005 0.102927
H3    H     H_    0.170817 0.868481 0.315782 0.097971
H4    H     H_    0.194070 0.806925 0.390748 0.132219
H5    H     H_    0.790970 0.502860 0.718272 0.110402
H6    H     H_    0.433980 0.162624 0.205304 0.112378
H7    H     H_    0.821357 0.478123 0.799346 0.098133
H8    H     H_    0.428692 0.640730 0.712383 0.130145
H9    H     H_    0.815665 0.493553 0.406879 0.126955
H10   H     H_    0.749180 0.221709 0.389072 0.130828
O1    O     O_R   0.688580 0.499770 0.460490 -0.519588
O2    O     O_R   0.348600 0.476260 0.536540 -0.469213
O3    O     O_R   0.494840 0.313840 0.539010 -0.484426
O4    O     O_R   0.672120 0.351750 0.545910 -0.503569
O5    O     O_3   0.500010 0.500010 0.500010 -0.246008
O6    O     O_R   0.167510 0.972920 0.030390 -0.494637
O7    O     O_R   0.990840 0.178580 0.027590 -0.510644
O8    O     O_R   0.972840 0.345510 0.038590 -0.472550
O9    O     O_R   0.181550 0.320660 0.045200 -0.494316
O10   O     O_R   0.346150 0.177650 0.050510 -0.512795
O11   O     O_R   0.314200 0.996600 0.036060 -0.508673
O12   O     O_R   0.480400 0.672610 0.462660 -0.502944
O13   O     O_R   0.168690 0.969990 0.933130 -0.504955
O14   O     O_R   0.991920 0.175870 0.937430 -0.491143
O15   O     O_R   0.974010 0.342590 0.941330 -0.518541
O16   O     O_R   0.182630 0.317940 0.955040 -0.465678
O17   O     O_R   0.347320 0.174720 0.953250 -0.488620
O18   O     O_R   0.315290 0.993890 0.945900 -0.505782
O19   O     O_3   0.162730 0.163890 0.991180 -0.249560
O20   O     O_R   0.315310 0.685650 0.451800 -0.516015
O21   O     O_R   0.346220 0.474990 0.446280 -0.494779
O22   O     O_R   0.492270 0.312460 0.441630 -0.514507
O23   O     O_R   0.669740 0.350480 0.455640 -0.500125
O24   O     O_R   0.691150 0.501150 0.557860 -0.504959
O25   O     O_R   0.482790 0.673890 0.552920 -0.495581
O26   O     O_R   0.317880 0.687030 0.549170 -0.498501
N1    N     N_2   0.177347 0.535416 0.293825 -0.534945
H11   H     H_    0.101381 0.577269 0.277356 0.231417
C85   C     C_3   0.226479 0.605031 0.307913 -0.291360
H12   H     H_    0.245312 0.630918 0.278147 0.138889
H13   H     H_    0.302374 0.562497 0.329736 0.176060
H14   H     H_    0.168557 0.678557 0.327416 0.137647
H15   H     H_    0.951398 0.116406 0.092532 0.156988
N2    N     N_2   0.822174 0.149863 0.308020 -0.516416
H16   H     H_    0.766802 0.128014 0.316549 0.246012
C86   C     C_3   0.929142 0.057077 0.303285 -0.316728
H17   H     H_    0.966390 0.024690 0.336570 0.137479
H18   H     H_    0.983324 0.079808 0.288491 0.153298
H19   H     H_    0.921848 0.991954 0.280581 0.134040
N3    N     N_2   0.191331 0.803699 0.075640 -0.499084
H20   H     H_    0.222522 0.777439 0.044519 0.256323
C87   C     C_3   0.148507 0.738265 0.090148 -0.315641
H21   H     H_    0.105132 0.714994 0.061038 0.143065
H22   H     H_    0.088755 0.785828 0.115704 0.146390
H23   H     H_    0.215941 0.662716 0.103823 0.138964
H24   H     H_    0.524832 0.755994 0.405296 0.121301
H25   H     H_    0.422288 0.947403 0.191516 0.116305
H26   H     H_    0.400411 0.980111 0.112664 0.141923
H27   H     H_    0.180065 0.495761 0.204846 0.095714
N4    N     N_2   0.521270 0.822535 0.326025 -0.509971
H28   H     H_    0.596990 0.771438 0.340631 0.243530
C88   C     C_3   0.507053 0.930621 0.322901 -0.310916
H29   H     H_    0.502861 0.972785 0.356977 0.139270
H30   H     H_    0.431640 0.979686 0.301909 0.156804
H31   H     H_    0.577287 0.924456 0.307025 0.134386
N5    N     N_2   0.118234 0.473865 0.902324 -0.488490
H32   H     H_    0.109317 0.550952 0.910827 0.240385
C89   C     C_3   0.020469 0.476654 0.878935 -0.267352
H33   H     H_    0.952123 0.519523 0.901141 0.155410
H34   H     H_    0.032987 0.392637 0.869642 0.173866
H35   H     H_    0.997827 0.521047 0.848018 0.105119
H36   H     H_    0.162506 0.499489 0.823526 0.123839
H37   H     H_    0.175743 0.510783 0.670245 0.111865
N6    N     N_2   0.183223 0.526373 0.583952 -0.486505
H38   H     H_    0.132089 0.596734 0.601937 0.243588
C90   C     C_3   0.123860 0.487778 0.550526 -0.289309
H39   H     H_    0.065924 0.555282 0.529631 0.135990
H40   H     H_    0.180419 0.420397 0.528036 0.150169
H41   H     H_    0.077137 0.458851 0.567152 0.134458
N7    N     N_2   0.535950 0.189569 0.603615 -0.490641
H42   H     H_    0.542300 0.114248 0.606320 0.242307
C91   C     C_3   0.634140 0.194235 0.621740 -0.273660
H43   H     H_    0.650678 0.178470 0.657932 0.112363
H44   H     H_    0.625955 0.275394 0.617837 0.181802
H45   H     H_    0.704327 0.131465 0.603322 0.141410
N8    N     N_2   0.505362 0.207222 0.814319 -0.523088
H46   H     H_    0.492565 0.182088 0.781470 0.251119
C92   C     C_3   0.580226 0.251685 0.819089 -0.312151
H47   H     H_    0.656882 0.192225 0.803649 0.141596
H48   H     H_    0.600363 0.267892 0.855185 0.149772
H49   H     H_    0.544082 0.328464 0.801868 0.152387
N9    N     N_2   0.484567 0.149942 0.897215 -0.479065
H50   H     H_    0.559074 0.148307 0.898702 0.259616
C93   C     C_3   0.489712 0.047820 0.878189 -0.259369
H51   H     H_    0.510036 0.032033 0.842580 0.151955
H52   H     H_    0.410747 0.048944 0.880003 0.164881
H53   H     H_    0.553714 0.980219 0.897538 0.134022
H54   H     H_    0.474731 0.213952 0.685224 0.112740
H55   H     H_    0.864440 0.151868 0.771977 0.103632
H56   H     H_    0.834670 0.176398 0.690666 0.098978
H57   H     H_    0.286121 0.983721 0.698402 0.128871
N10   N     N_2   0.254172 0.048872 0.784082 -0.525210
H58   H     H_    0.279892 0.060256 0.816955 0.248634
C94   C     C_3   0.137381 0.111380 0.775328 -0.293449
H59   H     H_    0.109600 0.197067 0.788914 0.150918
H60   H     H_    0.095592 0.076963 0.791950 0.150358
H61   H     H_    0.114470 0.111326 0.738617 0.157101
N11   N     N_2   0.418947 0.651781 0.800526 -0.519577
H62   H     H_    0.386087 0.669208 0.831153 0.257177
C95   C     C_3   0.534961 0.577795 0.803032 -0.308235
H63   H     H_    0.553238 0.509919 0.823692 0.138865
H64   H     H_    0.580411 0.621180 0.818893 0.140387
H65   H     H_    0.563128 0.542156 0.769073 0.158773
H66   H     H_    0.448157 0.176389 0.287812 0.102646
N12   N     N_2   0.833935 0.486824 0.096829 -0.496097
H67   H     H_    0.846503 0.545124 0.116995 0.247233
C96   C     C_3   0.730156 0.531312 0.070710 -0.300873
H68   H     H_    0.662727 0.558280 0.092935 0.133943
H69   H     H_    0.727447 0.469567 0.044406 0.154840
H70   H     H_    0.718609 0.602488 0.053856 0.140728
N13   N     N_2   0.815711 0.492419 0.191625 -0.508431
H71   H     H_    0.753851 0.559957 0.176978 0.250808
C97   C     C_3   0.903341 0.511105 0.213873 -0.300903
H72   H     H_    0.946761 0.524756 0.188931 0.119821
H73   H     H_    0.962595 0.440319 0.232847 0.174515
H74   H     H_    0.869460 0.584105 0.237918 0.150163
N14   N     N_2   0.899911 0.459363 0.328719 -0.520848
H75   H     H_    0.867524 0.538243 0.343014 0.244448
C98   C     C_3   0.017408 0.407540 0.328927 -0.312601
H76   H     H_    0.041234 0.461155 0.314518 0.160395
H77   H     H_    0.049037 0.328807 0.308205 0.152142
H78   H     H_    0.054937 0.393314 0.363885 0.146229

loop_
_geom_bond_atom_site_label_1
_geom_bond_atom_site_label_2
_ccdc_geom_bond_type
C58   C62   A    
C94   H60   S    
C55   C56   S    
Cr5   O15   S    
C40   C41   A    
C80   O6    A    
Cr2   O26   S    
C73   C74   S    
C83   O13   A    
Cr1   O25   S    
C35   C36   A    
Cr1   O12   S    
C34   C66   S    
C63   C65   T    
C92   H47   S    
N6    C90   S    
C31   C32   A    
C97   H72   S    
C52   C53   T    
C40   C46   A    
Cr3   O23   S    
C26   C27   A    
C29   C30   A    
C74   C76   T    
C18   H15   S    
C18   C24   A    
C56   O24   A    
C83   O18   A    
C28   C29   A    
N3    C87   S    
C32   N3    S    
C86   H19   S    
C1    O12   A    
C5    C6    S    
C92   H48   S    
C94   H61   S    
N7    H42   S    
C35   H25   S    
C49   C54   A    
Cr5   O9    S    
C93   H51   S    
C69   N10   S    
Cr1   O24   S    
C50   N8    S    
C18   C19   A    
C41   C42   A    
C32   C39   A    
Cr4   O13   S    
C26   H24   S    
N9    H50   S    
C45   O3    A    
C89   H35   S    
C68   C69   A    
C47   H36   S    
N5    C89   S    
C89   H34   S    
C12   O21   A    
Cr5   O19   S    
C91   H44   S    
C95   H63   S    
C81   O14   A    
C96   H70   S    
C14   N14   S    
C69   C73   A    
N11   H62   S    
C44   H37   S    
Cr3   O4    S    
C9    C10   A    
C31   C36   A    
C91   H45   S    
C68   C72   A    
C85   H14   S    
C84   H27   S    
N8    C92   S    
C94   H59   S    
C48   N5    S    
Cr5   O16   S    
C59   C60   A    
C70   N11   S    
C46   N6    S    
C21   C22   T    
C90   H40   S    
C3    H66   S    
C87   H23   S    
C58   H7    S    
Cr6   O11   S    
Cr2   O21   S    
C4    C7    S    
Cr1   O5    S    
C78   N1    S    
C76   C83   S    
C71   H8    S    
C43   C53   S    
N11   C95   S    
C97   H73   S    
C40   C45   S    
C12   C67   S    
C17   C24   A    
C87   H21   S    
C79   O9    A    
C96   H68   S    
Cr6   O17   S    
C77   O7    A    
N3    H20   S    
C56   O4    A    
C86   H18   S    
C10   C11   A    
C11   N2    S    
C98   H76   S    
C5    C84   A    
C16   C17   A    
C47   C51   A    
C44   C46   A    
C68   H57   S    
N14   H75   S    
N12   H67   S    
C51   C52   S    
C60   C61   A    
C1    O20   A    
N10   C94   S    
C61   C64   S    
C48   C54   A    
C43   C44   A    
N1    C85   S    
N13   H71   S    
C4    C78   A    
C37   C38   T    
C33   H26   S    
C98   H77   S    
Cr4   O6    S    
C65   C81   S    
C47   C48   A    
Cr3   O5    S    
C88   H31   S    
C28   C38   S    
C16   C20   A    
C55   C64   T    
C81   O15   A    
C70   C73   A    
C50   C51   A    
C12   O22   A    
C33   C39   A    
C88   H29   S    
Cr4   O19   S    
C10   H10   S    
C70   C71   A    
C77   O8    A    
Cr3   O3    S    
C6    C8    T    
C95   H64   S    
N8    H46   S    
N13   C97   S    
C88   H30   S    
C49   C50   A    
C27   N4    S    
C90   H39   S    
N4    C88   S    
C59   H55   S    
C2    C5    A    
C42   C43   A    
Cr6   O10   S    
N1    H11   S    
Cr2   O2    S    
Cr6   O18   S    
C54   C82   S    
Cr1   O1    S    
C91   H43   S    
C85   H12   S    
C97   H74   S    
C42   H54   S    
C25   C30   A    
Cr4   O7    S    
N6    H38   S    
C59   C62   A    
C79   O10   A    
N4    H28   S    
C16   N13   S    
C9    C23   S    
C15   H9    S    
C86   H17   S    
C80   O11   A    
Cr3   O22   S    
C23   O23   A    
C1    C25   S    
C57   C61   A    
N2    H16   S    
N14   C98   S    
C41   N7    S    
C93   H52   S    
C93   H53   S    
C95   H65   S    
C34   O26   A    
N10   H58   S    
C19   C20   A    
C17   N12   S    
C2    C3    A    
C25   C26   A    
C82   O16   A    
C71   C72   A    
C30   H4    S    
C8    C79   S    
C39   C80   S    
C98   H78   S    
C29   H3    S    
C11   C13   A    
C72   C75   S    
C57   C58   A    
C89   H33   S    
N7    C91   S    
C36   C37   S    
C34   O25   A    
C66   C75   T    
Cr5   O8    S    
C2    H6    S    
C33   C35   A    
N2    C86   S    
C13   C22   S    
C87   H22   S    
Cr4   O14   S    
C9    C15   A    
Cr6   O19   S    
N9    C93   S    
C92   H49   S    
C19   H1    S    
C45   O2    A    
C23   O1    A    
C7    C67   T    
C49   N9    S    
Cr2   O5    S    
C78   C84   A    
C24   C77   S    
N5    H32   S    
C20   C21   S    
C90   H41   S    
C60   H56   S    
C31   H2    S    
C57   H5    S    
C27   C28   A    
C96   H69   S    
C14   C15   A    
Cr2   O20   S    
C82   O17   A    
C62   C63   S    
C13   C14   A    
N12   C96   S    
C3    C4    A    
C85   H13   S    
