data_mof_unit_35805.cif
_audit_creation_date              2012-10-26T19:54:32-0400
_audit_creation_method            fapswitch 2.2
_symmetry_space_group_name_H-M    P1
_symmetry_Int_Tables_number       1
_space_group_crystal_system       triclinic
_cell_length_a                    17.72085
_cell_length_b                    16.511494
_cell_length_c                    10.874181
_cell_angle_alpha                 89.798937
_cell_angle_beta                  91.387511
_cell_angle_gamma                 89.989258
_cell_volume                      3180.80781967

loop_
_atom_site_label
_atom_site_type_symbol
_atom_type_description
_atom_site_fract_x
_atom_site_fract_y
_atom_site_fract_z
_atom_type_partial_charge
C1    C     C_R   0.355607 0.500090 0.502154 0.541090
C2    C     C_R   0.114881 0.501277 0.503099 0.022230
C3    C     C_1   0.966153 0.502569 0.500351 0.088413
C4    C     C_1   0.033806 0.502596 0.501179 0.088203
C5    C     C_R   0.555846 0.827861 0.565680 -0.053602
C6    C     C_R   0.443443 0.828375 0.437130 -0.069279
C7    C     C_R   0.554722 0.742501 0.564491 0.112330
C8    C     C_R   0.444982 0.743020 0.436555 0.094446
C9    C     C_R   0.499648 0.871922 0.501535 0.068481
C10   C     C_1   0.499663 0.960890 0.501636 0.006738
C11   C     C_1   0.499701 0.035024 0.501423 -0.004691
C12   C     C_R   0.644385 0.500097 0.498159 0.542249
C13   C     C_R   0.507876 0.500056 0.262252 0.536905
C14   C     C_R   0.491575 0.499775 0.737500 0.537693
C15   C     C_R   0.562507 0.168314 0.546263 -0.016792
C16   C     C_R   0.437194 0.168519 0.455081 -0.014789
C17   C     C_R   0.558471 0.254728 0.556778 0.147743
C18   C     C_R   0.441421 0.254931 0.443674 0.148000
C19   C     C_R   0.499789 0.124807 0.500959 0.033186
C20   C     C_R   0.534451 0.648829 0.111021 -0.123815
C21   C     C_R   0.459342 0.646999 0.885205 -0.112540
C22   C     C_R   0.517748 0.722653 0.052235 0.207383
C23   C     C_R   0.727019 0.500477 0.493057 -0.022704
C24   C     C_R   0.475415 0.721714 0.940514 0.254858
C25   C     C_R   0.484636 0.573237 0.937984 -0.044787
C26   C     C_R   0.511049 0.573905 0.060354 -0.041871
C27   C     C_R   0.515131 0.499858 0.126880 -0.001837
C28   C     C_R   0.483149 0.499131 0.872601 -0.002862
C29   C     C_R   0.511607 0.425222 0.062381 -0.005827
C30   C     C_R   0.488328 0.424797 0.938095 -0.005415
C31   C     C_R   0.845482 0.549471 0.581360 0.198744
C32   C     C_R   0.154385 0.551667 0.422271 0.198745
C33   C     C_R   0.766857 0.548005 0.578568 -0.130889
C34   C     C_R   0.272958 0.500428 0.507702 -0.023075
C35   C     C_R   0.233005 0.550116 0.424685 -0.130186
C36   C     C_3   0.537048 0.345763 0.121333 -0.366591
C37   C     C_3   0.464697 0.344731 0.880087 -0.368488
C38   C     C_3   0.632403 0.120795 0.586476 -0.394577
C39   C     C_3   0.367225 0.121200 0.415259 -0.394774
C40   C     C_3   0.619043 0.294422 0.636387 -0.331623
C41   C     C_3   0.380860 0.294837 0.363806 -0.331358
C42   C     C_3   0.723652 0.413522 0.300373 -0.373075
C43   C     C_3   0.276467 0.408752 0.696332 -0.373647
C44   C     C_3   0.891000 0.398144 0.327290 -0.385330
C45   C     C_R   0.766135 0.454438 0.405265 0.008790
C46   C     C_3   0.109142 0.393787 0.668808 -0.385993
C47   C     C_R   0.233919 0.452202 0.593416 0.008252
C48   C     C_R   0.846067 0.451923 0.411726 -0.001688
C49   C     C_R   0.153982 0.449796 0.587016 -0.002049
C50   C     C_R   0.885079 0.501216 0.498230 0.022433
Cu1   Cu    Cu3+1 0.500000 0.580420 0.500000 0.977134
Cu2   Cu    Cu3+1 0.500000 0.419580 0.500000 0.891641
H1    H     H_    0.569085 0.650147 0.194052 0.191945
H2    H     H_    0.581142 0.355015 0.193421 0.148944
H3    H     H_    0.488179 0.313400 0.160130 0.144890
H4    H     H_    0.438149 0.304339 0.948436 0.124044
H5    H     H_    0.420581 0.352916 0.807595 0.148420
H6    H     H_    0.514315 0.313486 0.842042 0.143343
H7    H     H_    0.683425 0.158741 0.599839 0.131773
H8    H     H_    0.621303 0.087651 0.673202 0.153347
H9    H     H_    0.646976 0.076399 0.514304 0.160474
H10   H     H_    0.316304 0.159280 0.401160 0.129796
H11   H     H_    0.378359 0.087903 0.329030 0.159964
H12   H     H_    0.424770 0.646557 0.802031 0.190103
H13   H     H_    0.352455 0.076946 0.487979 0.154018
H14   H     H_    0.631456 0.256791 0.719287 0.086199
H15   H     H_    0.671554 0.301789 0.583761 0.129031
H16   H     H_    0.602949 0.352392 0.675750 0.192289
H17   H     H_    0.368592 0.257431 0.281021 0.086836
H18   H     H_    0.328298 0.301970 0.416302 0.127835
H19   H     H_    0.396813 0.352984 0.324308 0.192361
H20   H     H_    0.442025 0.853719 0.172395 0.333128
H21   H     H_    0.487893 0.924834 0.806020 0.360417
H22   H     H_    0.922944 0.509946 0.808934 0.327086
H23   H     H_    0.736055 0.583704 0.644047 0.160279
H24   H     H_    0.076777 0.517905 0.193315 0.328020
H25   H     H_    0.665631 0.437219 0.288330 0.139998
H26   H     H_    0.751144 0.426612 0.211818 0.139181
H27   H     H_    0.721543 0.347130 0.316394 0.130637
H28   H     H_    0.334351 0.432466 0.709820 0.140485
H29   H     H_    0.248825 0.419315 0.785404 0.137196
H30   H     H_    0.278913 0.342844 0.676977 0.130565
H31   H     H_    0.855955 0.355222 0.272766 0.133694
H32   H     H_    0.923365 0.436338 0.262938 0.176392
H33   H     H_    0.931139 0.360543 0.382915 0.121492
H34   H     H_    0.263707 0.587445 0.360797 0.159302
H35   H     H_    0.144244 0.349378 0.720856 0.133437
H36   H     H_    0.076930 0.430223 0.735259 0.175369
H37   H     H_    0.068872 0.357740 0.611458 0.121777
H38   H     H_    0.600035 0.859143 0.617043 0.134080
H39   H     H_    0.398782 0.860098 0.387207 0.107844
H40   H     H_    0.597833 0.709332 0.615602 0.135678
H41   H     H_    0.401810 0.710287 0.385303 0.127899
H42   H     H_    0.564291 0.305908 0.053422 0.124741
N1    N     N_R   0.500000 0.701220 0.500000 -0.222297
N2    N     N_R   0.500000 0.298780 0.500000 -0.217925
O1    O     O_R   0.391260 0.567930 0.500000 -0.494801
O2    O     O_2   0.613694 0.846974 0.042522 -0.165242
O3    O     O_3   0.483773 0.882577 0.132191 -0.437825
O4    O     O_2   0.408363 0.790884 0.741229 -0.309345
O5    O     O_2   0.380639 0.847786 0.942091 -0.236236
O6    O     O_3   0.511525 0.878146 0.849535 -0.460862
O7    O     O_2   0.937343 0.674856 0.624346 -0.162494
O8    O     O_2   0.838832 0.651934 0.774624 -0.248006
O9    O     O_3   0.954030 0.554388 0.775616 -0.491904
O10   O     O_2   0.062392 0.677968 0.385755 -0.163147
O11   O     O_2   0.160836 0.659190 0.234277 -0.251947
O12   O     O_R   0.608740 0.567930 0.500000 -0.495470
O13   O     O_3   0.045725 0.561562 0.228541 -0.489072
O14   O     O_R   0.391280 0.432120 0.500000 -0.514835
O15   O     O_R   0.608720 0.432120 0.500000 -0.514275
O16   O     O_R   0.500000 0.567920 0.319650 -0.506983
O17   O     O_R   0.500000 0.567920 0.680350 -0.503550
O18   O     O_R   0.500030 0.432100 0.319660 -0.522229
O19   O     O_R   0.499970 0.432100 0.680340 -0.522999
O20   O     O_2   0.585257 0.796334 0.247204 -0.305138
S1    S     S_3+6 0.552492 0.813093 0.120863 0.073310
S2    S     S_3+6 0.441333 0.810840 0.866152 0.047427
S3    S     S_3+6 0.893398 0.611228 0.691000 0.060323
S4    S     S_3+6 0.106354 0.616215 0.315877 0.059683

loop_
_geom_bond_atom_site_label_1
_geom_bond_atom_site_label_2
_ccdc_geom_bond_type
Cu1   O1    S    
C22   S1    S    
Cu1   O16   S    
C23   C45   A    
C27   C29   A    
C18   N2    A    
C37   H6    S    
C44   H31   S    
C6    C9    A    
C47   C49   A    
C46   H37   S    
C25   C28   A    
C15   C19   A    
C29   C36   S    
C11   C19   S    
C26   C27   A    
Cu1   O17   S    
O5    S2    D    
C13   O16   A    
C35   H34   S    
Cu2   O19   S    
C6    H39   S    
O20   S1    D    
C2    C32   A    
C34   C35   A    
C21   H12   S    
C37   H4    S    
C33   H23   S    
Cu1   O12   S    
C23   C33   A    
C40   H15   S    
C31   C33   A    
C9    C10   S    
C13   O18   A    
O6    S2    S    
C41   H19   S    
C38   H9    S    
C48   C50   A    
C12   O12   A    
C42   H27   S    
C40   H14   S    
C39   H13   S    
C8    N1    A    
C32   S4    S    
C3    C50   S    
C1    C34   S    
C46   H36   S    
Cu1   Cu2   S    
C32   C35   A    
C18   C41   S    
C1    O1    A    
C12   C23   S    
C5    C7    A    
H24   O13   S    
C6    C8    A    
Cu2   O15   S    
C43   H28   S    
C3    C4    T    
C30   C37   S    
C42   C45   S    
C2    C4    S    
C15   C38   S    
C5    C9    A    
C29   C30   A    
C2    C49   A    
C36   H42   S    
C1    O14   A    
O3    S1    S    
C46   C49   S    
Cu2   O14   S    
C17   N2    A    
C31   S3    S    
C38   H8    S    
H21   O6    S    
C20   C22   A    
C42   H26   S    
C43   H29   S    
C22   C24   A    
O4    S2    D    
C31   C50   A    
C44   H33   S    
O11   S4    D    
C7    N1    A    
O2    S1    D    
C41   H17   S    
C46   H35   S    
C45   C48   A    
C15   C17   A    
C39   H10   S    
C21   C25   A    
O10   S4    D    
O7    S3    D    
C8    H41   S    
C5    H38   S    
C20   H1    S    
C44   H32   S    
Cu2   O18   S    
C14   O17   A    
C39   H11   S    
C24   S2    S    
O8    S3    D    
C28   C30   A    
C25   C26   A    
C36   H3    S    
H22   O9    S    
C20   C26   A    
C16   C19   A    
C7    H40   S    
Cu2   N2    S    
O9    S3    S    
C36   H2    S    
C10   C11   T    
C16   C39   S    
C38   H7    S    
C44   C48   S    
C42   H25   S    
C16   C18   A    
C40   H16   S    
C21   C24   A    
C43   H30   S    
C13   C27   S    
C34   C47   A    
C14   C28   S    
C43   C47   S    
C17   C40   S    
C12   O15   A    
C37   H5    S    
C14   O19   A    
O13   S4    S    
Cu1   N1    S    
C41   H18   S    
H20   O3    S    
