data_mof_unit_29259.cif
_audit_creation_date              2012-12-10T18:03:31-0500
_audit_creation_method            fapswitch 2.2
_symmetry_space_group_name_H-M    P1
_symmetry_Int_Tables_number       1
_space_group_crystal_system       triclinic
_cell_length_a                    10.840806
_cell_length_b                    9.690011
_cell_length_c                    19.418468
_cell_angle_alpha                 90.005163
_cell_angle_beta                  100.882555
_cell_angle_gamma                 89.996943
_cell_volume                      2003.17769141

loop_
_atom_site_label
_atom_site_type_symbol
_atom_type_description
_atom_site_fract_x
_atom_site_fract_y
_atom_site_fract_z
_atom_type_partial_charge
C1    C     C_R   0.871100 0.498825 0.498354 -0.075064
C2    C     C_R   0.128899 0.498832 0.501645 -0.074950
C3    C     C_R   0.604796 0.550794 0.974125 0.251935
C4    C     C_R   0.399397 0.443627 0.027315 0.257462
C5    C     C_R   0.603974 0.558173 0.046838 0.251078
C6    C     C_R   0.393482 0.451400 0.953971 0.244781
C7    C     C_R   0.502924 0.500823 0.072735 -0.092623
C8    C     C_R   0.497861 0.501248 0.928052 -0.082578
C9    C     C_R   0.262859 0.499787 0.501318 0.846815
C10   C     C_R   0.737141 0.499782 0.498682 0.846853
C11   C     C_R   0.502508 0.500099 0.368093 0.848855
C12   C     C_R   0.497509 0.500116 0.631911 0.850024
C13   C     C_R   0.064096 0.373323 0.500459 -0.124205
C14   C     C_R   0.935688 0.623641 0.497985 -0.124532
C15   C     C_R   0.935928 0.373320 0.499576 -0.124789
C16   C     C_R   0.064285 0.623645 0.501976 -0.125363
C17   C     C_R   0.471879 0.378511 0.741515 -0.158013
C18   C     C_R   0.484398 0.623964 0.254053 -0.157162
C19   C     C_R   0.528312 0.378264 0.258551 -0.151045
C20   C     C_R   0.515846 0.624018 0.745925 -0.162301
C21   C     C_R   0.472909 0.378612 0.813358 -0.070786
C22   C     C_R   0.484599 0.624069 0.182339 -0.088471
C23   C     C_R   0.527474 0.378309 0.186723 -0.077628
C24   C     C_R   0.515858 0.624261 0.817649 -0.081533
C25   C     C_R   0.495375 0.501382 0.851870 0.232561
C26   C     C_R   0.505205 0.501089 0.148486 0.257042
C27   C     C_R   0.413643 0.075624 0.450480 0.306611
C28   C     C_R   0.587543 0.924593 0.548763 0.308512
C29   C     C_R   0.586361 0.075630 0.549517 0.307831
C30   C     C_R   0.412459 0.924587 0.451236 0.309073
C31   C     C_R   0.495103 0.500796 0.707351 -0.082119
C32   C     C_R   0.505036 0.500699 0.292671 -0.082286
Cu1   Cu    Cu3+1 0.500000 0.640660 0.500000 1.095310
Cu2   Cu    Cu3+1 0.500000 0.359340 0.500000 1.095220
H1    H     H_    0.112119 0.275291 0.500455 0.190902
H2    H     H_    0.887218 0.721377 0.494593 0.209400
H3    H     H_    0.887925 0.275288 0.499609 0.190944
H4    H     H_    0.112734 0.721386 0.505337 0.209264
H5    H     H_    0.452241 0.282916 0.712754 0.193775
H6    H     H_    0.467253 0.720096 0.279039 0.206247
H7    H     H_    0.548068 0.282742 0.287355 0.192153
H8    H     H_    0.532709 0.720159 0.720871 0.206733
H9    H     H_    0.456807 0.282833 0.839040 0.166137
H10   H     H_    0.467630 0.719543 0.153054 0.153329
H11   H     H_    0.544675 0.283007 0.160926 0.149081
H12   H     H_    0.531859 0.720267 0.846547 0.168140
N1    N     N_R   0.500000 0.852070 0.500000 -0.318746
N2    N     N_R   0.500000 0.147930 0.500000 -0.320849
O1    O     O_R   0.319640 0.618740 0.500000 -0.532930
O2    O     O_R   0.680360 0.381260 0.500000 -0.539202
O3    O     O_R   0.680360 0.618740 0.500000 -0.532695
O4    O     O_R   0.319640 0.381260 0.500000 -0.539103
O5    O     O_R   0.500020 0.618830 0.400190 -0.534641
O6    O     O_R   0.499980 0.381170 0.599810 -0.527731
O7    O     O_R   0.499980 0.618830 0.599810 -0.535241
O8    O     O_R   0.500020 0.381170 0.400190 -0.528024
S1    S     S_3+6 0.308083 0.165004 0.378271 0.093012
O9    O     O_2   0.360676 0.137767 0.313283 -0.283402
O10   O     O_2   0.177819 0.106944 0.368194 -0.204824
O11   O     O_3   0.279169 0.334693 0.377334 -0.509722
H13   H     H_    0.232366 0.355277 0.329493 0.361117
S2    S     S_3+6 0.713102 0.836078 0.610197 0.080881
O12   O     O_2   0.833694 0.869833 0.586480 -0.290592
O13   O     O_2   0.718645 0.891756 0.682804 -0.218942
O14   O     O_3   0.719549 0.665461 0.623687 -0.515046
H14   H     H_    0.801856 0.648004 0.654556 0.359833
S3    S     S_3+6 0.691945 0.165021 0.621716 0.091564
O15   O     O_2   0.639390 0.137795 0.686713 -0.287837
O16   O     O_2   0.822209 0.106954 0.631766 -0.204504
O17   O     O_3   0.720844 0.334711 0.622661 -0.509722
H15   H     H_    0.767708 0.355287 0.670490 0.360052
S4    S     S_3+6 0.286908 0.836070 0.389798 0.080402
O18   O     O_2   0.166308 0.869872 0.413500 -0.289949
O19   O     O_2   0.281400 0.891712 0.317192 -0.221028
O20   O     O_3   0.280443 0.665445 0.376317 -0.515554
H16   H     H_    0.198148 0.647997 0.345433 0.359913
O21   O     O_3   0.708835 0.587575 0.946664 -0.709724
H17   H     H_    0.785203 0.575056 0.983138 0.352434
O22   O     O_3   0.305705 0.382739 0.056197 -0.700797
H18   H     H_    0.264232 0.310749 0.023661 0.346567
O23   O     O_3   0.700241 0.618949 0.093846 -0.708304
H19   H     H_    0.739809 0.690985 0.069073 0.346663
O24   O     O_3   0.286876 0.414773 0.906445 -0.716762
H20   H     H_    0.212531 0.426993 0.928635 0.352813

loop_
_geom_bond_atom_site_label_1
_geom_bond_atom_site_label_2
_ccdc_geom_bond_type
C27   N2    A    
Cu1   O7    S    
C28   N1    A    
Cu2   O8    S    
C23   H11   S    
O23   H19   S    
O21   H17   S    
C7    C26   S    
C28   C29   A    
C13   H1    S    
S4    O20   S    
C3    O21   S    
C14   H2    S    
S1    O10   D    
C10   O3    A    
Cu1   O1    S    
C17   H5    S    
C23   C26   A    
C2    C13   A    
C18   H6    S    
C15   H3    S    
S2    O13   D    
C29   S3    S    
C22   H10   S    
C20   C24   A    
O17   H15   S    
C1    C15   A    
C2    C16   A    
C11   O5    A    
C21   H9    S    
C27   C30   A    
C8    C25   S    
C9    O4    A    
C4    C7    A    
C19   C32   A    
Cu1   O5    S    
Cu2   O2    S    
C29   N2    A    
S3    O15   D    
C30   N1    A    
C9    O1    A    
C24   C25   A    
C4    O22   S    
C4    C6    A    
C3    C8    A    
C27   S1    S    
C5    C7    A    
S1    O11   S    
C6    C8    A    
C17   C21   A    
O11   H13   S    
S3    O16   D    
C19   C23   A    
O20   H16   S    
S2    O12   D    
C5    O23   S    
C20   H8    S    
O24   H20   S    
Cu1   Cu2   S    
S4    O19   D    
C11   C32   S    
Cu2   O6    S    
C13   C15   A    
C12   C31   S    
C17   C31   A    
C14   C16   A    
Cu2   N2    S    
C10   O2    A    
C21   C25   A    
C6    O24   S    
S2    O14   S    
C18   C22   A    
C1    C10   S    
S4    O18   D    
C3    C5    A    
C30   S4    S    
Cu1   O3    S    
Cu2   O4    S    
S3    O17   S    
C24   H12   S    
S1    O9    D    
Cu1   N1    S    
C12   O7    A    
O22   H18   S    
C18   C32   A    
O14   H14   S    
C22   C26   A    
C1    C14   A    
C2    C9    S    
C12   O6    A    
C11   O8    A    
C19   H7    S    
C16   H4    S    
C20   C31   A    
C28   S2    S    
