data_mof_unit_19970.cif
_audit_creation_date              2012-12-11T15:35:30-0500
_audit_creation_method            fapswitch 2.2
_symmetry_space_group_name_H-M    P1
_symmetry_Int_Tables_number       1
_space_group_crystal_system       triclinic
_cell_length_a                    17.269373
_cell_length_b                    24.18168
_cell_length_c                    14.826098
_cell_angle_alpha                 89.999976
_cell_angle_beta                  124.92992
_cell_angle_gamma                 90.000149
_cell_volume                      5076.04998447

loop_
_atom_site_label
_atom_site_type_symbol
_atom_type_description
_atom_site_fract_x
_atom_site_fract_y
_atom_site_fract_z
_atom_type_partial_charge
C1    C     C_R   0.350144 0.151790 0.907061 -0.143542
C2    C     C_R   0.599410 0.123523 0.908384 -0.134748
C3    C     C_R   0.253871 0.546030 0.305361 -0.123915
C4    C     C_R   0.099410 0.376477 0.908384 -0.134749
C5    C     C_R   0.099410 0.623523 0.908384 -0.134748
C6    C     C_R   0.432729 1.000000 0.630773 0.047900
C7    C     C_R   0.932729 0.500000 0.630773 0.047900
C8    C     C_R   0.799881 1.000000 0.368780 -0.012044
C9    C     C_R   0.299881 0.499999 0.368781 -0.012043
C10   C     C_R   0.689446 0.135832 0.999848 0.096468
C11   C     C_R   0.689446 0.864168 0.999848 0.096470
C12   C     C_R   0.189446 0.635832 0.999848 0.096469
C13   C     C_R   0.350144 0.848210 0.907061 -0.143541
C14   C     C_R   0.189446 0.364168 0.999848 0.096472
C15   C     C_3   0.021639 0.948125 0.640462 -0.392473
C16   C     C_3   0.021637 0.051871 0.640469 -0.392471
C17   C     C_3   0.521644 0.448113 0.640445 -0.392472
C18   C     C_3   0.521631 0.551860 0.640489 -0.392468
C19   C     C_3   0.917576 0.948032 0.541177 -0.400030
C20   C     C_3   0.917575 0.051965 0.541183 -0.400030
C21   C     C_3   0.417591 0.448012 0.541141 -0.400041
C22   C     C_3   0.417559 0.551945 0.541223 -0.400013
C23   C     C_3   0.064912 0.000002 0.526626 -0.394266
C24   C     C_R   0.850143 0.651790 0.907061 -0.143540
C25   C     C_3   0.564912 0.500015 0.526626 -0.394264
C26   C     C_3   0.072554 1.000000 0.636065 0.376480
C27   C     C_3   0.572554 0.499996 0.636066 0.376480
C28   C     C_3   0.896662 1.000000 0.468833 0.369981
C29   C     C_3   0.396661 0.499998 0.468834 0.369982
C30   C     C_R   0.442868 0.846750 0.090274 -0.148385
C31   C     C_R   0.442868 0.153250 0.090274 -0.148385
C32   C     C_R   0.942869 0.346750 0.090275 -0.148384
C33   C     C_R   0.942868 0.653250 0.090274 -0.148385
C34   C     C_3   0.961997 0.000002 0.428849 -0.363916
C35   C     C_R   0.850144 0.348209 0.907062 -0.143542
C36   C     C_3   0.461996 0.500036 0.428849 -0.363915
C37   C     C_R   0.286920 0.732367 0.896666 -0.164187
C38   C     C_R   0.286915 0.267630 0.896666 -0.164190
C39   C     C_R   0.786920 0.232367 0.896666 -0.164187
C40   C     C_R   0.786918 0.767632 0.896665 -0.164188
C41   C     C_R   0.740657 0.185956 0.897417 -0.246289
C42   C     C_R   0.740654 0.814042 0.897417 -0.246289
C43   C     C_R   0.240656 0.685956 0.897417 -0.246289
C44   C     C_R   0.240652 0.314041 0.897416 -0.246296
C45   C     C_R   0.763161 0.164733 0.997843 -0.050869
C46   C     C_R   0.689886 0.123573 0.091881 -0.099295
C47   C     C_R   0.763159 0.835267 0.997842 -0.050869
C48   C     C_R   0.263160 0.664733 0.997843 -0.050868
C49   C     C_R   0.263158 0.335266 0.997842 -0.050867
C50   C     C_R   0.847690 0.181559 0.095852 0.742536
C51   C     C_R   0.847689 0.818441 0.095851 0.742535
C52   C     C_R   0.347690 0.681559 0.095851 0.742536
C53   C     C_R   0.347689 0.318441 0.095849 0.742547
C54   C     C_R   0.393808 0.728320 0.095019 -0.328745
C55   C     C_R   0.393808 0.271680 0.095017 -0.328744
C56   C     C_R   0.893808 0.228320 0.095019 -0.328746
C57   C     C_R   0.689886 0.876426 0.091881 -0.099295
C58   C     C_R   0.893807 0.771680 0.095018 -0.328745
C59   C     C_R   0.357034 0.757176 0.996352 0.057716
C60   C     C_R   0.357032 0.242824 0.996351 0.057714
C61   C     C_R   0.857034 0.257176 0.996352 0.057717
C62   C     C_R   0.857033 0.742824 0.996352 0.057717
C63   C     C_R   0.387728 0.949923 0.461450 -0.165939
C64   C     C_R   0.387727 0.050076 0.461450 -0.165939
C65   C     C_R   0.887727 0.449923 0.461450 -0.165938
C66   C     C_R   0.887727 0.550076 0.461450 -0.165938
C67   C     C_R   0.388651 0.949952 0.368740 -0.162834
C68   C     C_R   0.189886 0.623573 0.091881 -0.099295
C69   C     C_R   0.388650 0.050047 0.368739 -0.162833
C70   C     C_R   0.888651 0.449953 0.368740 -0.162834
C71   C     C_R   0.888651 0.550047 0.368739 -0.162833
C72   C     C_R   0.400597 1.000000 0.330432 0.138889
C73   C     C_R   0.900597 0.500000 0.330432 0.138889
C74   C     C_R   0.478293 0.046015 0.247245 -0.125803
C75   C     C_R   0.478293 0.953985 0.247245 -0.125804
C76   C     C_R   0.978293 0.546015 0.247245 -0.125802
C77   C     C_R   0.978293 0.453985 0.247245 -0.125804
C78   C     C_R   0.397500 1.000000 0.514711 0.137277
C79   C     C_R   0.189886 0.376427 0.091881 -0.099295
C80   C     C_R   0.897501 0.500000 0.514711 0.137277
C81   C     C_R   0.230884 0.953518 0.751093 -0.132543
C82   C     C_R   0.230884 0.046482 0.751093 -0.132543
C83   C     C_R   0.730885 0.453516 0.751092 -0.132533
C84   C     C_R   0.730883 0.546481 0.751093 -0.132553
C85   C     C_R   0.381034 0.184677 0.998053 0.102367
C86   C     C_R   0.381034 0.815322 0.998053 0.102366
C87   C     C_R   0.881033 0.684677 0.998053 0.102365
C88   C     C_R   0.881035 0.315322 0.998053 0.102366
C89   C     C_R   0.445864 1.000000 0.272114 0.039168
C90   C     C_R   0.599410 0.876477 0.908384 -0.134748
C91   C     C_R   0.945864 0.500000 0.272114 0.039168
C92   C     C_R   0.174221 1.000000 0.724277 -0.005177
C93   C     C_R   0.674221 0.499997 0.724278 -0.005177
C94   C     C_R   0.449591 0.045642 0.695400 -0.140085
C95   C     C_R   0.449591 0.954358 0.695400 -0.140086
C96   C     C_R   0.949591 0.545642 0.695400 -0.140086
C97   C     C_R   0.949591 0.454358 0.695400 -0.140085
C98   C     C_R   0.753869 0.953969 0.305361 -0.123910
C99   C     C_R   0.753869 0.046031 0.305361 -0.123913
C100  C     C_R   0.253867 0.453969 0.305361 -0.123911
F1    F     F_    0.881976 0.156217 0.193418 -0.741133
F2    F     F_    0.881976 0.843783 0.193417 -0.741132
F3    F     F_    0.381977 0.656216 0.193417 -0.741136
F4    F     F_    0.381975 0.343783 0.193413 -0.741136
H1    H     H_    0.312853 0.165198 0.822553 0.085001
H2    H     H_    0.870566 0.052646 0.569967 0.158197
H3    H     H_    0.370566 0.447293 0.569903 0.158180
H4    H     H_    0.370567 0.552591 0.570032 0.158212
H5    H     H_    0.904740 0.909464 0.493800 0.160750
H6    H     H_    0.904737 0.090534 0.493810 0.160747
H7    H     H_    0.404789 0.409457 0.493739 0.160785
H8    H     H_    0.404686 0.590529 0.493874 0.160709
H9    H     H_    0.100595 0.962907 0.521720 0.167505
H10   H     H_    0.100593 0.037100 0.521725 0.167504
H11   H     H_    0.600578 0.462917 0.521698 0.167518
H12   H     H_    0.312852 0.834802 0.822553 0.085001
H13   H     H_    0.600609 0.537111 0.521746 0.167489
H14   H     H_    0.948199 0.962884 0.377098 0.188923
H15   H     H_    0.948198 0.037122 0.377102 0.188923
H16   H     H_    0.448192 0.462939 0.377045 0.188915
H17   H     H_    0.448203 0.537177 0.377154 0.188930
H18   H     H_    0.260607 0.751300 0.818105 0.120572
H19   H     H_    0.260599 0.248696 0.818106 0.120574
H20   H     H_    0.760608 0.251300 0.818106 0.120572
H21   H     H_    0.760604 0.748698 0.818105 0.120572
H22   H     H_    0.680940 0.171216 0.819198 0.140616
H23   H     H_    0.812851 0.665197 0.822553 0.085001
H24   H     H_    0.680937 0.828782 0.819197 0.140616
H25   H     H_    0.180940 0.671217 0.819197 0.140616
H26   H     H_    0.180933 0.328779 0.819198 0.140617
H27   H     H_    0.453104 0.743885 0.172788 0.150556
H28   H     H_    0.453105 0.256116 0.172785 0.150557
H29   H     H_    0.953104 0.243885 0.172788 0.150557
H30   H     H_    0.953104 0.756115 0.172787 0.150557
H31   H     H_    0.389077 0.910453 0.496472 0.108994
H32   H     H_    0.389075 0.089547 0.496470 0.108995
H33   H     H_    0.889076 0.410453 0.496471 0.108994
H34   H     H_    0.812854 0.334801 0.822554 0.085000
H35   H     H_    0.889076 0.589547 0.496471 0.108994
H36   H     H_    0.489377 0.832200 0.173934 0.092115
H37   H     H_    0.489377 0.167800 0.173934 0.092116
H38   H     H_    0.989378 0.332200 0.173934 0.092115
H39   H     H_    0.989377 0.667800 0.173934 0.092116
H40   H     H_    0.390751 0.910533 0.335846 0.111691
H41   H     H_    0.390749 0.089466 0.335844 0.111691
H42   H     H_    0.890751 0.410533 0.335846 0.111691
H43   H     H_    0.890750 0.589466 0.335845 0.111691
H44   H     H_    0.467922 0.089000 0.256920 0.096163
H45   H     H_    0.026125 0.947828 0.718382 0.161101
H46   H     H_    0.467922 0.911000 0.256920 0.096163
H47   H     H_    0.967922 0.589000 0.256920 0.096163
H48   H     H_    0.967922 0.411000 0.256920 0.096163
H49   H     H_    0.209711 0.910721 0.735149 0.093859
H50   H     H_    0.209711 0.089278 0.735148 0.093858
H51   H     H_    0.709716 0.410719 0.735150 0.093856
H52   H     H_    0.709705 0.589277 0.735146 0.093861
H53   H     H_    0.431071 0.088025 0.668370 0.085844
H54   H     H_    0.431071 0.911975 0.668370 0.085844
H55   H     H_    0.931072 0.588025 0.668370 0.085844
H56   H     H_    0.026122 0.052163 0.718388 0.161102
H57   H     H_    0.931071 0.411975 0.668370 0.085843
H58   H     H_    0.766185 0.911293 0.331452 0.092309
H59   H     H_    0.766187 0.088707 0.331452 0.092310
H60   H     H_    0.266178 0.411293 0.331453 0.092310
H61   H     H_    0.266194 0.588707 0.331452 0.092309
H62   H     H_    0.746401 0.129237 0.177133 0.171338
H63   H     H_    0.746400 0.870762 0.177133 0.171338
H64   H     H_    0.246400 0.629238 0.177133 0.171336
H65   H     H_    0.246401 0.370764 0.177133 0.171338
H66   H     H_    0.572364 0.872225 0.822780 0.098561
H67   H     H_    0.526110 0.447813 0.718353 0.161109
H68   H     H_    0.572364 0.127775 0.822780 0.098562
H69   H     H_    0.072364 0.372226 0.822780 0.098561
H70   H     H_    0.072364 0.627775 0.822780 0.098562
H71   H     H_    0.054609 0.909365 0.637617 0.151967
H72   H     H_    0.054607 0.090633 0.637631 0.151966
H73   H     H_    0.554628 0.409357 0.637613 0.151955
H74   H     H_    0.554586 0.590626 0.637638 0.151975
H75   H     H_    0.526137 0.552147 0.718421 0.161091
H76   H     H_    0.870568 0.947347 0.569962 0.158197
N1    N     N_R   0.392140 0.102630 0.941800 -0.037780
N2    N     N_R   0.525160 0.972040 0.206160 -0.040456
N3    N     N_R   0.025160 0.527960 0.206160 -0.040456
N4    N     N_R   0.025160 0.472040 0.206160 -0.040457
N5    N     N_R   0.317870 0.971120 0.792790 -0.036692
N6    N     N_R   0.317870 0.028880 0.792790 -0.036692
N7    N     N_R   0.817870 0.471120 0.792790 -0.036693
N8    N     N_R   0.817870 0.528880 0.792790 -0.036691
N9    N     N_R   0.473480 0.027920 0.793480 -0.036492
N10   N     N_R   0.473480 0.972080 0.793480 -0.036492
N11   N     N_R   0.973480 0.527920 0.793480 -0.036492
N12   N     N_R   0.392140 0.897370 0.941800 -0.037781
N13   N     N_R   0.973480 0.472080 0.793480 -0.036492
N14   N     N_R   0.681610 0.971120 0.207570 -0.036518
N15   N     N_R   0.681610 0.028880 0.207570 -0.036518
N16   N     N_R   0.181610 0.471120 0.207570 -0.036519
N17   N     N_R   0.181610 0.528880 0.207570 -0.036517
N18   N     N_R   0.605410 0.102620 0.056870 -0.054870
N19   N     N_R   0.605410 0.897380 0.056870 -0.054870
N20   N     N_R   0.105410 0.602620 0.056870 -0.054870
N21   N     N_R   0.105410 0.397380 0.056870 -0.054870
N22   N     N_R   0.549680 0.896430 0.944180 -0.043385
N23   N     N_R   0.892140 0.602630 0.941800 -0.037780
N24   N     N_R   0.549680 0.103570 0.944180 -0.043385
N25   N     N_R   0.049680 0.396430 0.944180 -0.043385
N26   N     N_R   0.049680 0.603570 0.944180 -0.043385
N27   N     N_R   0.892140 0.397370 0.941800 -0.037781
N28   N     N_R   0.450890 0.896450 0.057150 -0.039866
N29   N     N_R   0.450890 0.103550 0.057150 -0.039866
N30   N     N_R   0.950890 0.396450 0.057150 -0.039866
N31   N     N_R   0.950890 0.603550 0.057150 -0.039866
N32   N     N_R   0.525160 0.027960 0.206160 -0.040456
Ni1   Ni    Ni4+2 0.433410 0.064680 0.868830 0.212491
Ni2   Ni    Ni4+2 0.433410 0.935320 0.868830 0.212491
Ni3   Ni    Ni4+2 0.933410 0.564680 0.868830 0.212491
Ni4   Ni    Ni4+2 0.933410 0.435320 0.868830 0.212491
Ni5   Ni    Ni4+2 0.565650 0.934380 0.131170 0.212084
Ni6   Ni    Ni4+2 0.565650 0.065620 0.131170 0.212084
Ni7   Ni    Ni4+2 0.065650 0.434380 0.131170 0.212083
Ni8   Ni    Ni4+2 0.065650 0.565620 0.131170 0.212085

loop_
_geom_bond_atom_site_label_1
_geom_bond_atom_site_label_2
_ccdc_geom_bond_type
N26   Ni3   S    
C34   H14   S    
C71   H43   S    
C64   H32   S    
C24   N23   A    
C58   C62   A    
N3    Ni8   S    
C31   C85   A    
C22   C29   S    
C16   H56   S    
C95   H54   S    
C69   H41   S    
C5    H70   S    
C82   C92   A    
C11   C47   S    
N19   Ni5   S    
C12   C48   S    
C83   N7    A    
C56   H29   S    
C81   H49   S    
C4    N25   A    
C39   C41   A    
C33   H39   S    
C51   F2    S    
C15   C19   S    
C54   H27   S    
C12   C68   A    
C29   C36   S    
C3    H61   S    
C13   N12   A    
C82   N6    A    
N29   Ni6   S    
C96   N11   A    
N23   Ni3   S    
C8    C99   A    
C25   H11   S    
C35   H34   S    
C52   F3    S    
C22   H4    S    
C46   N18   A    
C14   C49   S    
C83   H51   S    
C75   H46   S    
C44   H26   S    
C65   C70   A    
C83   C93   A    
N6    Ni1   S    
C99   N15   A    
N28   Ni5   S    
C77   N4    A    
C40   C62   A    
N5    Ni2   S    
C98   N14   A    
C6    C78   S    
N1    N29   A    
C67   C72   A    
C23   C26   S    
C97   N13   A    
N21   N25   A    
C8    C98   A    
C20   H6    S    
C95   N10   A    
N11   Ni3   S    
C5    N26   A    
C81   C92   A    
N4    Ni7   S    
C66   H35   S    
N25   Ni4   S    
C79   N21   A    
C13   C86   A    
C10   C46   A    
N27   N30   A    
C70   H42   S    
C30   C86   A    
C76   N3    A    
C7    C97   A    
C43   C48   A    
C32   H38   S    
C38   H19   S    
C42   H24   S    
C84   C93   A    
C65   H33   S    
C16   H72   S    
C40   C42   A    
N14   N15   A    
N17   Ni8   S    
C28   C34   S    
C65   C80   A    
C55   C60   A    
C57   N19   A    
C16   C26   S    
N12   N28   A    
N23   N31   A    
N18   Ni6   S    
C10   C45   S    
C67   H40   S    
C77   H48   S    
C81   N5    A    
C98   H58   S    
N8    Ni3   S    
C52   C54   A    
N14   Ni5   S    
C20   H2    S    
C54   C59   A    
C100  N16   A    
C1    C85   A    
C39   C61   A    
C63   C67   A    
C30   H36   S    
C23   H9    S    
C17   C27   S    
C43   H25   S    
C2    N24   A    
N21   Ni7   S    
C5    C12   A    
C100  H60   S    
C71   C73   A    
C1    N1    A    
C15   C26   S    
C47   C51   A    
C20   C28   S    
C76   H47   S    
C6    C94   A    
C64   C69   A    
C21   C29   S    
N24   Ni1   S    
C44   C49   A    
C58   H30   S    
C39   H20   S    
C74   N32   A    
C63   H31   S    
C76   C91   A    
C37   C43   A    
C69   C72   A    
N3    N4    A    
N11   N13   A    
C24   H23   S    
C38   C44   A    
C3    C9    A    
C61   C88   S    
N19   N22   A    
C32   N30   A    
C35   C88   A    
C21   H7    S    
C66   C71   A    
C31   N29   A    
N31   Ni8   S    
C16   C20   S    
C23   C34   S    
C30   N28   A    
C90   H66   S    
C70   C73   A    
N2    N32   A    
N12   Ni2   S    
C51   C58   A    
C21   H3    S    
C14   C79   A    
N22   Ni2   S    
C19   C28   S    
N10   Ni2   S    
C73   C91   S    
C37   C59   A    
N9    Ni1   S    
N2    Ni5   S    
C38   C60   A    
C68   H64   S    
C35   N27   A    
C31   H37   S    
C18   H75   S    
C6    C95   A    
C9    C100  A    
C22   H8    S    
C4    H69   S    
N18   N24   A    
C25   C27   S    
N20   Ni8   S    
C99   H59   S    
C27   C93   S    
C8    C28   S    
C53   C55   A    
C2    C10   A    
C15   H45   S    
N16   Ni7   S    
C74   C89   A    
N13   Ni4   S    
C74   H44   S    
C34   H15   S    
N7    Ni4   S    
C77   C91   A    
N20   N26   A    
C46   H62   S    
C18   C22   S    
C64   C78   A    
C41   H22   S    
C18   C27   S    
N16   N17   A    
C25   H13   S    
N1    Ni1   S    
C60   C85   S    
C17   H67   S    
C57   H63   S    
C9    C29   S    
C94   H53   S    
C66   C80   A    
C62   C87   S    
C97   H57   S    
C15   H71   S    
C68   N20   A    
C79   H65   S    
C36   H17   S    
C33   C87   A    
C59   C86   S    
N7    N8    A    
C50   C56   A    
C23   H10   S    
C72   C89   S    
C84   H52   S    
C11   C90   A    
N5    N6    A    
C19   H5    S    
N32   Ni6   S    
C45   C50   A    
C49   C53   A    
C40   H21   S    
N27   Ni4   S    
C3    N17   A    
C42   C47   A    
C4    C14   A    
N9    N10   A    
C36   H16   S    
C24   C87   A    
C17   C21   S    
C2    H68   S    
C94   N9    A    
C13   H12   S    
C84   N8    A    
N30   Ni7   S    
C25   C36   S    
C37   H18   S    
C82   H50   S    
C48   C52   A    
C96   H55   S    
C18   H74   S    
C50   F1    S    
C55   H28   S    
C75   C89   A    
C7    C96   A    
C41   C45   A    
C56   C61   A    
C17   H73   S    
C53   F4    S    
C11   C57   A    
C75   N2    A    
C26   C92   S    
C19   H76   S    
N15   Ni6   S    
C33   N31   A    
C1    H1    S    
C7    C80   S    
C90   N22   A    
C63   C78   A    
C32   C88   A    
