data_mof_unit_33821.cif
_audit_creation_date              2012-12-11T14:50:34-0500
_audit_creation_method            fapswitch 2.2
_symmetry_space_group_name_H-M    P1
_symmetry_Int_Tables_number       1
_space_group_crystal_system       triclinic
_cell_length_a                    10.947725
_cell_length_b                    10.878186
_cell_length_c                    18.856153
_cell_angle_alpha                 90.52783
_cell_angle_beta                  89.958255
_cell_angle_gamma                 60.567685
_cell_volume                      1955.66182693

loop_
_atom_site_label
_atom_site_type_symbol
_atom_type_description
_atom_site_fract_x
_atom_site_fract_y
_atom_site_fract_z
_atom_type_partial_charge
C1    C     C_R   0.237134 0.648189 0.610115 0.558229
C2    C     C_3   0.706122 0.529142 0.799197 -0.333987
C3    C     C_3   0.700980 0.671732 0.813007 0.025136
C4    C     C_3   0.671041 0.643504 0.677786 0.030061
C5    C     C_3   0.794407 0.672413 0.688802 0.233382
C6    C     C_3   0.701758 0.507263 0.718976 -0.303940
C7    C     C_R   0.775416 0.170029 0.713074 0.285272
C8    C     C_R   0.792066 0.148479 0.786153 -0.189908
C9    C     C_R   0.677899 0.172023 0.828361 -0.085498
C10   C     C_R   0.545050 0.225257 0.797442 0.442490
C11   C     C_R   0.531755 0.231941 0.724854 0.370774
C12   C     C_R   0.652399 0.619820 0.602202 0.581982
C13   C     C_R   0.646919 0.204670 0.681320 0.013969
C14   C     C_R   0.183269 0.565511 0.720174 -0.092297
C15   C     C_R   0.175425 0.565329 0.793528 0.380625
C16   C     C_R   0.174174 0.675428 0.833057 0.011720
C17   C     C_R   0.189227 0.780834 0.798616 -0.191398
C18   C     C_R   0.190918 0.787925 0.725007 -0.028245
C19   C     C_R   0.194135 0.672561 0.685058 -0.019471
C20   C     C_R   0.719077 0.524338 0.270932 -0.086943
C21   C     C_R   0.719042 0.537828 0.198204 0.369165
C22   C     C_R   0.651377 0.672279 0.168014 0.033006
C23   C     C_R   0.621919 0.238551 0.605840 0.614322
C24   C     C_R   0.571406 0.791560 0.211490 -0.188164
C25   C     C_R   0.567806 0.776899 0.284853 -0.155259
C26   C     C_R   0.646618 0.643434 0.315047 -0.027040
C27   C     C_R   0.526725 0.189471 0.283730 -0.104012
C28   C     C_R   0.529056 0.184933 0.211077 0.343087
C29   C     C_R   0.649346 0.165126 0.174912 0.054417
C30   C     C_R   0.761265 0.162978 0.212362 -0.151763
C31   C     C_R   0.757246 0.170694 0.285503 -0.175178
C32   C     C_R   0.639576 0.184629 0.321425 -0.026203
C33   C     C_R   0.094358 0.802761 0.304478 -0.131144
C34   C     C_R   0.219051 0.649475 0.402426 0.556964
C35   C     C_R   0.077529 0.814065 0.232425 -0.124337
C36   C     C_R   0.109547 0.694412 0.190440 0.027761
C37   C     C_R   0.148330 0.564917 0.222036 -0.117274
C38   C     C_R   0.168798 0.552624 0.294771 -0.123535
C39   C     C_R   0.149381 0.670419 0.335225 0.028143
C40   C     C_R   0.699748 0.106341 0.897712 0.582522
C41   C     C_R   0.724041 0.687381 0.888477 0.537193
C42   C     C_R   0.118041 0.706477 0.905365 0.570455
C43   C     C_R   0.674329 0.109011 0.103514 0.571192
C44   C     C_R   0.694726 0.690052 0.097275 0.562794
C45   C     C_R   0.639805 0.619686 0.390665 0.557571
C46   C     C_R   0.083388 0.714978 0.115393 0.552444
C47   C     C_R   0.615920 0.230169 0.394532 0.555685
C48   C     C_3   0.557783 0.792717 0.787481 0.255508
C49   C     C_3   0.535888 0.766100 0.710011 -0.149873
C50   C     C_3   0.819451 0.676331 0.769074 -0.153463
Cr1   Cr    Cr6+3 0.392930 0.397900 0.502230 1.053050
Cr2   Cr    Cr6+3 0.398240 0.708600 0.501260 1.024482
Cr3   Cr    Cr6+3 0.708800 0.393470 0.496460 1.053716
Cr4   Cr    Cr6+3 0.937620 0.938540 0.007640 1.044002
Cr5   Cr    Cr6+3 0.625150 0.937450 0.994520 1.132179
Cr6   Cr    Cr6+3 0.937990 0.625080 0.001190 1.127848
H1    H     H_    0.804825 0.418070 0.701847 0.198789
H2    H     H_    0.920807 0.582565 0.782192 0.135101
H3    H     H_    0.891327 0.587481 0.663234 0.120815
H4    H     H_    0.893504 0.107953 0.810024 0.155515
H5    H     H_    0.180723 0.481240 0.690480 0.192918
H6    H     H_    0.189648 0.863862 0.830093 0.148998
H7    H     H_    0.471813 0.796665 0.820727 0.106370
H8    H     H_    0.775769 0.419426 0.292693 0.155358
H9    H     H_    0.518948 0.896621 0.189460 0.194106
H10   H     H_    0.507364 0.869434 0.317931 0.147714
H11   H     H_    0.432690 0.203369 0.310038 0.154953
H12   H     H_    0.854563 0.149248 0.185392 0.190520
H13   H     H_    0.844076 0.169369 0.313688 0.138062
H14   H     H_    0.075828 0.895231 0.335112 0.134976
H15   H     H_    0.456034 0.732003 0.709189 0.068327
H16   H     H_    0.041360 0.917028 0.209650 0.142340
H17   H     H_    0.167546 0.473320 0.190512 0.191301
H18   H     H_    0.209794 0.449341 0.318191 0.144498
H19   H     H_    0.499386 0.864193 0.678758 0.210054
H20   H     H_    0.827631 0.771771 0.782936 0.189709
H21   H     H_    0.803520 0.439925 0.821048 0.174250
H22   H     H_    0.615360 0.528486 0.825514 0.121010
H23   H     H_    0.619807 0.477681 0.707403 0.120797
O1    O     O_R   0.507430 0.255570 0.581420 -0.454805
O2    O     O_R   0.524460 0.695920 0.424060 -0.491890
O3    O     O_R   0.736530 0.504260 0.414810 -0.522657
O4    O     O_R   0.691460 0.277160 0.422180 -0.505916
O5    O     O_3   0.499990 0.499990 0.499980 -0.278505
O6    O     O_R   0.089490 0.825610 0.930610 -0.539701
O7    O     O_R   0.818370 0.054540 0.929880 -0.522619
O8    O     O_R   0.605870 0.077310 0.915530 -0.389473
O9    O     O_R   0.646440 0.806700 0.917570 -0.459761
O10   O     O_R   0.837200 0.593290 0.915250 -0.505387
O11   O     O_R   0.065330 0.635370 0.931590 -0.427578
O12   O     O_R   0.280190 0.527390 0.578910 -0.488072
O13   O     O_R   0.068300 0.828790 0.091860 -0.521690
O14   O     O_R   0.798730 0.057480 0.079370 -0.523289
O15   O     O_R   0.584680 0.080480 0.076790 -0.439095
O16   O     O_R   0.626790 0.809640 0.067050 -0.523783
O17   O     O_R   0.816010 0.596460 0.076500 -0.443501
O18   O     O_R   0.045680 0.638310 0.081070 -0.495099
O19   O     O_3   0.833590 0.833690 0.001120 -0.304611
O20   O     O_R   0.260310 0.739740 0.584580 -0.544058
O21   O     O_R   0.532250 0.695150 0.573830 -0.513072
O22   O     O_R   0.744930 0.503430 0.576380 -0.516995
O23   O     O_R   0.699250 0.276390 0.571950 -0.456140
O24   O     O_R   0.499020 0.256400 0.419850 -0.531782
O25   O     O_R   0.272400 0.528160 0.429140 -0.511267
O26   O     O_R   0.251910 0.740570 0.423020 -0.515247
F1    F     F_    0.552938 0.922377 0.793149 -0.585508
F2    F     F_    0.882633 0.159582 0.673430 -0.676404
F3    F     F_    0.429183 0.258185 0.837129 -0.510652
F4    F     F_    0.404554 0.265919 0.697846 -0.613201
F5    F     F_    0.162381 0.460941 0.825395 -0.573280
C51   C     C_3   0.184474 0.919769 0.690353 -0.219412
C52   C     C_3   0.179458 0.036997 0.739139 -0.299831
C53   C     C_3   0.178447 0.156316 0.696461 -0.360939
H24   H     H_    0.276235 0.115748 0.664517 0.200772
H25   H     H_    0.087046 0.204203 0.660378 0.190998
H26   H     H_    0.171828 0.239700 0.733255 0.239869
H27   H     H_    0.085883 0.082664 0.773323 0.190256
H28   H     H_    0.272729 0.993351 0.773808 0.194322
H29   H     H_    0.276897 0.891253 0.656813 0.163163
H30   H     H_    0.094205 0.964525 0.654013 0.253781
F6    F     F_    0.792594 0.419799 0.157717 -0.632750
F7    F     F_    0.415727 0.194001 0.176878 -0.634716
F8    F     F_    0.764870 0.799680 0.658431 -0.619173

loop_
_geom_bond_atom_site_label_1
_geom_bond_atom_site_label_2
_ccdc_geom_bond_type
C41   O10   A    
C11   F4    S    
C10   F3    S    
C35   C36   A    
C6    H1    S    
Cr6   O19   S    
C1    O20   A    
C7    C8    A    
C29   C30   A    
Cr3   O5    S    
C44   O17   A    
C40   O8    A    
C28   C29   A    
Cr6   O10   S    
C38   C39   A    
C33   C35   A    
C28   F7    S    
C23   O23   A    
C46   O13   A    
Cr1   O24   S    
C15   C16   A    
Cr3   O3    S    
C3    C48   S    
C43   O15   A    
C13   C23   S    
C51   H29   S    
C18   C19   A    
C40   O7    A    
Cr5   O9    S    
Cr2   O5    S    
Cr1   O1    S    
Cr4   O14   S    
C26   C45   S    
Cr1   O12   S    
C48   F1    S    
C51   C52   S    
Cr3   O22   S    
C8    C9    A    
C49   H19   S    
C36   C46   S    
C47   O4    A    
C23   O1    A    
C4    C12   S    
C9    C10   A    
C53   H26   S    
Cr6   O11   S    
C1    O12   A    
C21   C22   A    
C29   C43   S    
Cr5   O8    S    
C15   F5    S    
C2    C6    S    
Cr6   O18   S    
Cr5   O15   S    
C52   C53   S    
C3    C50   S    
C22   C44   S    
C1    C19   S    
C47   O24   A    
C5    H3    S    
C34   C39   S    
C50   H2    S    
C27   H11   S    
C18   C51   S    
Cr5   O16   S    
Cr4   O7    S    
C16   C17   A    
C48   H7    S    
Cr1   O25   S    
C14   H5    S    
Cr2   O21   S    
C9    C40   S    
C34   O25   A    
C51   H30   S    
C42   O11   A    
C20   H8    S    
Cr4   O13   S    
C37   C38   A    
C2    H22   S    
C50   H20   S    
C17   H6    S    
C31   C32   A    
C7    C13   A    
Cr3   O23   S    
C17   C18   A    
C42   O6    A    
C33   C39   A    
C24   C25   A    
C45   O3    A    
C33   H14   S    
C24   H9    S    
C4    C6    S    
C48   C49   S    
C46   O18   A    
Cr2   O26   S    
C32   C47   S    
C22   C24   A    
C5    C50   S    
C52   H27   S    
C16   C42   S    
C53   H24   S    
C38   H18   S    
Cr6   O17   S    
C41   O9    A    
C37   H17   S    
C36   C37   A    
C27   C32   A    
C34   O26   A    
C14   C19   A    
C45   O2    A    
C25   H10   S    
C4    C5    S    
C35   H16   S    
Cr4   O6    S    
C5    F8    S    
Cr2   O20   S    
C4    C49   S    
Cr3   O4    S    
C2    C3    S    
C25   C26   A    
C12   O22   A    
C44   O16   A    
C8    H4    S    
C52   H28   S    
C11   C13   A    
C6    H23   S    
C30   C31   A    
C20   C26   A    
Cr5   O19   S    
C43   O14   A    
C7    F2    S    
C21   F6    S    
Cr2   O2    S    
C12   O21   A    
C3    C41   S    
C10   C11   A    
C31   H13   S    
C20   C21   A    
C49   H15   S    
C27   C28   A    
C2    H21   S    
C14   C15   A    
Cr4   O19   S    
Cr1   O5    S    
C30   H12   S    
C53   H25   S    
