data_mof_unit_56125.cif
_audit_creation_date              2012-12-10T19:45:00-0500
_audit_creation_method            fapswitch 2.2
_symmetry_space_group_name_H-M    P1
_symmetry_Int_Tables_number       1
_space_group_crystal_system       triclinic
_cell_length_a                    14.95407
_cell_length_b                    10.93626
_cell_length_c                    13.712816
_cell_angle_alpha                 90.553879
_cell_angle_beta                  89.913582
_cell_angle_gamma                 89.30667
_cell_volume                      2242.34390183

loop_
_atom_site_label
_atom_site_type_symbol
_atom_type_description
_atom_site_fract_x
_atom_site_fract_y
_atom_site_fract_z
_atom_type_partial_charge
C1    C     C_R   0.493997 0.262270 0.499460 0.792625
C2    C     C_R   0.520512 0.881434 0.685531 0.158000
C3    C     C_R   0.549467 0.141161 0.246495 0.218136
C4    C     C_R   0.452631 0.857904 0.754090 0.210650
C5    C     C_R   0.526962 0.181209 0.152523 -0.171085
C6    C     C_R   0.476168 0.816549 0.847195 -0.188568
C7    C     C_R   0.437978 0.206852 0.128676 -0.142308
C8    C     C_R   0.565502 0.791702 0.869888 -0.134356
C9    C     C_R   0.515777 0.935332 0.412080 -0.059759
C10   C     C_R   0.483638 0.064687 0.587852 -0.058895
C11   C     C_R   0.510631 0.872325 0.501383 -0.173710
C12   C     C_R   0.505885 0.737753 0.500529 0.799662
C13   C     C_R   0.488885 0.127718 0.498560 -0.173643
C14   C     C_R   0.500742 0.938570 0.589941 -0.009135
C15   C     C_R   0.498767 0.061477 0.410012 -0.023838
C16   C     C_R   0.328907 0.501385 0.500233 0.804937
C17   C     C_R   0.671068 0.498809 0.499754 0.799667
C18   C     C_R   0.574142 0.461137 0.793232 0.044750
C19   C     C_R   0.426168 0.539852 0.206779 0.043955
C20   C     C_R   0.425315 0.537554 0.793652 0.038870
C21   C     C_R   0.574480 0.461362 0.206442 0.033416
C22   C     C_R   0.422055 0.536427 0.897038 -0.056341
C23   C     C_R   0.048324 0.281634 0.455383 -0.018037
C24   C     C_R   0.578229 0.463741 0.103088 -0.055105
C25   C     C_R   0.499540 0.499488 0.948321 0.056545
C26   C     C_R   0.500784 0.500949 0.051777 0.056918
C27   C     C_R   0.576051 0.461519 0.895968 -0.022321
C28   C     C_R   0.424303 0.539359 0.104084 -0.022299
C29   C     C_R   0.345147 0.574821 0.950589 -0.011931
C30   C     C_R   0.655537 0.426573 0.049512 -0.011732
C31   C     C_R   0.347569 0.576850 0.053251 -0.273321
C32   C     C_R   0.653009 0.424888 0.946769 -0.273976
C33   C     C_R   0.811384 0.606660 0.523494 -0.259443
C34   C     C_R   0.951491 0.718843 0.543879 -0.017902
C35   C     C_R   0.188504 0.393844 0.475947 -0.259706
C36   C     C_R   0.767226 0.499431 0.498744 -0.049215
C37   C     C_R   0.232695 0.500905 0.501150 -0.050673
C38   C     C_R   0.814239 0.393730 0.471634 -0.245802
C39   C     C_R   0.185664 0.606638 0.528261 -0.246975
C40   C     C_R   0.907347 0.392925 0.473054 0.100708
C41   C     C_R   0.092536 0.607564 0.526570 0.099966
C42   C     C_R   0.953090 0.500894 0.498685 0.032787
C43   C     C_R   0.046807 0.499552 0.500925 0.034623
C44   C     C_R   0.904934 0.610121 0.521653 0.061058
C45   C     C_R   0.370302 0.189928 0.197080 -0.141115
C46   C     C_R   0.094951 0.390316 0.477840 0.061112
C47   C     C_R   0.954924 0.285150 0.451040 -0.260034
C48   C     C_R   0.044898 0.715474 0.548263 -0.262042
C49   C     C_R   0.552160 0.874057 0.322952 0.182699
C50   C     C_R   0.498696 0.853628 0.240339 -0.114917
C51   C     C_R   0.536668 0.803171 0.155644 -0.130749
C52   C     C_R   0.627484 0.771024 0.153569 -0.121504
C53   C     C_R   0.680416 0.789158 0.236136 -0.142792
C54   C     C_R   0.642784 0.839344 0.320775 -0.087212
C55   C     C_R   0.447742 0.126248 0.677069 0.177054
C56   C     C_R   0.632369 0.810374 0.800812 -0.138418
C57   C     C_R   0.357595 0.163335 0.679032 -0.105775
C58   C     C_R   0.320585 0.214987 0.763459 -0.160113
C59   C     C_R   0.373669 0.231960 0.846076 -0.127200
C60   C     C_R   0.464090 0.197659 0.844099 -0.133410
C61   C     C_R   0.501451 0.145979 0.759582 -0.120803
C62   C     C_R   0.261383 0.613733 0.901683 0.103880
C63   C     C_R   0.227915 0.733387 0.914410 -0.175993
C64   C     C_R   0.149971 0.770532 0.866200 -0.150067
C65   C     C_R   0.104617 0.688211 0.805986 -0.107269
C66   C     C_R   0.136783 0.568626 0.794084 -0.116101
C67   C     C_R   0.391202 0.144908 0.289165 -0.189851
C68   C     C_R   0.214513 0.531249 0.842258 -0.167919
C69   C     C_R   0.740335 0.390350 0.098064 0.107728
C70   C     C_R   0.783586 0.471916 0.161616 -0.167842
C71   C     C_R   0.863166 0.437733 0.207685 -0.115481
C72   C     C_R   0.900997 0.322420 0.189549 -0.107026
C73   C     C_R   0.859340 0.241170 0.125285 -0.148977
C74   C     C_R   0.779525 0.275101 0.079201 -0.178550
C75   C     C_R   0.094807 0.162136 0.440752 0.133936
C76   C     C_R   0.144377 0.109893 0.517124 -0.157954
C77   C     C_R   0.189518 0.998318 0.503096 -0.176983
C78   C     C_R   0.610195 0.856194 0.709279 -0.202098
C79   C     C_R   0.184592 0.937395 0.413280 -0.115242
C80   C     C_R   0.133979 0.987498 0.337617 -0.135280
C81   C     C_R   0.088946 0.099238 0.351260 -0.156898
C82   C     C_R   0.904718 0.838164 0.557936 0.132265
C83   C     C_R   0.906696 0.898945 0.648553 -0.157858
C84   C     C_R   0.860774 0.010104 0.661691 -0.135272
C85   C     C_R   0.813031 0.061612 0.584456 -0.117089
C86   C     C_R   0.811746 0.002560 0.493682 -0.177776
C87   C     C_R   0.857738 0.891538 0.480178 -0.153057
C88   C     C_R   0.480458 0.119007 0.314206 0.143233
Cu1   Cu    Cu3+1 0.500010 0.499980 0.597420 0.952293
Cu2   Cu    Cu3+1 0.499990 0.500020 0.402580 0.946304
H1    H     H_    0.771901 0.686564 0.544097 0.138098
H2    H     H_    0.221801 0.688576 0.548303 0.128663
H3    H     H_    0.919174 0.202508 0.432607 0.164496
H4    H     H_    0.080571 0.798248 0.566541 0.165100
H5    H     H_    0.421531 0.241391 0.057481 0.131525
H6    H     H_    0.582801 0.756489 0.940650 0.131471
H7    H     H_    0.301468 0.210222 0.178303 0.134291
H8    H     H_    0.701518 0.790658 0.818576 0.134313
H9    H     H_    0.337791 0.128821 0.340807 0.140287
H10   H     H_    0.662926 0.873214 0.657024 0.140671
H11   H     H_    0.578380 0.194855 0.098287 0.127776
H12   H     H_    0.228000 0.314128 0.454952 0.138102
H13   H     H_    0.425071 0.802032 0.901560 0.131793
H14   H     H_    0.428338 0.878199 0.241258 0.113495
H15   H     H_    0.495570 0.788975 0.091786 0.127323
H16   H     H_    0.657020 0.731348 0.088402 0.118970
H17   H     H_    0.750823 0.765289 0.234571 0.112481
H18   H     H_    0.684359 0.853182 0.384281 0.105910
H19   H     H_    0.315926 0.150345 0.615494 0.109861
H20   H     H_    0.250519 0.240685 0.764827 0.116426
H21   H     H_    0.344633 0.272533 0.911175 0.121157
H22   H     H_    0.505453 0.211312 0.907811 0.128470
H23   H     H_    0.632295 0.429690 0.752888 0.126181
H24   H     H_    0.571573 0.120138 0.758691 0.114971
H25   H     H_    0.262776 0.798162 0.960422 0.120180
H26   H     H_    0.124828 0.863154 0.875355 0.123655
H27   H     H_    0.044349 0.716620 0.768874 0.121330
H28   H     H_    0.101493 0.504928 0.747558 0.135550
H29   H     H_    0.238629 0.438498 0.832908 0.123158
H30   H     H_    0.755354 0.561583 0.175705 0.124030
H31   H     H_    0.895599 0.500751 0.257252 0.135765
H32   H     H_    0.962830 0.296572 0.224887 0.121066
H33   H     H_    0.888873 0.151887 0.111200 0.123697
H34   H     H_    0.368199 0.571968 0.247130 0.126259
H35   H     H_    0.747699 0.211080 0.029920 0.119899
H36   H     H_    0.148303 0.156011 0.587220 0.123313
H37   H     H_    0.228081 0.958818 0.561924 0.147158
H38   H     H_    0.219596 0.851103 0.402477 0.125773
H39   H     H_    0.129828 0.939884 0.268246 0.122383
H40   H     H_    0.050449 0.137088 0.291847 0.110741
H41   H     H_    0.942586 0.859774 0.709269 0.110487
H42   H     H_    0.861897 0.056080 0.731918 0.122118
H43   H     H_    0.777283 0.147410 0.594866 0.124466
H44   H     H_    0.775258 0.043013 0.433741 0.141017
H45   H     H_    0.368850 0.570570 0.752481 0.140660
H46   H     H_    0.856340 0.846645 0.409444 0.123656
H47   H     H_    0.657576 0.189539 0.324635 0.208337
H48   H     H_    0.683147 0.133627 0.213513 0.220077
H49   H     H_    0.328987 0.790990 0.733253 0.220055
H50   H     H_    0.331150 0.933422 0.781356 0.221775
H51   H     H_    0.630272 0.426221 0.247673 0.142602
H52   H     H_    0.288656 0.606461 0.093658 0.145794
H53   H     H_    0.712135 0.396538 0.906188 0.145389
H54   H     H_    0.778102 0.311748 0.451728 0.119372
N1    N     N_R   0.499960 0.499900 0.743810 -0.177365
N2    N     N_R   0.500040 0.500100 0.256190 -0.178149
N3    N     N_3   0.641239 0.121819 0.273591 -0.616087
N4    N     N_3   0.360490 0.875524 0.728975 -0.621639
O1    O     O_R   0.500000 0.319630 0.582270 -0.571044
O2    O     O_R   0.500000 0.680370 0.417730 -0.575336
O3    O     O_R   0.499990 0.319660 0.417730 -0.577415
O4    O     O_R   0.500010 0.680340 0.582270 -0.569277
O5    O     O_R   0.370260 0.499960 0.582280 -0.589201
O6    O     O_R   0.629740 0.500040 0.417720 -0.592543
O7    O     O_R   0.370250 0.499990 0.417740 -0.592137
O8    O     O_R   0.629750 0.500010 0.582260 -0.592433

loop_
_geom_bond_atom_site_label_1
_geom_bond_atom_site_label_2
_ccdc_geom_bond_type
C40   C47   A    
C66   C68   A    
C79   H38   S    
C50   H14   S    
C64   H26   S    
C22   C29   A    
C76   H36   S    
C73   C74   A    
C12   O4    A    
C8    H6    S    
C56   H8    S    
Cu2   O2    S    
C35   H12   S    
C8    C56   A    
C81   H40   S    
C39   C41   A    
C53   C54   A    
C3    N3    S    
C67   C88   A    
C48   H4    S    
C60   H22   S    
C7    C45   A    
C35   C37   A    
C24   C26   A    
C33   H1    S    
C68   H29   S    
C80   C81   A    
C11   C14   A    
C74   H35   S    
C82   C87   A    
C4    N4    S    
C33   C36   A    
C56   C78   A    
C61   H24   S    
C32   H53   S    
C86   H44   S    
Cu1   O4    S    
C57   H19   S    
C70   H30   S    
C73   H33   S    
C22   C25   A    
C45   C67   A    
C59   H21   S    
C1    O1    A    
C70   C71   A    
C17   C36   S    
Cu2   O6    S    
C77   H37   S    
C67   H9    S    
C16   C37   S    
C63   H25   S    
C18   N1    A    
C40   C42   A    
Cu1   N1    S    
C52   H16   S    
C59   C60   A    
C23   C46   A    
C41   C43   A    
H50   N4    S    
C42   C44   A    
C17   O6    A    
C18   H23   S    
H47   N3    S    
C3    C88   A    
C77   C79   A    
H49   N4    S    
C5    H11   S    
C19   H34   S    
C19   N2    A    
C23   C47   A    
C63   C64   A    
C51   C52   A    
C30   C32   A    
C12   O2    A    
C9    C49   S    
C84   C85   A    
C4    C6    A    
C10   C14   A    
C5    C7    A    
C86   C87   A    
C75   C81   A    
Cu1   O8    S    
C6    C8    A    
C25   C26   A    
C85   C86   A    
C84   H42   S    
Cu2   O3    S    
C60   C61   A    
C78   H10   S    
C2    C4    A    
C75   C76   A    
C83   H41   S    
C62   C63   A    
C2    C78   A    
C53   H17   S    
Cu1   O5    S    
C83   C84   A    
C13   C15   A    
H48   N3    S    
C51   H15   S    
C16   O7    A    
C50   C51   A    
C47   H3    S    
C34   C44   A    
C69   C74   A    
C6    H13   S    
C76   C77   A    
C10   C55   S    
C9    C11   A    
C20   C22   A    
C65   C66   A    
C55   C57   A    
C19   C28   A    
C1    C13   S    
C42   C43   A    
Cu1   Cu2   S    
C39   H2    S    
Cu2   N2    S    
C30   C69   S    
C52   C53   A    
C29   C62   S    
C80   H39   S    
C72   H32   S    
C27   C32   A    
C58   H20   S    
C33   C44   A    
C38   H54   S    
C87   H46   S    
C71   H31   S    
C28   C31   A    
C18   C27   A    
C23   C75   S    
C72   C73   A    
C3    C5    A    
C10   C13   A    
C11   C12   S    
C62   C68   A    
C25   C27   A    
C7    H5    S    
C26   C28   A    
C54   H18   S    
C64   C65   A    
C31   H52   S    
C36   C38   A    
C58   C59   A    
C21   H51   S    
C71   C72   A    
C29   C31   A    
C45   H7    S    
C21   N2    A    
C38   C40   A    
C17   O8    A    
C57   C58   A    
C55   C61   A    
Cu1   O1    S    
C41   C48   A    
C1    O3    A    
C20   H45   S    
C9    C15   A    
C69   C70   A    
C2    C14   S    
C43   C46   A    
C24   C30   A    
C79   C80   A    
C34   C48   A    
C37   C39   A    
C49   C50   A    
C66   H28   S    
C21   C24   A    
C16   O5    A    
C65   H27   S    
C20   N1    A    
C34   C82   S    
C82   C83   A    
Cu2   O7    S    
C35   C46   A    
C49   C54   A    
C85   H43   S    
C15   C88   S    
