data_mof_unit_5004.cif
_audit_creation_date              2012-12-10T20:36:38-0500
_audit_creation_method            fapswitch 2.2
_symmetry_space_group_name_H-M    P1
_symmetry_Int_Tables_number       1
_space_group_crystal_system       triclinic
_cell_length_a                    10.491166
_cell_length_b                    10.669279
_cell_length_c                    9.865374
_cell_angle_alpha                 90.118269
_cell_angle_beta                  90.597859
_cell_angle_gamma                 89.89283
_cell_volume                      1104.19829889

loop_
_atom_site_label
_atom_site_type_symbol
_atom_type_description
_atom_site_fract_x
_atom_site_fract_y
_atom_site_fract_z
_atom_type_partial_charge
C1    C     C_R   0.505663 0.260053 0.499742 0.879756
C2    C     C_3   0.956866 0.609034 0.447710 0.202649
C3    C     C_3   0.038464 0.513143 0.370850 -0.159257
C4    C     C_3   0.122338 0.503047 0.498370 0.001621
C5    C     C_R   0.572235 0.064102 0.610100 0.026827
C6    C     C_R   0.527872 0.128855 0.496183 -0.115862
C7    C     C_R   0.509127 0.064480 0.373459 -0.223317
C8    C     C_R   0.507771 0.935451 0.373564 -0.221020
C9    C     C_R   0.524309 0.871455 0.496545 -0.133589
C10   C     C_R   0.568676 0.936076 0.610371 0.118687
C11   C     C_3   0.535956 0.929037 0.757871 -0.064503
C12   C     C_R   0.257313 0.501435 0.499334 0.877247
C13   C     C_3   0.541248 0.073847 0.757919 -0.150872
C14   C     C_R   0.388267 0.491266 0.069894 0.215446
C15   C     C_R   0.609503 0.518204 0.073105 -0.142438
C16   C     C_R   0.609689 0.517044 0.929359 -0.168936
C17   C     C_R   0.388187 0.492117 0.927345 0.220069
C18   C     C_3   0.294326 0.387660 0.919208 -0.520214
C19   C     C_3   0.295654 0.385373 0.073103 -0.521509
C20   C     C_R   0.503932 0.740089 0.499841 0.871983
C21   C     C_R   0.742555 0.500119 0.500801 0.853573
C22   C     C_3   0.043695 0.394588 0.553891 -0.170944
C23   C     C_3   0.957167 0.404611 0.426679 -0.209280
C24   C     C_3   0.877364 0.501608 0.502352 -0.023801
C25   C     C_3   0.961416 0.491716 0.629711 -0.186118
C26   C     C_3   0.042985 0.600427 0.574523 -0.185821
H1    H     H_    0.917574 0.324962 0.367184 0.143060
H2    H     H_    0.445999 0.117451 0.773040 0.144792
H3    H     H_    0.698333 0.531255 0.127720 0.153078
H4    H     H_    0.698577 0.529223 0.876613 0.156456
H5    H     H_    0.201513 0.418819 0.875359 0.204591
H6    H     H_    0.334332 0.301600 0.872354 0.202542
H7    H     H_    0.202962 0.413306 0.117036 0.197489
H8    H     H_    0.337740 0.298368 0.116572 0.206155
H9    H     H_    0.084322 0.307040 0.597198 0.129789
H10   H     H_    0.925986 0.482647 0.734903 0.138340
H11   H     H_    0.082488 0.680141 0.633940 0.130723
H12   H     H_    0.072393 0.524316 0.265563 0.129900
H13   H     H_    0.484344 0.112552 0.280194 0.166982
H14   H     H_    0.483088 0.887360 0.280089 0.167884
H15   H     H_    0.436506 0.895566 0.771982 0.114386
N1    N     N_R   0.499140 0.499140 0.142800 -0.104288
N2    N     N_R   0.499140 0.499180 0.857150 -0.108011
O1    O     O_R   0.500020 0.316790 0.614690 -0.625116
O2    O     O_R   0.500000 0.316760 0.385350 -0.621972
O3    O     O_R   0.313960 0.499990 0.614650 -0.620284
O4    O     O_R   0.313940 0.499950 0.385310 -0.621046
O5    O     O_R   0.500000 0.683240 0.614650 -0.617480
O6    O     O_R   0.499980 0.683210 0.385310 -0.622543
O7    O     O_R   0.686060 0.500050 0.614690 -0.637066
O8    O     O_R   0.686040 0.500010 0.385350 -0.633511
Zn1   Zn    Zn3+2 0.500010 0.500020 0.653130 0.921737
Zn2   Zn    Zn3+2 0.499990 0.499980 0.346870 0.926652
C27   C     C_3   0.632093 0.854275 0.847763 -0.327177
C28   C     C_3   0.758521 0.818797 0.780741 -0.863382
H16   H     H_    0.808173 0.902572 0.741269 0.246734
H17   H     H_    0.821731 0.772197 0.856322 0.231280
H18   H     H_    0.741503 0.752021 0.696137 0.265202
H19   H     H_    0.652035 0.903827 0.944288 0.203144
H20   H     H_    0.584673 0.765847 0.877199 0.209046
C29   C     C_3   0.648318 0.139593 0.839716 -0.337879
C30   C     C_3   0.607797 0.165318 0.986294 -0.368092
C31   C     C_3   0.720861 0.206474 0.074142 -0.875013
H21   H     H_    0.791153 0.128908 0.083566 0.253362
H22   H     H_    0.768099 0.289356 0.029023 0.254619
H23   H     H_    0.687320 0.231903 0.177011 0.267179
H24   H     H_    0.534914 0.240681 0.986570 0.232324
H25   H     H_    0.564372 0.080774 0.032003 0.210373
H26   H     H_    0.738103 0.084830 0.837680 0.215399
H27   H     H_    0.669534 0.231211 0.791517 0.217112
C32   C     C_3   0.901337 0.729767 0.388060 -0.420883
C33   C     C_3   0.006371 0.819605 0.345495 -0.882656
H28   H     H_    0.066327 0.846167 0.434418 0.255130
H29   H     H_    0.067361 0.775359 0.267384 0.255451
H30   H     H_    0.962939 0.905857 0.302195 0.252437
H31   H     H_    0.840984 0.706286 0.298398 0.211917
H32   H     H_    0.840532 0.776152 0.464863 0.200758

loop_
_geom_bond_atom_site_label_1
_geom_bond_atom_site_label_2
_ccdc_geom_bond_type
C29   H27   S    
C28   H16   S    
C31   H22   S    
C3    C23   S    
C32   H32   S    
C7    C8    A    
C27   H20   S    
C22   H9    S    
C30   C31   S    
C30   H24   S    
C12   O4    A    
N1    Zn2   S    
C5    C6    A    
N2    Zn1   S    
C16   H4    S    
C15   C16   A    
O3    Zn1   S    
C18   C19   S    
C9    C20   S    
C3    H12   S    
C8    C9    A    
C22   C25   S    
O7    Zn1   S    
C23   C24   S    
C13   H2    S    
C23   H1    S    
C4    C12   S    
C9    C10   A    
C5    C13   S    
O4    Zn2   S    
O1    Zn1   S    
C31   H23   S    
O2    Zn2   S    
C14   C17   A    
C33   H30   S    
C5    C10   A    
C21   O7    A    
C15   H3    S    
C27   H19   S    
C1    C6    S    
C24   C25   S    
C12   O3    A    
C19   H7    S    
C25   C26   S    
O8    Zn2   S    
C17   N2    A    
C20   O6    A    
C4    C22   S    
C1    O1    A    
C17   C18   S    
C2    C26   S    
C16   N2    A    
C20   O5    A    
C11   C27   S    
C33   H29   S    
C28   H17   S    
C2    C24   S    
C21   C24   S    
C18   H6    S    
C3    C4    S    
C21   O8    A    
C29   H26   S    
C27   C28   S    
C14   C19   S    
C15   N1    A    
C33   H28   S    
C19   H8    S    
C4    C26   S    
C26   H11   S    
C6    C7    A    
C30   H25   S    
C14   N1    A    
C2    C3    S    
C32   C33   S    
C11   C13   S    
C1    O2    A    
C32   H31   S    
O6    Zn2   S    
C11   H15   S    
C29   C30   S    
C10   C11   S    
C25   H10   S    
C31   H21   S    
O5    Zn1   S    
C13   C29   S    
C28   H18   S    
C7    H13   S    
C22   C23   S    
C18   H5    S    
C8    H14   S    
C2    C32   S    
