data_mof_unit_60158.cif
_audit_creation_date              2012-12-10T20:11:52-0500
_audit_creation_method            fapswitch 2.2
_symmetry_space_group_name_H-M    P1
_symmetry_Int_Tables_number       1
_space_group_crystal_system       triclinic
_cell_length_a                    13.647415
_cell_length_b                    18.572051
_cell_length_c                    19.318912
_cell_angle_alpha                 89.555705
_cell_angle_beta                  90.060828
_cell_angle_gamma                 82.895549
_cell_volume                      4858.83037274

loop_
_atom_site_label
_atom_site_type_symbol
_atom_type_description
_atom_site_fract_x
_atom_site_fract_y
_atom_site_fract_z
_atom_type_partial_charge
C1    C     C_R   0.499825 0.499656 0.634363 0.923103
C2    C     C_R   0.587378 0.511790 0.034488 0.271026
C3    C     C_R   0.497327 0.500733 0.928328 -0.327619
C4    C     C_R   0.502682 0.499267 0.071672 -0.327604
C5    C     C_R   0.434031 0.281496 0.459529 -0.048794
C6    C     C_R   0.565979 0.718504 0.540462 -0.048790
C7    C     C_R   0.422420 0.207753 0.465321 0.347378
C8    C     C_R   0.577586 0.792247 0.534668 0.347381
C9    C     C_R   0.490228 0.160628 0.506087 -0.013633
C10   C     C_R   0.509768 0.839372 0.493909 -0.013634
C11   C     C_R   0.539212 0.196429 0.558425 0.345842
C12   C     C_R   0.500176 0.500344 0.365637 0.923106
C13   C     C_R   0.460771 0.803570 0.441578 0.345840
C14   C     C_R   0.548858 0.270368 0.551062 -0.006833
C15   C     C_R   0.451129 0.729631 0.448943 -0.006830
C16   C     C_R   0.685698 0.486962 0.499959 0.900148
C17   C     C_R   0.314302 0.513038 0.500041 0.900142
C18   C     C_R   0.565063 0.030866 0.542391 0.361202
C19   C     C_R   0.434933 0.969135 0.457608 0.361208
C20   C     C_R   0.551312 0.957736 0.550769 0.363935
C21   C     C_R   0.448688 0.042264 0.449227 0.363940
C22   C     C_R   0.498625 0.922371 0.500782 -0.170655
C23   C     C_R   0.494591 0.435948 0.254672 -0.248717
C24   C     C_R   0.501372 0.077630 0.499215 -0.170654
C25   C     C_1   0.210753 0.523137 0.500431 -0.091268
C26   C     C_1   0.789247 0.476863 0.499569 -0.091266
C27   C     C_2   0.019361 0.531349 0.501144 0.283571
C28   C     C_2   0.980639 0.468651 0.498856 0.283571
C29   C     C_1   0.876878 0.470478 0.499194 0.091892
C30   C     C_1   0.123122 0.529522 0.500806 0.091890
C31   C     C_R   0.508385 0.565488 0.252919 0.653287
C32   C     C_R   0.491646 0.434508 0.747082 0.653284
C33   C     C_R   0.509310 0.564508 0.181223 -0.130181
C34   C     C_R   0.505386 0.564057 0.745328 -0.248708
C35   C     C_R   0.490723 0.435487 0.818778 -0.130174
C36   C     C_R   0.503280 0.499581 0.146538 0.149015
C37   C     C_R   0.496728 0.500419 0.853462 0.149032
C38   C     C_R   0.495572 0.435392 0.182993 -0.024878
C39   C     C_R   0.504409 0.564612 0.817007 -0.024892
C40   C     C_R   0.500996 0.500885 0.290226 -0.208571
C41   C     C_R   0.499007 0.499115 0.709774 -0.208570
C42   C     C_R   0.415742 0.487427 0.037340 0.601241
C43   C     C_R   0.584266 0.512574 0.962659 0.601255
C44   C     C_R   0.412631 0.488210 0.965511 0.271037
Cl1   Cl    Cl    0.053097 0.383069 0.495256 -0.464965
Cl2   Cl    Cl    0.698729 0.524408 0.076543 -0.395670
Cl3   Cl    Cl    0.303323 0.186494 0.444597 -0.380991
Cl4   Cl    Cl    0.696688 0.813509 0.555377 -0.380984
Cl5   Cl    Cl    0.946903 0.616931 0.504744 -0.464963
Cl6   Cl    Cl    0.553211 0.162302 0.643890 -0.373793
Cl7   Cl    Cl    0.446751 0.837697 0.356114 -0.373799
Cl8   Cl    Cl    0.685213 0.050648 0.562312 -0.350144
Cl9   Cl    Cl    0.314776 0.949360 0.437700 -0.350148
Cl10  Cl    Cl    0.563855 0.924870 0.636798 -0.366959
Cl11  Cl    Cl    0.436164 0.075122 0.363196 -0.366961
Cl12  Cl    Cl    0.301282 0.475589 0.923456 -0.395667
F1    F     F_    0.515006 0.629421 0.285156 -0.605520
F2    F     F_    0.485054 0.370570 0.714846 -0.605533
F3    F     F_    0.333784 0.476438 0.073904 -0.562706
F4    F     F_    0.666224 0.523564 0.926095 -0.562699
H1    H     H_    0.587373 0.297497 0.590154 0.208604
H2    H     H_    0.616437 0.682745 0.572220 0.190768
H3    H     H_    0.412606 0.702502 0.409857 0.208577
H4    H     H_    0.514466 0.614299 0.152575 0.202090
H5    H     H_    0.485589 0.385694 0.847427 0.202082
H6    H     H_    0.490503 0.385129 0.155869 0.187992
H7    H     H_    0.509457 0.614879 0.844130 0.187981
H8    H     H_    0.488597 0.385598 0.282102 0.207984
H9    H     H_    0.511357 0.614410 0.717898 0.207986
H10   H     H_    0.383581 0.317255 0.427766 0.190762
N1    N     N_R   0.499990 0.310560 0.500020 -0.155958
N2    N     N_R   0.500010 0.689440 0.499980 -0.155957
O1    O     O_R   0.500000 0.439160 0.601820 -0.556751
O2    O     O_R   0.500000 0.560840 0.398180 -0.556746
O3    O     O_R   0.500040 0.560790 0.601820 -0.631802
O4    O     O_R   0.499960 0.439210 0.398180 -0.631805
O5    O     O_R   0.640320 0.430440 0.499980 -0.608784
O6    O     O_R   0.359680 0.569560 0.500020 -0.608792
O7    O     O_R   0.640370 0.552060 0.499990 -0.592056
O8    O     O_R   0.359630 0.447940 0.500010 -0.592055
Zn1   Zn    Zn3+2 0.499970 0.418790 0.500000 1.028164
Zn2   Zn    Zn3+2 0.500030 0.581210 0.500000 1.028165

loop_
_geom_bond_atom_site_label_1
_geom_bond_atom_site_label_2
_ccdc_geom_bond_type
C4    C36   S    
C12   O2    A    
C14   N1    A    
C32   F2    S    
C18   Cl8   S    
C2    Cl2   S    
C6    N2    A    
C15   N2    A    
C3    C43   A    
C18   C24   A    
C28   C29   S    
C35   C37   A    
C11   C14   A    
C35   H5    S    
C23   C40   A    
C33   C36   A    
C31   C40   A    
C16   O5    A    
O6    Zn2   S    
C13   Cl7   S    
C38   H6    S    
C32   C41   A    
C31   C33   A    
C19   Cl9   S    
C27   C30   S    
C34   C41   A    
C42   C44   A    
O2    Zn2   S    
O1    Zn1   S    
C16   C26   S    
C28   Cl1   S    
C3    C44   A    
C34   C39   A    
C1    O3    A    
C32   C35   A    
C19   C22   A    
C20   Cl10  S    
C5    C7    A    
C6    C8    A    
C14   H1    S    
C17   O8    A    
C10   C22   S    
C7    Cl3   S    
C23   H8    S    
C12   C40   S    
C2    C4    A    
C8    Cl4   S    
C5    H10   S    
C44   Cl12  S    
O5    Zn1   S    
C2    C43   A    
O3    Zn2   S    
C9    C11   A    
C34   H9    S    
C43   F4    S    
C1    C41   S    
C20   C22   A    
C13   C15   A    
C21   C24   A    
C21   Cl11  S    
C25   C30   T    
C7    C9    A    
C19   C21   A    
C39   H7    S    
O8    Zn1   S    
C10   C13   A    
O4    Zn1   S    
O7    Zn2   S    
C9    C24   S    
C23   C38   A    
C16   O7    A    
C17   C25   S    
C6    H2    S    
C12   O4    A    
C1    O1    A    
C5    N1    A    
C11   Cl6   S    
C31   F1    S    
C4    C42   A    
C33   H4    S    
C36   C38   A    
C17   O6    A    
C18   C20   A    
C37   C39   A    
C3    C37   S    
C26   C29   T    
C8    C10   A    
C42   F3    S    
C27   C28   D    
C15   H3    S    
N2    Zn2   S    
C27   Cl5   S    
N1    Zn1   S    
