data_mof_unit_58809.cif
_audit_creation_date              2012-12-10T19:04:44-0500
_audit_creation_method            fapswitch 2.2
_symmetry_space_group_name_H-M    P1
_symmetry_Int_Tables_number       1
_space_group_crystal_system       triclinic
_cell_length_a                    15.869444
_cell_length_b                    10.865878
_cell_length_c                    9.568834
_cell_angle_alpha                 90.381443
_cell_angle_beta                  89.788253
_cell_angle_gamma                 90.597244
_cell_volume                      1649.86906988

loop_
_atom_site_label
_atom_site_type_symbol
_atom_type_description
_atom_site_fract_x
_atom_site_fract_y
_atom_site_fract_z
_atom_type_partial_charge
C1    C     C_R   0.497601 0.262962 0.499365 0.855768
C2    C     C_3   0.083359 0.497550 0.497568 -0.173240
C3    C     C_3   0.973343 0.613945 0.521347 0.375037
C4    C     C_3   0.916437 0.500135 0.495281 -0.219527
C5    C     C_3   0.029076 0.573897 0.397550 0.292227
C6    C     C_3   0.972976 0.459755 0.372422 0.335737
C7    C     C_1   0.174892 0.498343 0.499362 0.149457
C8    C     C_1   0.824947 0.500096 0.496535 0.153586
C9    C     C_R   0.507849 0.064256 0.617574 -0.217660
C10   C     C_R   0.492376 0.130587 0.497564 -0.299373
C11   C     C_R   0.472043 0.063522 0.374925 0.548927
C12   C     C_R   0.339953 0.499821 0.500157 0.799108
C13   C     C_R   0.472115 0.934331 0.375856 0.589176
C14   C     C_R   0.492263 0.870066 0.499533 -0.270223
C15   C     C_R   0.505939 0.939824 0.619733 -0.299528
C16   C     C_3   0.536776 0.934542 0.768714 0.273999
C17   C     C_3   0.537725 0.076898 0.765868 1.042732
C18   C     C_R   0.572558 0.521876 0.073263 0.093561
C19   C     C_R   0.431017 0.463127 0.074917 -0.073047
C20   C     C_R   0.430975 0.462369 0.926742 0.722034
C21   C     C_R   0.572981 0.520183 0.926119 0.050507
C22   C     C_3   0.629769 0.629913 0.918308 0.116239
C23   C     C_R   0.498294 0.737348 0.500237 0.856367
C24   C     C_3   0.627267 0.634116 0.077512 1.006151
C25   C     C_R   0.660013 0.500055 0.499707 0.791166
C26   C     C_3   0.970457 0.424113 0.595356 0.504326
C27   C     C_3   0.027138 0.381694 0.472168 -0.399563
C28   C     C_1   0.250363 0.499097 0.500258 -0.110660
C29   C     C_1   0.749524 0.500062 0.498433 -0.075956
C30   C     C_3   0.027477 0.537457 0.621269 0.511217
Cu1   Cu    Cu3+1 0.500000 0.499980 0.640670 1.050493
Cu2   Cu    Cu3+1 0.500000 0.500020 0.359330 1.076845
H1    H     H_    0.049927 0.286682 0.453948 0.196242
H2    H     H_    0.600999 0.895780 0.775070 0.049837
H3    H     H_    0.374809 0.434111 0.130146 0.179750
H4    H     H_    0.599023 0.707105 0.864094 0.111572
N1    N     N_R   0.500530 0.500930 0.147930 -0.225897
N2    N     N_R   0.500530 0.500890 0.852020 -0.256829
O1    O     O_R   0.500000 0.319640 0.618810 -0.528416
O2    O     O_R   0.500010 0.319680 0.381230 -0.526078
O3    O     O_R   0.379070 0.499970 0.618770 -0.511558
O4    O     O_R   0.379080 0.500010 0.381190 -0.599315
O5    O     O_R   0.499990 0.680320 0.618770 -0.616746
O6    O     O_R   0.500000 0.680360 0.381190 -0.475613
O7    O     O_R   0.620920 0.499990 0.618810 -0.559276
O8    O     O_R   0.620930 0.500030 0.381230 -0.539863
F1    F     F_    0.476897 0.129467 0.850786 -0.589422
O9    O     O_3   0.618562 0.131193 0.791932 -0.572896
C31   C     C_3   0.675764 0.124226 0.678280 -0.062280
H5    H     H_    0.656006 0.186240 0.592933 0.157558
H6    H     H_    0.681430 0.028601 0.637425 0.131573
C32   C     C_3   0.762365 0.167309 0.726975 -0.601104
H7    H     H_    0.784915 0.107307 0.812332 0.238174
H8    H     H_    0.807763 0.163091 0.638488 0.229111
H9    H     H_    0.759261 0.263819 0.765749 0.277664
F2    F     F_    0.360710 0.421524 0.860835 -0.624170
O10   O     O_3   0.709744 0.596832 0.866100 -0.535833
C33   C     C_3   0.758351 0.703973 0.840153 0.075976
H10   H     H_    0.745488 0.780067 0.916045 0.155199
H11   H     H_    0.745309 0.736941 0.732687 0.147921
C34   C     C_3   0.851183 0.672706 0.851669 -0.604276
H12   H     H_    0.866385 0.594939 0.780694 0.266263
H13   H     H_    0.890501 0.753890 0.823166 0.232151
H14   H     H_    0.865917 0.645952 0.960600 0.245261
F3    F     F_    0.704182 0.613256 0.140591 -0.637319
F4    F     F_    0.586717 0.736810 0.129574 -0.614242
F5    F     F_    0.938121 0.347565 0.697397 -0.670933
O11   O     O_3   0.939029 0.422730 0.242605 -0.545941
C35   C     C_3   0.003496 0.373355 0.158094 0.026680
H15   H     H_    0.022341 0.281760 0.197941 0.153490
H16   H     H_    0.059842 0.435259 0.153662 0.190614
C36   C     C_3   0.970839 0.356871 0.010101 -0.563024
H17   H     H_    0.953003 0.447458 0.966822 0.272153
H18   H     H_    0.020807 0.316336 0.943136 0.237263
H19   H     H_    0.914887 0.294597 0.009541 0.252015
O12   O     O_3   0.065504 0.648676 0.293040 -0.564835
C37   C     C_3   0.002425 0.718183 0.227682 0.111029
H20   H     H_    0.983975 0.796365 0.296336 0.210173
H21   H     H_    0.945416 0.661879 0.202108 0.182624
C38   C     C_3   0.037178 0.769898 0.091640 -0.744337
H22   H     H_    0.054542 0.693406 0.019898 0.292119
H23   H     H_    0.988711 0.827070 0.040588 0.205457
H24   H     H_    0.093847 0.827872 0.112624 0.257661
F6    F     F_    0.945074 0.731736 0.547987 -0.655737
F7    F     F_    0.056558 0.576171 0.750453 -0.647625
F8    F     F_    0.452677 0.121596 0.254138 -0.582884
F9    F     F_    0.452695 0.873471 0.255742 -0.580303
O13   O     O_3   0.482311 0.884757 0.873859 -0.506147
C39   C     C_3   0.396800 0.872766 0.833782 0.144940
H25   H     H_    0.389354 0.801007 0.751575 0.145252
H26   H     H_    0.371414 0.961360 0.795557 0.182881
C40   C     C_3   0.344733 0.832949 0.959602 -0.601823
H27   H     H_    0.347311 0.905381 0.041906 0.301826
H28   H     H_    0.278058 0.818252 0.928218 0.180224
H29   H     H_    0.369508 0.745649 0.002209 0.248183

loop_
_geom_bond_atom_site_label_1
_geom_bond_atom_site_label_2
_ccdc_geom_bond_type
C35   C36   S    
C18   C21   A    
C19   C20   A    
C17   O9    S    
C20   F2    S    
C22   O10   S    
C37   H20   S    
C27   H1    S    
C26   C27   S    
Cu1   O5    S    
C12   C28   S    
C18   C24   S    
C26   F5    S    
C18   N1    A    
C38   H24   S    
C5    C6    S    
C11   F8    S    
C33   H11   S    
C15   C16   S    
C23   O5    A    
C34   H13   S    
C35   H16   S    
C12   O4    A    
C19   N1    A    
C1    O2    A    
C16   H2    S    
O11   C35   S    
C21   N2    A    
Cu1   Cu2   S    
C16   C17   S    
C31   H6    S    
C2    C27   S    
C39   H26   S    
C9    C10   A    
C32   H9    S    
C4    C8    S    
C33   C34   S    
C6    O11   S    
C21   C22   S    
C35   H15   S    
C36   H19   S    
C32   H8    S    
C37   H21   S    
C25   C29   S    
O12   C37   S    
C36   H18   S    
C1    O1    A    
C36   H17   S    
C33   H10   S    
C40   H29   S    
C23   O6    A    
C30   F7    S    
C14   C23   S    
C3    C30   S    
C12   O3    A    
C20   N2    A    
C6    C27   S    
C31   C32   S    
C13   F9    S    
C40   H28   S    
Cu2   O6    S    
Cu2   N1    S    
C39   C40   S    
C24   F3    S    
C9    C17   S    
O9    C31   S    
C26   C30   S    
C2    C7    S    
C22   C24   S    
C4    C6    S    
C8    C29   T    
C3    C4    S    
C25   O7    A    
C32   H7    S    
C37   C38   S    
Cu1   O3    S    
Cu2   O8    S    
C1    C10   S    
C17   F1    S    
C38   H22   S    
C3    C5    S    
C4    C26   S    
C24   F4    S    
C22   H4    S    
Cu1   N2    S    
C2    C30   S    
C5    O12   S    
C9    C15   A    
C19   H3    S    
C34   H14   S    
C11   C13   A    
O10   C33   S    
C40   H27   S    
C38   H23   S    
Cu1   O1    S    
Cu2   O2    S    
C34   H12   S    
C10   C11   A    
C7    C28   T    
C2    C5    S    
O13   C39   S    
C31   H5    S    
Cu1   O7    S    
C3    F6    S    
C16   O13   S    
Cu2   O4    S    
C14   C15   A    
C39   H25   S    
C13   C14   A    
C25   O8    A    
