data_mof_unit_31843.cif
_audit_creation_date              2012-12-10T17:47:47-0500
_audit_creation_method            fapswitch 2.2
_symmetry_space_group_name_H-M    P1
_symmetry_Int_Tables_number       1
_space_group_crystal_system       triclinic
_cell_length_a                    10.643001
_cell_length_b                    10.661576
_cell_length_c                    9.962703
_cell_angle_alpha                 90.834402
_cell_angle_beta                  90.934492
_cell_angle_gamma                 92.79684
_cell_volume                      1128.84922046

loop_
_atom_site_label
_atom_site_type_symbol
_atom_type_description
_atom_site_fract_x
_atom_site_fract_y
_atom_site_fract_z
_atom_type_partial_charge
C1    C     C_R   0.522891 0.264015 0.499430 0.888020
C2    C     C_R   0.562834 0.070713 0.620977 0.094668
C3    C     C_R   0.553649 0.132777 0.497974 -0.205857
C4    C     C_R   0.257762 0.492757 0.498722 0.837898
C5    C     C_R   0.543981 0.063431 0.376877 -0.023952
C6    C     C_R   0.515875 0.936233 0.381861 -0.288796
C7    C     C_R   0.499651 0.876785 0.505232 -0.153323
C8    C     C_R   0.333075 0.335773 0.134333 -0.106805
C9    C     C_R   0.250081 0.254464 0.062189 -0.140588
C10   C     C_R   0.250177 0.253962 0.923124 -0.191209
C11   C     C_R   0.332903 0.335143 0.855765 -0.141918
C12   C     C_3   0.878398 0.496458 0.498384 0.176561
C13   C     C_R   0.417446 0.419115 0.925353 0.123060
C14   C     C_R   0.417773 0.419018 0.069432 0.144819
C15   C     C_R   0.577806 0.577855 0.076143 -0.135592
C16   C     C_R   0.494862 0.740834 0.501561 0.887004
C17   C     C_R   0.581536 0.576463 0.933731 0.188762
C18   C     C_R   0.742089 0.500557 0.500123 0.837587
C19   C     C_3   0.062530 0.367667 0.569307 0.005803
C20   C     C_3   0.919877 0.385747 0.585086 -0.446608
C21   C     C_3   0.080371 0.608533 0.569911 -0.438438
C22   C     C_3   0.068394 0.489634 0.349707 -0.410531
C23   C     C_3   0.938103 0.620726 0.555547 -0.449524
C24   C     C_3   0.120649 0.487178 0.496098 0.170963
C25   C     C_2   0.566489 0.120457 0.244529 0.921700
C26   C     C_3   0.078381 0.237386 0.499299 -0.432732
C27   C     C_3   0.211070 0.190795 0.502228 -0.899718
C28   C     C_3   0.681236 0.662783 0.873664 -0.367607
C29   C     C_3   0.813356 0.622761 0.911050 -0.925605
C30   C     C_3   0.925212 0.478757 0.351716 -0.384867
C31   C     C_R   0.615394 0.130355 0.737762 -0.171958
C32   C     C_R   0.601914 0.074258 0.861984 -0.087396
C33   C     C_R   0.530897 0.961954 0.872068 -0.123998
C34   C     C_R   0.486138 0.898814 0.756174 -0.214729
C35   C     C_R   0.514863 0.946527 0.627586 0.107156
H1    H     H_    0.105014 0.363654 0.671886 0.146426
H2    H     H_    0.640060 0.641711 0.134481 0.151815
H3    H     H_    0.329389 0.330927 0.240620 0.190180
H4    H     H_    0.185840 0.191209 0.114656 0.143631
H5    H     H_    0.185904 0.190325 0.866979 0.142915
H6    H     H_    0.328758 0.329946 0.749444 0.207035
H7    H     H_    0.861521 0.299457 0.556822 0.152673
H8    H     H_    0.900711 0.404875 0.692563 0.163532
H9    H     H_    0.106243 0.605089 0.678528 0.186496
H10   H     H_    0.898527 0.644161 0.654073 0.189635
H11   H     H_    0.099080 0.579603 0.301865 0.187620
H12   H     H_    0.888610 0.551547 0.284307 0.176464
H13   H     H_    0.104221 0.412793 0.286641 0.174807
H14   H     H_    0.891035 0.385296 0.310782 0.203424
H15   H     H_    0.668295 0.248052 0.137904 0.324660
H16   H     H_    0.274094 0.253833 0.445164 0.263068
H17   H     H_    0.245915 0.182244 0.606772 0.255383
H18   H     H_    0.210950 0.096349 0.453684 0.257037
H19   H     H_    0.019832 0.165175 0.552548 0.217511
H20   H     H_    0.042589 0.236228 0.394149 0.224440
H21   H     H_    0.829297 0.528981 0.866901 0.268006
H22   H     H_    0.884667 0.692573 0.873760 0.245800
H23   H     H_    0.129466 0.693708 0.528246 0.167547
H24   H     H_    0.827338 0.618554 0.021467 0.250869
H25   H     H_    0.672277 0.668793 0.764334 0.266888
H26   H     H_    0.671202 0.759138 0.914013 0.182963
H27   H     H_    0.917961 0.699131 0.487019 0.173044
H28   H     H_    0.667802 0.219829 0.733056 0.149018
H29   H     H_    0.643586 0.119995 0.950228 0.155814
H30   H     H_    0.513287 0.921318 0.969240 0.169733
H31   H     H_    0.427434 0.814853 0.770299 0.174443
H32   H     H_    0.509820 0.883386 0.287935 0.186499
N1    N     N_R   0.498810 0.498800 0.142780 -0.137342
N2    N     N_R   0.498760 0.498720 0.857170 -0.148600
O1    O     O_R   0.500000 0.316780 0.614690 -0.637250
O2    O     O_R   0.667856 0.207410 0.229158 -0.814349
O3    O     O_R   0.499990 0.316750 0.385360 -0.613891
O4    O     O_R   0.314800 0.499990 0.614670 -0.645359
O5    O     O_R   0.314790 0.499970 0.385330 -0.645892
O6    O     O_R   0.500010 0.683250 0.614640 -0.648629
O7    O     O_R   0.500000 0.683220 0.385310 -0.615821
O8    O     O_R   0.685210 0.500030 0.614670 -0.640063
O9    O     O_R   0.685200 0.500010 0.385330 -0.611728
O10   O     O_2   0.494907 0.093655 0.150330 -0.673261
Zn1   Zn    Zn3+2 0.500010 0.500020 0.653130 0.904874
Zn2   Zn    Zn3+2 0.499990 0.499980 0.346870 0.935682

loop_
_geom_bond_atom_site_label_1
_geom_bond_atom_site_label_2
_ccdc_geom_bond_type
C2    C35   A    
C22   H13   S    
C17   N2    A    
C23   H10   S    
C16   O6    A    
C19   C20   S    
C26   H20   S    
C34   H31   S    
C33   H30   S    
C12   C23   S    
C26   C27   S    
C19   C24   S    
N1    Zn2   S    
C28   C29   S    
C19   H1    S    
C5    C6    A    
C4    C24   S    
C9    H4    S    
C10   H5    S    
C34   C35   A    
C19   C26   S    
C15   H2    S    
C23   H27   S    
C29   H24   S    
C8    C9    A    
C25   O2    S    
C9    C10   A    
C4    O5    A    
O3    Zn2   S    
C28   H26   S    
C25   O10   D    
C13   C14   A    
C8    H3    S    
C26   H19   S    
C27   H16   S    
C28   H25   S    
C1    O3    A    
O1    Zn1   S    
C31   H28   S    
C30   H12   S    
C32   H29   S    
C2    C31   A    
C1    C3    S    
H15   O2    S    
C21   H9    S    
C31   C32   A    
C18   O9    A    
C12   C20   S    
C33   C34   A    
C4    O4    A    
C5    C25   S    
C6    H32   S    
C22   H11   S    
C30   H14   S    
C29   H22   S    
C21   C23   S    
C22   C24   S    
O5    Zn2   S    
C20   H8    S    
C27   H17   S    
O6    Zn1   S    
O8    Zn1   S    
C15   C17   A    
C7    C16   S    
C8    C14   A    
C22   C30   S    
C12   C30   S    
C16   O7    A    
C17   C28   S    
C7    C35   A    
C3    C5    A    
O7    Zn2   S    
C20   H7    S    
C27   H18   S    
C6    C7    A    
C29   H21   S    
C1    O1    A    
C32   C33   A    
C2    C3    A    
C21   H23   S    
C11   C13   A    
O9    Zn2   S    
C13   N2    A    
C18   O8    A    
C15   N1    A    
O4    Zn1   S    
C11   H6    S    
C10   C11   A    
C21   C24   S    
C12   C18   S    
C14   N1    A    
N2    Zn1   S    
