data_mof_unit_9641.cif
_audit_creation_date              2012-10-26T19:58:22-0400
_audit_creation_method            fapswitch 2.2
_symmetry_space_group_name_H-M    P1
_symmetry_Int_Tables_number       1
_space_group_crystal_system       triclinic
_cell_length_a                    7.482593
_cell_length_b                    8.714115
_cell_length_c                    13.468966
_cell_angle_alpha                 93.314575
_cell_angle_beta                  78.213258
_cell_angle_gamma                 103.332889
_cell_volume                      836.489920671

loop_
_atom_site_label
_atom_site_type_symbol
_atom_type_description
_atom_site_fract_x
_atom_site_fract_y
_atom_site_fract_z
_atom_type_partial_charge
C1    C     C_R   0.545631 0.800069 0.502425 0.542822
C2    C     C_R   0.341531 0.486548 0.804521 -0.056486
C3    C     C_2   0.571189 0.968079 0.503263 -0.160647
C4    C     C_R   0.400958 0.495265 0.693732 0.538289
C5    C     C_2   0.430356 0.031991 0.493816 -0.167269
C6    C     C_R   0.455025 0.199964 0.496370 0.538395
C7    C     C_R   0.599292 0.507395 0.306566 0.537760
C8    C     C_R   0.877507 0.643432 0.052720 -0.122926
C9    C     C_R   0.655086 0.517504 0.196290 -0.022742
C10   C     C_R   0.159904 0.402126 0.843991 -0.100010
C11   C     C_R   0.097840 0.379375 0.947492 0.255662
C12   C     C_R   0.414352 0.502773 0.974341 -0.005060
C13   C     C_R   0.221865 0.444976 0.012384 -0.106034
C14   C     C_3   0.353209 0.222521 0.211827 0.030635
C15   C     C_3   0.316873 0.090936 0.133368 -0.284072
C16   C     C_3   0.265591 0.928163 0.181891 -0.485026
C17   C     C_3   0.870655 0.221275 0.070524 0.008186
C18   C     C_3   0.817014 0.044868 0.049210 -0.265734
C19   C     C_3   0.748966 0.955346 0.149170 -0.476652
C20   C     C_R   0.468672 0.543454 0.870650 0.001647
C21   C     C_R   0.553276 0.527325 0.036038 0.060925
C22   C     C_R   0.737272 0.613838 0.995089 0.046361
C23   C     C_R   0.778978 0.675414 0.897903 -0.133748
C24   C     C_R   0.646183 0.643038 0.837125 -0.111506
C25   C     C_R   0.518965 0.464221 0.134983 0.258534
C26   C     C_R   0.835984 0.597854 0.153207 -0.198915
Cu1   Cu    Cu3+1 0.321300 0.483160 0.488710 0.953529
Cu2   Cu    Cu3+1 0.678700 0.516840 0.511290 0.942415
H1    H     H_    0.942472 0.633560 0.198771 0.137796
H2    H     H_    0.706846 0.039571 0.512213 0.133453
H3    H     H_    0.240010 0.195783 0.280204 0.171079
H4    H     H_    0.485179 0.222231 0.237116 0.097329
H5    H     H_    0.201077 0.103444 0.097304 0.171206
H6    H     H_    0.442767 0.100972 0.072536 0.166948
H7    H     H_    0.367652 0.915336 0.227997 0.156611
H8    H     H_    0.261272 0.835112 0.121998 0.144373
H9    H     H_    0.126854 0.910459 0.233488 0.143523
H10   H     H_    0.749307 0.255707 0.119320 0.149273
H11   H     H_    0.980393 0.242589 0.116523 0.132893
H12   H     H_    0.294833 0.960527 0.484599 0.130891
H13   H     H_    0.705265 0.019368 0.003760 0.174668
H14   H     H_    0.939925 0.004648 0.003994 0.153569
H15   H     H_    0.869293 0.930150 0.175798 0.152455
H16   H     H_    0.649005 0.843286 0.138459 0.164269
H17   H     H_    0.677411 0.024295 0.209910 0.130866
H18   H     H_    0.011494 0.617314 0.578825 0.236599
H19   H     H_    0.988546 0.382710 0.421143 0.238870
H20   H     H_    0.915810 0.748700 0.868342 0.102127
H21   H     H_    0.017321 0.709658 0.021472 0.109563
H22   H     H_    0.063465 0.354049 0.794048 0.159720
H23   H     H_    0.164964 0.463041 0.091002 0.164678
H24   H     H_    0.684420 0.700776 0.764630 0.143259
N1    N     N_2   0.947230 0.542220 0.528320 -0.258009
N2    N     N_2   0.052770 0.457780 0.471680 -0.254918
O1    O     O_R   0.383920 0.714220 0.492660 -0.505588
O2    O     O_3   0.909874 0.307701 0.979851 -0.567278
O3    O     O_R   0.685730 0.742660 0.511730 -0.504625
O4    O     O_R   0.275440 0.478800 0.636790 -0.508042
O5    O     O_R   0.577250 0.507240 0.655860 -0.497573
O6    O     O_R   0.314270 0.257340 0.488270 -0.510432
O7    O     O_R   0.616080 0.285780 0.507340 -0.500768
O8    O     O_R   0.422750 0.492760 0.344140 -0.461473
O9    O     O_R   0.724560 0.521200 0.363210 -0.516605
O10   O     O_3   0.344537 0.369246 0.174851 -0.599041

loop_
_geom_bond_atom_site_label_1
_geom_bond_atom_site_label_2
_ccdc_geom_bond_type
C24   H24   S    
C3    H2    S    
C2    C4    S    
Cu2   N1    S    
C19   H17   S    
C7    O8    A    
Cu1   O8    S    
C1    O3    A    
C8    C26   A    
C16   H9    S    
C15   H6    S    
C8    C22   A    
C14   H3    S    
C23   C24   A    
C14   O10   S    
Cu2   O7    S    
C12   C20   A    
C17   C18   S    
C1    O1    A    
Cu1   N2    S    
C9    C25   A    
C13   H23   S    
Cu2   O3    S    
C16   H8    S    
C11   C13   A    
C17   O2    S    
C7    O9    A    
H19   N2    S    
C12   C21   A    
H18   N1    S    
C21   C22   A    
C25   O10   S    
C19   H15   S    
C9    C26   A    
C3    C5    D    
Cu1   O6    S    
C18   H14   S    
C16   H7    S    
C5    C6    S    
C20   C24   A    
Cu1   O1    S    
Cu2   O5    S    
C19   H16   S    
C10   C11   A    
C2    C20   A    
C15   C16   S    
C10   H22   S    
Cu2   O9    S    
C6    O6    A    
C12   C13   A    
C4    O5    A    
C26   H1    S    
C18   C19   S    
C17   H11   S    
C5    H12   S    
C17   H10   S    
Cu1   Cu2   S    
C7    C9    S    
C21   C25   A    
C14   C15   S    
C23   H20   S    
C6    O7    A    
C4    O4    A    
N1    N2    D    
C8    H21   S    
C15   H5    S    
C22   C23   A    
C11   O2    S    
C18   H13   S    
C14   H4    S    
C1    C3    S    
Cu1   O4    S    
C2    C10   A    
