data_mof_unit_49828.cif
_audit_creation_date              2012-10-26T21:12:35-0400
_audit_creation_method            fapswitch 2.2
_symmetry_space_group_name_H-M    P1
_symmetry_Int_Tables_number       1
_space_group_crystal_system       triclinic
_cell_length_a                    23.525527
_cell_length_b                    10.764919
_cell_length_c                    9.632677
_cell_angle_alpha                 90.167173
_cell_angle_beta                  89.894298
_cell_angle_gamma                 94.327866
_cell_volume                      2432.50959456

loop_
_atom_site_label
_atom_site_type_symbol
_atom_type_description
_atom_site_fract_x
_atom_site_fract_y
_atom_site_fract_z
_atom_type_partial_charge
C1    C     C_R   0.497651 0.262514 0.499900 0.539279
C2    C     C_R   0.124129 0.609786 0.467972 0.395730
C3    C     C_R   0.239018 0.498739 0.627024 -0.057969
C4    C     C_R   0.391059 0.499520 0.500166 0.529796
C5    C     C_R   0.298256 0.498018 0.626771 -0.153709
C6    C     C_R   0.328486 0.500204 0.500609 0.001931
C7    C     C_R   0.298347 0.503351 0.374908 -0.137809
C8    C     C_R   0.239125 0.504294 0.375510 -0.052080
C9    C     C_R   0.209306 0.501896 0.501468 0.241685
C10   C     C_R   0.760951 0.496688 0.371584 0.157964
C11   C     C_R   0.701396 0.495006 0.372853 -0.127574
C12   C     C_R   0.962241 0.285692 0.569686 -0.115985
C13   C     C_R   0.671521 0.498738 0.499102 -0.003030
C14   C     C_R   0.702020 0.502606 0.624489 -0.143554
C15   C     C_R   0.761273 0.504096 0.623563 -0.085865
C16   C     C_R   0.496633 0.736425 0.499947 0.555922
C17   C     C_R   0.790922 0.501513 0.497630 0.286410
C18   C     C_R   0.407608 0.115533 0.650347 -0.103067
C19   C     C_R   0.365935 0.044205 0.724168 -0.109486
C20   C     C_R   0.365890 0.915001 0.724835 -0.104695
C21   C     C_R   0.407491 0.856302 0.651601 -0.099928
C22   C     C_R   0.450733 0.926759 0.577676 0.023290
C23   C     C_R   0.021575 0.283803 0.570919 0.092055
C24   C     C_R   0.450880 0.058189 0.577270 0.027044
C25   C     C_R   0.493230 0.127945 0.499532 0.003167
C26   C     C_R   0.532440 0.068827 0.418693 -0.138474
C27   C     C_R   0.532150 0.940720 0.418655 -0.125536
C28   C     C_R   0.608902 0.498873 0.499740 0.563796
C29   C     C_R   0.492743 0.869747 0.499792 0.015620
C30   C     C_R   0.582902 0.647119 0.151371 -0.096285
C31   C     C_R   0.633046 0.694325 0.091524 -0.074127
C32   C     C_R   0.638629 0.688839 0.950324 -0.176417
C33   C     C_R   0.592162 0.646990 0.867536 -0.006533
C34   C     C_R   0.056359 0.392848 0.536324 0.067259
C35   C     C_R   0.543243 0.573035 0.926717 0.137362
C36   C     C_R   0.541533 0.572636 0.076678 0.131507
C37   C     C_R   0.460343 0.431043 0.073445 0.002977
C38   C     C_R   0.460140 0.431582 0.926003 -0.001314
C39   C     C_R   0.883963 0.609201 0.465396 0.428941
C40   C     C_R   0.876637 0.395597 0.533006 0.410988
C41   C     C_R   0.936227 0.393906 0.534712 0.012449
C42   C     C_R   0.970153 0.502910 0.500379 -0.038124
C43   C     C_R   0.943739 0.611614 0.465427 0.018990
C44   C     C_1   0.677201 0.757824 0.174760 0.179145
C45   C     C_R   0.030336 0.503129 0.500967 -0.065392
C46   C     C_1   0.598145 0.712638 0.737970 0.276302
C47   C     C_1   0.067209 0.839161 0.393338 0.265160
C48   C     C_R   0.064182 0.613466 0.466097 0.014005
C49   C     C_R   0.036665 0.722482 0.431051 -0.023455
C50   C     C_R   0.977247 0.720147 0.431319 -0.130480
C51   C     C_R   0.116357 0.395670 0.535407 0.423878
Cu1   Cu    Cu3+1 0.500000 0.499990 0.640660 0.945819
Cu2   Cu    Cu3+1 0.500000 0.500010 0.359340 0.933037
H1    H     H_    0.936621 0.201208 0.596408 0.168696
H2    H     H_    0.563878 0.896752 0.357739 0.136459
H3    H     H_    0.427784 0.374014 0.128098 0.116183
H4    H     H_    0.578623 0.670461 0.257457 0.191572
H5    H     H_    0.677093 0.734378 0.904535 0.139056
H6    H     H_    0.427445 0.375055 0.871129 0.106491
H7    H     H_    0.957125 0.804205 0.404277 0.165506
H8    H     H_    0.216130 0.497108 0.724714 0.129096
H9    H     H_    0.320284 0.495678 0.725242 0.123203
H10   H     H_    0.320439 0.505147 0.276120 0.129520
H11   H     H_    0.216300 0.506543 0.278140 0.130414
H12   H     H_    0.678763 0.490578 0.274954 0.131628
H13   H     H_    0.031714 0.145015 0.707486 0.235520
H14   H     H_    0.030090 0.100477 0.539008 0.244001
H15   H     H_    0.780997 0.568773 0.183189 0.249255
H16   H     H_    0.776229 0.411547 0.189937 0.231071
H17   H     H_    0.680215 0.504503 0.723416 0.136476
H18   H     H_    0.784310 0.507340 0.720892 0.129456
H19   H     H_    0.564361 0.122435 0.357834 0.139792
H20   H     H_    0.404652 0.215231 0.649075 0.127625
H21   H     H_    0.333085 0.089345 0.779583 0.126796
H22   H     H_    0.333013 0.859862 0.780783 0.127749
H23   H     H_    0.404555 0.755682 0.651601 0.140122
N1    N     N_R   0.851876 0.502143 0.498526 -0.377535
N2    N     N_R   0.148353 0.502507 0.501791 -0.413146
N3    N     N_R   0.500540 0.501210 0.147910 -0.241824
N4    N     N_R   0.500560 0.501290 0.852040 -0.241745
N5    N     N_3   0.045790 0.170163 0.607711 -0.531379
N6    N     N_1   0.712587 0.808629 0.241716 -0.240948
N7    N     N_1   0.607410 0.769471 0.637425 -0.298805
N8    N     N_1   0.091453 0.932736 0.362979 -0.224484
N9    N     N_3   0.791157 0.492491 0.242727 -0.583598
O1    O     O_R   0.500000 0.319640 0.618810 -0.499213
O2    O     O_R   0.582120 0.500020 0.618760 -0.495826
O3    O     O_R   0.582120 0.500050 0.381190 -0.523473
O4    O     O_2   0.858043 0.712945 0.433029 -0.466502
O5    O     O_2   0.843624 0.291531 0.564809 -0.482518
O6    O     O_2   0.142985 0.292677 0.566721 -0.432215
O7    O     O_2   0.158406 0.712150 0.437302 -0.468793
O8    O     O_R   0.500000 0.319660 0.381240 -0.496380
O9    O     O_R   0.417880 0.499950 0.618810 -0.526721
O10   O     O_R   0.417880 0.499980 0.381240 -0.502912
O11   O     O_R   0.500000 0.680340 0.618760 -0.494905
O12   O     O_R   0.500000 0.680360 0.381190 -0.523387

loop_
_geom_bond_atom_site_label_1
_geom_bond_atom_site_label_2
_ccdc_geom_bond_type
C10   N9    S    
H15   N9    S    
C22   C29   A    
C27   C29   A    
C26   H19   S    
C41   C42   A    
C19   C20   A    
C32   H5    S    
C7    C8    A    
C47   C49   S    
C37   N3    A    
C12   C23   A    
C34   C51   A    
C37   C38   A    
C3    C9    A    
C39   N1    A    
C21   C22   A    
Cu2   N3    S    
C44   N6    T    
C30   C31   A    
C27   H2    S    
C16   O12   A    
Cu2   O10   S    
C10   C17   A    
Cu1   O2    S    
C30   H4    S    
C35   N4    A    
C18   C19   A    
C51   O6    S    
C37   H3    S    
C35   C36   A    
C8    C9    A    
C28   O3    A    
C13   C28   S    
Cu1   O9    S    
C13   C14   A    
C1    C25   S    
C33   C46   S    
C14   H17   S    
C3    H8    S    
C16   O11   A    
C31   C44   S    
Cu2   O8    S    
C24   C25   A    
C4    C6    S    
C39   C43   A    
C2    C48   A    
C25   C26   A    
C46   N7    T    
C20   H22   S    
C42   C45   A    
C12   C41   A    
C2    N2    A    
C4    O10   A    
C31   C32   A    
C21   H23   S    
C23   C34   A    
C28   O2    A    
C17   N1    S    
C26   C27   A    
C34   C45   A    
C47   N8    T    
C2    O7    S    
C7    H10   S    
C8    H11   S    
C4    O9    A    
C40   C41   A    
H14   N5    S    
C18   H20   S    
C18   C24   A    
C42   C43   A    
H16   N9    S    
Cu1   Cu2   S    
C45   C48   A    
C1    O1    A    
C15   C17   A    
C48   C49   A    
C23   N5    S    
C14   C15   A    
C19   H21   S    
C3    C5    A    
C36   N3    A    
C43   C50   A    
C6    C7    A    
C15   H18   S    
C30   C36   A    
C50   H7    S    
C32   C33   A    
Cu1   O1    S    
C16   C29   S    
C51   N2    A    
H13   N5    S    
C11   C13   A    
C5    C6    A    
C38   N4    A    
C33   C35   A    
Cu2   O12   S    
C5    H9    S    
Cu1   O11   S    
Cu2   O3    S    
C22   C24   A    
C9    N2    S    
C10   C11   A    
C38   H6    S    
C20   C21   A    
C1    O8    A    
C49   C50   A    
C40   N1    A    
C40   O5    S    
Cu1   N4    S    
C39   O4    S    
C12   H1    S    
C11   H12   S    
