data_mof_unit_17842.cif
_audit_creation_date              2012-12-11T17:23:17-0500
_audit_creation_method            fapswitch 2.2
_symmetry_space_group_name_H-M    P1
_symmetry_Int_Tables_number       1
_space_group_crystal_system       triclinic
_cell_length_a                    22.440842
_cell_length_b                    7.104799
_cell_length_c                    19.37429
_cell_angle_alpha                 90.025639
_cell_angle_beta                  99.515562
_cell_angle_gamma                 89.985029
_cell_volume                      3046.489081

loop_
_atom_site_label
_atom_site_type_symbol
_atom_type_description
_atom_site_fract_x
_atom_site_fract_y
_atom_site_fract_z
_atom_type_partial_charge
O1    O     O_R   0.443980 0.494320 0.557430 -0.536808
O2    O     O_R   0.556020 0.994320 0.442570 -0.536867
O3    O     O_R   0.441210 0.822520 0.414610 -0.536305
O4    O     O_R   0.558790 0.322520 0.585390 -0.536435
C1    C     C_R   0.426841 0.654560 0.388692 0.758781
C2    C     C_R   0.573146 0.154607 0.611318 0.761752
O5    O     O_R   0.436920 0.823940 0.555180 -0.535161
O6    O     O_R   0.563080 0.323940 0.444820 -0.535340
O7    O     O_R   0.551700 0.995760 0.584140 -0.541875
O8    O     O_R   0.448300 0.495760 0.415860 -0.542062
C3    C     C_R   0.421555 0.655419 0.574746 0.737675
C4    C     C_R   0.578445 0.155338 0.425241 0.737436
O9    O     O_3   0.537660 0.661290 0.509340 -0.376385
O10   O     O_3   0.462340 0.161290 0.490660 -0.376440
V1    V     V_3+5 0.493010 0.935560 0.498270 1.429616
V2    V     V_3+5 0.506990 0.435560 0.501730 1.429316
H1    H     H_    0.683706 0.834296 0.265368 0.113782
H2    H     H_    0.310584 0.325098 0.726272 0.126486
C5    C     C_R   0.756045 0.936629 0.213709 0.214848
C6    C     C_R   0.241145 0.428762 0.781378 0.218395
C7    C     C_R   0.793770 0.091212 0.205301 0.116666
C8    C     C_R   0.206210 0.587502 0.794601 0.083718
C9    C     C_R   0.787783 0.257920 0.242543 -0.206095
C10   C     C_R   0.215479 0.759371 0.762078 -0.172725
H3    H     H_    0.816637 0.377242 0.237068 0.133190
H4    H     H_    0.189185 0.882002 0.771265 0.162993
C11   C     C_R   0.744665 0.272421 0.287202 -0.158764
C12   C     C_R   0.258564 0.775256 0.717450 -0.141707
H5    H     H_    0.740849 0.402903 0.315105 0.126460
H6    H     H_    0.264835 0.909695 0.693268 0.139460
C13   C     C_R   0.706860 0.119965 0.295725 0.105569
C14   C     C_R   0.293183 0.619129 0.704200 0.075500
C15   C     C_R   0.712784 0.952530 0.258897 -0.189937
C16   C     C_R   0.284129 0.446795 0.736279 -0.151271
C17   C     C_1   0.838753 0.080263 0.158883 -0.015995
C18   C     C_1   0.161164 0.578441 0.841014 -0.047091
C19   C     C_1   0.661932 0.134895 0.341943 -0.037622
C20   C     C_1   0.338070 0.634956 0.657998 -0.035945
C21   C     C_1   0.624124 0.145562 0.380164 -0.172915
C22   C     C_1   0.375872 0.645808 0.619795 -0.170667
C23   C     C_1   0.876421 0.071383 0.120465 -0.174409
C24   C     C_1   0.123495 0.570782 0.879454 -0.166313
C25   C     C_R   0.632269 0.048255 0.799608 -0.146497
C26   C     C_R   0.367866 0.546815 0.200474 -0.175790
H7    H     H_    0.545413 0.055099 0.734877 0.135312
H8    H     H_    0.454693 0.555082 0.265215 0.131772
H9    H     H_    0.612353 0.008087 0.844654 0.166101
H10   H     H_    0.388136 0.507190 0.155688 0.132665
C27   C     C_R   0.615732 0.138472 0.678017 -0.149583
C28   C     C_R   0.384289 0.638213 0.321972 -0.152598
C29   C     C_R   0.913789 0.100645 0.760507 0.378378
C30   C     C_R   0.086235 0.601982 0.239477 0.383417
C31   C     C_R   0.877990 0.099875 0.694547 -0.296242
C32   C     C_R   0.122035 0.601344 0.305449 -0.295606
C33   C     C_R   0.815088 0.088271 0.686480 0.463209
C34   C     C_R   0.184927 0.588839 0.313538 0.464529
C35   C     C_R   0.785206 0.095202 0.746269 -0.041741
C36   C     C_R   0.214821 0.594731 0.253748 -0.041490
C37   C     C_R   0.822590 0.075042 0.813506 -0.095100
C38   C     C_R   0.177395 0.574298 0.186543 -0.123558
C39   C     C_R   0.720306 0.108416 0.742419 -0.059838
C40   C     C_R   0.279758 0.607225 0.257569 -0.043492
C41   C     C_R   0.695299 0.064990 0.803752 0.063261
C42   C     C_R   0.304767 0.562492 0.196274 0.026507
C43   C     C_R   0.733122 0.038231 0.868708 0.209074
C44   C     C_R   0.266496 0.534575 0.131465 0.199703
C45   C     C_R   0.795642 0.049959 0.873139 -0.166051
C46   C     C_R   0.204324 0.547651 0.127014 -0.109853
C47   C     C_R   0.678480 0.165311 0.681254 0.440209
C48   C     C_R   0.321541 0.664928 0.318661 0.440700
C49   C     C_R   0.593468 0.077214 0.737000 -0.274088
C50   C     C_R   0.406607 0.576700 0.263060 -0.249389
C51   C     C_R   0.886784 0.076596 0.820091 -0.174064
C52   C     C_R   0.113216 0.576770 0.179922 -0.175044
H11   H     H_    0.899542 0.099442 0.648466 0.164478
H12   H     H_    0.100479 0.601671 0.351527 0.163855
H13   H     H_    0.823368 0.033959 0.924110 0.096379
H14   H     H_    0.176944 0.529968 0.075876 0.118362
O11   O     O_R   0.051730 0.724670 0.084120 -0.538251
O12   O     O_R   0.948270 0.224670 0.915880 -0.538886
O13   O     O_R   0.063080 0.393540 0.944820 -0.537884
O14   O     O_R   0.936920 0.893540 0.055180 -0.535261
C53   C     C_R   0.078092 0.562000 0.924826 0.705414
C54   C     C_R   0.921875 0.062107 0.075142 0.701344
O15   O     O_R   0.058800 0.395030 0.085390 -0.540137
O16   O     O_R   0.941200 0.895030 0.914610 -0.539845
O17   O     O_R   0.943980 0.223310 0.057440 -0.528697
O18   O     O_R   0.056020 0.723310 0.942560 -0.528629
C55   C     C_R   0.072686 0.564173 0.111375 0.766330
C56   C     C_R   0.927334 0.064131 0.888617 0.770729
O19   O     O_3   0.962360 0.556290 0.990650 -0.372890
O20   O     O_3   0.037640 0.056290 0.009350 -0.373649
V3    V     V_3+5 0.006980 0.281990 0.001730 1.454309
V4    V     V_3+5 0.993020 0.781990 0.998270 1.457715
O21   O     O_3   0.785287 0.056568 0.619353 -0.513367
C57   C     C_3   0.771387 0.863779 0.611873 -0.184427
H15   H     H_    0.739077 0.821427 0.646725 0.108543
H16   H     H_    0.812884 0.775277 0.622052 0.116681
H17   H     H_    0.749283 0.837837 0.557141 0.160934
O22   O     O_3   0.214677 0.557123 0.380683 -0.513418
C58   C     C_3   0.228465 0.364254 0.388175 -0.183434
H18   H     H_    0.260817 0.321603 0.353402 0.107096
H19   H     H_    0.186925 0.276005 0.377900 0.116863
H20   H     H_    0.250473 0.338291 0.442935 0.161988
N1    N     N_3   0.761521 0.765098 0.175925 -0.660717
H21   H     H_    0.803982 0.707893 0.194930 0.221217
H22   H     H_    0.729597 0.666596 0.186467 0.228392
N2    N     N_3   0.234240 0.247533 0.812097 -0.688513
H23   H     H_    0.198312 0.245381 0.840081 0.238567
H24   H     H_    0.273507 0.220711 0.847944 0.230966
N3    N     N_3   0.707637 0.002943 0.930968 -0.672656
H25   H     H_    0.741249 0.965638 0.972799 0.240233
H26   H     H_    0.688937 0.129364 0.944936 0.228581
N4    N     N_3   0.289526 0.495882 0.068120 -0.680685
H27   H     H_    0.318115 0.605794 0.058770 0.230409
H28   H     H_    0.314013 0.370111 0.074255 0.227793
O23   O     O_3   0.696911 0.250125 0.624402 -0.527174
C59   C     C_3   0.706959 0.442245 0.639341 -0.191686
H29   H     H_    0.746206 0.463063 0.681927 0.120700
H30   H     H_    0.665978 0.512291 0.652845 0.121109
H31   H     H_    0.717565 0.510639 0.591468 0.151577
O24   O     O_3   0.303045 0.750391 0.375382 -0.527368
C60   C     C_3   0.293153 0.942479 0.360290 -0.193189
H32   H     H_    0.253975 0.963294 0.317618 0.119827
H33   H     H_    0.334213 0.012036 0.346826 0.120355
H34   H     H_    0.282520 0.011374 0.408081 0.152689
O25   O     O_3   0.976113 0.101836 0.766548 -0.551801
C61   C     C_3   0.995108 0.286179 0.754171 -0.206983
H35   H     H_    0.979278 0.389387 0.790490 0.129545
H36   H     H_    0.979712 0.328924 0.698875 0.133853
H37   H     H_    0.045229 0.289535 0.763850 0.163681
O26   O     O_3   0.023912 0.604025 0.233416 -0.552327
C62   C     C_3   0.005135 0.788660 0.245815 -0.213579
H38   H     H_    0.021109 0.891544 0.209525 0.131789
H39   H     H_    0.020558 0.831358 0.301123 0.133614
H40   H     H_    0.955019 0.792663 0.236110 0.158215

loop_
_geom_bond_atom_site_label_1
_geom_bond_atom_site_label_2
_ccdc_geom_bond_type
C36   C40   A    
C44   C46   A    
C41   C43   A    
C58   H18   S    
O14   V4    S    
C11   H5    S    
C18   C24   T    
O21   C57   S    
C45   H13   S    
C54   O17   A    
O2    C4    A    
C61   H35   S    
C2    O7    A    
N4    H27   S    
C25   C41   A    
C60   H32   S    
C26   C42   A    
O5    C3    A    
N1    H22   S    
C52   C55   S    
O20   V3    S    
C5    C7    A    
C10   H4    S    
C51   C56   S    
C30   C52   A    
C60   H33   S    
H7    C49   S    
C36   C38   A    
C57   H17   S    
N2    H23   S    
C40   C48   A    
C38   C52   A    
C39   C41   A    
C28   C50   A    
C59   H29   S    
C43   N3    S    
C40   C42   A    
O16   V4    S    
C37   C45   A    
O15   V3    S    
N3    H25   S    
N2    H24   S    
O26   C62   S    
C43   C45   A    
C57   H16   S    
C62   H40   S    
C13   C15   A    
C9    C11   A    
C37   C51   A    
H8    C50   S    
C6    C16   A    
O5    V1    S    
C53   O18   A    
C58   H19   S    
C27   C47   A    
O12   C56   A    
C31   H11   S    
H1    C15   S    
O13   C53   A    
C30   C32   A    
O18   V4    S    
O24   C60   S    
C31   C33   A    
C46   H14   S    
C32   C34   A    
C11   C13   A    
C30   O26   S    
C29   C51   A    
C12   C14   A    
O11   V4    S    
C33   O21   S    
O16   C56   A    
O15   C55   A    
C60   H34   S    
C23   C54   S    
C13   C19   S    
C29   C31   A    
C59   H31   S    
C42   C44   A    
O4    V2    S    
O19   V3    S    
O13   V3    S    
C48   O24   S    
O6    C4    A    
C57   H15   S    
O20   V4    S    
N3    H26   S    
O1    V2    S    
O2    V1    S    
H2    C16   S    
C32   H12   S    
C5    N1    S    
O4    C2    A    
C6    C8    A    
C58   H20   S    
C14   C20   S    
C7    C9    A    
C5    C15   A    
C62   H38   S    
C8    C10   A    
C1    C28   S    
C34   O22   S    
O25   C61   S    
C61   H37   S    
O3    V1    S    
C39   C47   A    
C25   C49   A    
C44   N4    S    
C24   C53   S    
C10   C12   A    
O3    C1    A    
C61   H36   S    
N4    H28   S    
C35   C39   A    
C7    C17   S    
C8    C18   S    
N1    H21   S    
O14   C54   A    
C29   O25   S    
C4    C21   S    
C33   C35   A    
O7    V1    S    
C12   H6    S    
C19   C21   T    
O8    V2    S    
O23   C59   S    
O19   V4    S    
C20   C22   T    
O17   V3    S    
C47   O23   S    
O22   C58   S    
C34   C36   A    
C26   C50   A    
C9    H3    S    
C2    C27   S    
C28   C48   A    
C3    C22   S    
C17   C23   T    
C59   H30   S    
O11   C55   A    
C35   C37   A    
C1    O8    A    
C38   C46   A    
O6    V2    S    
C27   C49   A    
O9    V2    S    
C62   H39   S    
O10   V1    S    
O1    C3    A    
O12   V3    S    
C25   H9    S    
C26   H10   S    
C14   C16   A    
C6    N2    S    
