data_mof_unit_15509.cif
_audit_creation_date              2013-03-05T15:40:11-0500
_audit_creation_method            fapswitch 2.2
_symmetry_space_group_name_H-M    P1
_symmetry_Int_Tables_number       1
_space_group_crystal_system       triclinic
_cell_length_a                    7.778151
_cell_length_b                    8.58656
_cell_length_c                    10.396737
_cell_angle_alpha                 88.607656
_cell_angle_beta                  97.640435
_cell_angle_gamma                 93.47586
_cell_volume                      686.849484767

loop_
_atom_site_label
_atom_site_type_symbol
_atom_site_description
_atom_site_fract_x
_atom_site_fract_y
_atom_site_fract_z
_atom_type_partial_charge
O1    O     O_R   0.391630 0.738350 0.508060 -0.602284
O2    O     O_R   0.608370 0.261650 0.491940 -0.615413
O3    O     O_R   0.674540 0.711990 0.487010 -0.613432
O4    O     O_R   0.325460 0.288010 0.512990 -0.629926
C1    C     C_R   0.544906 0.794844 0.497327 0.994401
C2    C     C_R   0.455331 0.205126 0.503512 0.930553
O5    O     O_R   0.411370 0.508250 0.688780 -0.589257
O6    O     O_R   0.588630 0.491750 0.311220 -0.587379
O7    O     O_R   0.694270 0.481880 0.667740 -0.590168
O8    O     O_R   0.305730 0.518120 0.332260 -0.585099
C3    C     C_R   0.569159 0.487949 0.738443 0.847912
C4    C     C_R   0.428781 0.500466 0.261593 0.850974
Zn1   Zn    Zn3+2 0.311100 0.517600 0.514050 1.019747
Zn2   Zn    Zn3+2 0.688900 0.482400 0.485950 1.017305
C5    C     C_2   0.598078 0.457920 0.878548 0.095620
C6    C     C_2   0.390218 0.476538 0.121566 0.102079
C7    C     C_2   0.483826 0.356562 0.931212 -0.101676
C8    C     C_2   0.465869 0.358112 0.069276 -0.100441
C9    C     C_2   0.568892 0.958181 0.496897 -0.333774
C10   C     C_2   0.431841 0.041745 0.505829 -0.334263
H1    H     H_    0.698497 0.009211 0.488619 0.188901
H2    H     H_    0.302281 0.990740 0.514288 0.191638
N1    N     N_2   0.940600 0.458860 0.467170 -0.150459
N2    N     N_2   0.059400 0.541140 0.532830 -0.148167
H3    H     H_    0.985166 0.382561 0.406051 0.208464
H4    H     H_    0.014819 0.617382 0.593987 0.221692
C11   C     C_1   0.540625 0.230473 0.147389 0.252914
N3    N     N_1   0.600586 0.128280 0.208827 -0.159263
C12   C     C_1   0.368089 0.245780 0.853443 0.259076
N4    N     N_1   0.275524 0.157176 0.792078 -0.151684
N5    N     N_R   0.289173 0.587963 0.042876 0.231788
O9    O     O_R   0.266219 0.723093 0.089951 -0.338781
O10   O     O_R   0.203493 0.549288 0.930984 -0.332943
N6    N     N_R   0.734054 0.548211 0.956825 0.228485
O11   O     O_R   0.802127 0.675572 0.909292 -0.329141
O12   O     O_R   0.804478 0.495188 0.068623 -0.348000

loop_
_geom_bond_atom_site_label_1
_geom_bond_atom_site_label_2
_geom_bond_distance
_ccdc_geom_bond_type
Zn2   N1    2.015776 S    
O7    Zn2   1.884825 S    
N5    O10   1.301342 A    
C12   N4    1.157264 T    
C1    C9    1.403582 S    
C2    C10   1.403740 S    
C5    N6    1.443733 S    
C9    C10   1.334972 D    
O6    C4    1.287051 A    
N1    N2    1.263154 D    
C7    C8    1.461011 S    
C6    N5    1.443802 S    
O5    C3    1.286980 A    
O7    C3    1.299334 A    
O2    C2    1.277563 A    
O3    Zn2   1.981678 S    
O8    C4    1.299548 A    
O1    C1    1.277393 A    
C6    C8    1.363926 D    
C9    H1    1.087801 S    
N2    H4    1.029309 S    
N6    O12   1.301368 A    
N1    H3    1.029316 S    
O2    Zn2   1.962078 S    
O1    Zn1   1.962079 S    
C4    C6    1.463751 S    
O5    Zn1   1.881113 S    
C7    C12   1.452240 S    
O4    C2    1.285956 A    
N6    O11   1.301393 A    
C11   N3    1.157009 T    
C5    C7    1.363605 D    
O6    Zn2   1.881113 S    
C3    C5    1.463055 S    
N5    O9    1.301407 A    
C8    C11   1.451647 S    
O4    Zn1   1.981679 S    
Zn1   N2    2.015775 S    
C10   H2    1.087770 S    
O3    C1    1.285995 A    
O8    Zn1   1.884828 S    
