data_mof_unit_33110.cif
_audit_creation_date              2012-12-10T17:10:26-0500
_audit_creation_method            fapswitch 2.2
_symmetry_space_group_name_H-M    P1
_symmetry_Int_Tables_number       1
_space_group_crystal_system       triclinic
_cell_length_a                    10.876829
_cell_length_b                    12.991346
_cell_length_c                    11.678846
_cell_angle_alpha                 99.559199
_cell_angle_beta                  93.461293
_cell_angle_gamma                 92.475197
_cell_volume                      1622.01635205

loop_
_atom_site_label
_atom_site_type_symbol
_atom_type_description
_atom_site_fract_x
_atom_site_fract_y
_atom_site_fract_z
_atom_type_partial_charge
C1    C     C_R   0.502054 0.299299 0.478780 0.805377
C2    C     C_R   0.497725 0.700693 0.521304 0.805610
C3    C     C_R   0.493900 0.813983 0.533691 -0.068250
C4    C     C_R   0.504646 0.185976 0.466831 -0.065905
C5    C     C_R   0.497006 0.015596 0.345080 -0.220588
C6    C     C_R   0.501335 0.984294 0.655753 -0.222674
C7    C     C_R   0.503009 0.123803 0.356254 -0.196119
C8    C     C_R   0.498888 0.876053 0.644565 -0.217073
C9    C     C_R   0.504917 0.139317 0.566609 -0.291068
C10   C     C_R   0.488970 0.860760 0.434016 -0.265663
C11   C     C_R   0.500553 0.031156 0.556240 0.175054
C12   C     C_R   0.494997 0.968864 0.444529 0.175558
C13   C     C_R   0.363279 0.419663 0.025175 -0.342174
C14   C     C_R   0.636282 0.580836 0.974639 -0.342362
C15   C     C_R   0.378053 0.426359 0.146691 0.081978
C16   C     C_R   0.620344 0.576038 0.853416 0.091144
C17   C     C_R   0.563069 0.530284 0.154376 0.016511
C18   C     C_R   0.438393 0.467202 0.844781 0.023429
C19   C     C_R   0.550802 0.527748 0.032442 0.068001
C20   C     C_R   0.449865 0.470964 0.966925 0.070513
C21   C     C_R   0.262483 0.491016 0.499577 0.865098
C22   C     C_R   0.737517 0.508949 0.500506 0.864061
C23   C     C_R   0.098478 0.297384 0.474132 0.240534
C24   C     C_R   0.900672 0.701247 0.512400 0.241881
C25   C     C_R   0.022445 0.210736 0.487337 -0.184640
C26   C     C_R   0.979418 0.791182 0.544133 -0.184373
C27   C     C_R   0.898832 0.221242 0.504706 -0.189397
C28   C     C_R   0.105059 0.783218 0.562327 -0.188993
C29   C     C_R   0.849031 0.317805 0.506841 -0.144958
C30   C     C_R   0.154024 0.685615 0.546730 -0.146080
C31   C     C_R   0.923808 0.408338 0.499196 0.025958
C32   C     C_R   0.077211 0.592593 0.519224 0.026298
C33   C     C_R   0.052241 0.399791 0.490123 0.030986
C34   C     C_R   0.947681 0.599762 0.509042 0.030972
C35   C     C_R   0.871493 0.506294 0.499757 -0.169771
C36   C     C_R   0.128512 0.493405 0.501061 -0.170533
Cu1   Cu    Cu3+1 0.509250 0.507730 0.615930 0.938001
Cu2   Cu    Cu3+1 0.490750 0.492270 0.384070 0.952513
H1    H     H_    0.165449 0.853125 0.584399 0.153520
H2    H     H_    0.840160 0.153470 0.512069 0.152724
H3    H     H_    0.284002 0.375700 0.977516 0.138287
H4    H     H_    0.714710 0.625784 0.022661 0.137126
H5    H     H_    0.058537 0.133572 0.478116 0.136078
H6    H     H_    0.943156 0.868060 0.549143 0.135181
H7    H     H_    0.751294 0.320384 0.516479 0.139337
H8    H     H_    0.252939 0.684448 0.558550 0.138901
H9    H     H_    0.482619 0.813361 0.348046 0.150809
H10   H     H_    0.507166 0.186876 0.652386 0.158653
H11   H     H_    0.501800 0.841115 0.722606 0.163400
H12   H     H_    0.504832 0.158638 0.278294 0.155386
H13   H     H_    0.494222 0.968606 0.259020 0.134918
H14   H     H_    0.505348 0.031225 0.741905 0.137392
H15   H     H_    0.362247 0.422105 0.793277 0.120801
H16   H     H_    0.641133 0.572156 0.204818 0.124360
H17   H     H_    0.686810 0.617176 0.809770 0.127317
H18   H     H_    0.309293 0.388783 0.190462 0.131079
N1    N     N_R   0.523180 0.519350 0.790130 -0.183007
N2    N     N_R   0.476820 0.480650 0.209870 -0.180342
O1    O     O_R   0.506570 0.354460 0.582000 -0.592153
O2    O     O_R   0.493430 0.645540 0.418000 -0.577014
O3    O     O_R   0.490940 0.341410 0.386200 -0.581409
O4    O     O_R   0.509060 0.658590 0.613800 -0.595407
O5    O     O_R   0.327470 0.506520 0.597900 -0.596322
O6    O     O_R   0.672530 0.493480 0.402100 -0.568558
O7    O     O_R   0.311840 0.493460 0.402100 -0.571090
O8    O     O_R   0.688160 0.506540 0.597900 -0.597825
N3    N     N_2   0.215580 0.277506 0.431297 -0.437397
H19   H     H_    0.263085 0.229126 0.477548 0.241230
C37   C     C_3   0.207911 0.237249 0.307587 -0.676655
H20   H     H_    0.162407 0.157406 0.289408 0.215824
H21   H     H_    0.301503 0.232584 0.275624 0.229920
H22   H     H_    0.154610 0.289274 0.259076 0.224511
N4    N     N_2   0.778474 0.714955 0.471071 -0.435805
H23   H     H_    0.737492 0.771809 0.525986 0.241314
C38   C     C_3   0.771390 0.735507 0.352789 -0.682125
H24   H     H_    0.673833 0.737391 0.321001 0.226835
H25   H     H_    0.815582 0.673413 0.294529 0.226264
H26   H     H_    0.818055 0.812533 0.348734 0.215087

loop_
_geom_bond_atom_site_label_1
_geom_bond_atom_site_label_2
_ccdc_geom_bond_type
C27   C29   A    
N4    H23   S    
C19   C20   A    
C25   H5    S    
C13   H3    S    
Cu1   O4    S    
C26   H6    S    
C21   C36   S    
C22   C35   S    
C32   C36   A    
C24   C26   A    
C1    O1    A    
C2    O2    A    
C24   N4    S    
C33   C36   A    
C34   C35   A    
C23   N3    S    
C37   H21   S    
C22   O8    A    
C18   H15   S    
Cu2   N2    S    
C23   C33   A    
C31   C33   A    
C17   N2    A    
C14   H4    S    
Cu2   O3    S    
N4    C38   S    
C4    C7    A    
Cu1   O5    S    
Cu2   O6    S    
N3    H19   S    
C5    C12   A    
C3    C8    A    
C6    C11   A    
C5    C7    A    
C6    C8    A    
C28   H1    S    
C24   C34   A    
C29   H7    S    
N3    C37   S    
C32   C34   A    
C37   H22   S    
C38   H24   S    
Cu1   Cu2   S    
C9    C11   A    
C18   N1    A    
Cu2   O7    S    
C27   H2    S    
Cu1   O8    S    
C38   H25   S    
Cu1   O1    S    
C10   C12   A    
Cu2   O2    S    
C13   C15   A    
C15   N2    A    
C14   C16   A    
C13   C20   A    
C21   O7    A    
C14   C19   A    
C30   H8    S    
C7    H12   S    
C1    O3    A    
C11   C12   A    
C25   C27   A    
C26   C28   A    
C1    C4    S    
C15   H18   S    
C28   C30   A    
C2    C3    S    
C16   H17   S    
C29   C31   A    
C3    C10   A    
C30   C32   A    
C17   H16   S    
C31   C35   A    
C17   C19   A    
C18   C20   A    
C16   N1    A    
C23   C25   A    
C37   H20   S    
C38   H26   S    
C21   O5    A    
C22   O6    A    
C9    H10   S    
C10   H9    S    
C5    H13   S    
C6    H14   S    
C4    C9    A    
C8    H11   S    
Cu1   N1    S    
C2    O4    A    
