data_mof_unit_37131.cif
_audit_creation_date              2012-12-10T17:57:49-0500
_audit_creation_method            fapswitch 2.2
_symmetry_space_group_name_H-M    P1
_symmetry_Int_Tables_number       1
_space_group_crystal_system       triclinic
_cell_length_a                    10.831194
_cell_length_b                    9.516885
_cell_length_c                    15.05652
_cell_angle_alpha                 89.659921
_cell_angle_beta                  90.33855
_cell_angle_gamma                 89.956254
_cell_volume                      1551.95952694

loop_
_atom_site_label
_atom_site_type_symbol
_atom_type_description
_atom_site_fract_x
_atom_site_fract_y
_atom_site_fract_z
_atom_type_partial_charge
C1    C     C_R   0.262058 0.500028 0.500004 0.793648
C2    C     C_R   0.737942 0.499972 0.499996 0.793654
C3    C     C_R   0.333432 0.332280 0.051205 -0.214808
C4    C     C_R   0.666572 0.667709 0.948795 -0.214804
C5    C     C_R   0.063995 0.372441 0.504057 -0.162324
C6    C     C_R   0.936005 0.627559 0.495943 -0.162320
C7    C     C_R   0.936272 0.372405 0.503997 -0.163726
C8    C     C_R   0.063728 0.627595 0.496003 -0.163726
C9    C     C_R   0.871779 0.499963 0.499954 -0.014387
C10   C     C_R   0.128221 0.500037 0.500046 -0.014388
C11   C     C_R   0.422125 0.074998 0.445389 -0.018162
C12   C     C_R   0.577875 0.925002 0.554611 -0.018161
C13   C     C_R   0.577855 0.073854 0.554623 -0.027026
C14   C     C_R   0.422145 0.926146 0.445377 -0.027030
C15   C     C_R   0.503840 0.500531 0.328965 0.808495
C16   C     C_R   0.496160 0.499468 0.671035 0.808483
C17   C     C_R   0.577835 0.581253 0.812524 -0.237603
C18   C     C_R   0.422168 0.418738 0.187476 -0.237603
C19   C     C_R   0.492183 0.498085 0.767573 -0.132839
C20   C     C_R   0.507817 0.501915 0.232427 -0.132834
C21   C     C_R   0.403315 0.418541 0.814442 -0.049052
C22   C     C_R   0.596683 0.581464 0.185557 -0.049049
C23   C     C_R   0.407991 0.416595 0.908417 0.089265
C24   C     C_R   0.592010 0.583403 0.091583 0.089259
C25   C     C_R   0.497112 0.499945 0.953213 0.040127
C26   C     C_R   0.502890 0.500050 0.046786 0.040129
C27   C     C_R   0.580624 0.583410 0.904682 0.114203
C28   C     C_R   0.419379 0.416582 0.095318 0.114204
C29   C     C_R   0.328278 0.331246 0.958973 -0.153985
C30   C     C_R   0.671725 0.668747 0.041027 -0.153997
Cu1   Cu    Cu3+1 0.500000 0.640660 0.500000 0.944805
Cu2   Cu    Cu3+1 0.500000 0.359340 0.500000 0.944804
H1    H     H_    0.643678 0.643608 0.775154 0.145069
H2    H     H_    0.356328 0.356378 0.224846 0.145069
H3    H     H_    0.262356 0.261315 0.928199 0.189014
H4    H     H_    0.737648 0.738676 0.071801 0.189012
H5    H     H_    0.270113 0.266347 0.088191 0.151807
H6    H     H_    0.729894 0.733637 0.911809 0.151809
H7    H     H_    0.112154 0.272725 0.507362 0.148200
H8    H     H_    0.887846 0.727275 0.492638 0.148200
H9    H     H_    0.888324 0.272673 0.507279 0.148426
H10   H     H_    0.111675 0.727326 0.492721 0.148426
H11   H     H_    0.359749 0.131577 0.401639 0.119162
H12   H     H_    0.640251 0.868422 0.598361 0.119162
H13   H     H_    0.640208 0.129521 0.598375 0.123518
H14   H     H_    0.359792 0.870479 0.401625 0.123518
N1    N     N_R   0.500000 0.852070 0.500000 -0.161293
N2    N     N_R   0.500000 0.147930 0.500000 -0.161293
O1    O     O_R   0.319640 0.618740 0.499990 -0.585072
O2    O     O_R   0.680360 0.381260 0.500010 -0.585072
O3    O     O_R   0.680360 0.618740 0.500010 -0.597618
O4    O     O_R   0.319640 0.381260 0.499990 -0.597620
O5    O     O_R   0.499970 0.618800 0.370260 -0.602273
O6    O     O_R   0.500030 0.381200 0.629740 -0.602274
O7    O     O_R   0.500030 0.618800 0.629740 -0.571192
O8    O     O_R   0.499970 0.381200 0.370260 -0.571193
C31   C     C_2   0.302782 0.346069 0.764816 0.307569
H15   H     H_    0.323350 0.281464 0.707791 0.107883
O9    O     O_2   0.194945 0.362390 0.785589 -0.539825
C32   C     C_2   0.697212 0.653949 0.235183 0.307575
H16   H     H_    0.676641 0.718573 0.292201 0.107878
O10   O     O_2   0.805050 0.637615 0.214420 -0.539826

loop_
_geom_bond_atom_site_label_1
_geom_bond_atom_site_label_2
_ccdc_geom_bond_type
C13   N2    A    
C21   C31   S    
C14   N1    A    
C25   C27   A    
C18   H2    S    
C6    H8    S    
C29   H3    S    
C14   H14   S    
C26   C28   A    
Cu1   Cu2   S    
C30   H4    S    
C8    H10   S    
C15   O8    A    
C6    C9    A    
C5    H7    S    
C11   N2    A    
C16   O7    A    
C5    C10   A    
C12   H12   S    
Cu1   N1    S    
Cu1   O5    S    
C32   O10   D    
C13   H13   S    
Cu2   N2    S    
Cu2   O2    S    
C31   H15   S    
C17   H1    S    
Cu1   O1    S    
C12   N1    A    
C23   C29   A    
Cu2   O6    S    
C3    C28   A    
C17   C19   A    
C4    H6    S    
C18   C20   A    
C23   C25   A    
C21   C23   A    
C22   C32   S    
C15   C20   S    
C1    O4    A    
C22   C24   A    
C11   H11   S    
C31   O9    D    
C24   C30   A    
C2    O3    A    
C17   C27   A    
C15   O5    A    
C4    C27   A    
C18   C28   A    
C12   C13   A    
C3    H5    S    
C3    C29   A    
C16   O6    A    
Cu1   O3    S    
C11   C14   A    
C5    C7    A    
C7    C9    A    
Cu2   O4    S    
C6    C8    A    
C2    O2    A    
Cu1   O7    S    
C25   C26   A    
C2    C9    S    
C1    O1    A    
Cu2   O8    S    
C8    C10   A    
C4    C30   A    
C1    C10   S    
C24   C26   A    
C7    H9    S    
C20   C22   A    
C32   H16   S    
C19   C21   A    
C16   C19   S    
