data_mof_unit_63317.cif
_audit_creation_date              2012-12-10T19:30:23-0500
_audit_creation_method            fapswitch 2.2
_symmetry_space_group_name_H-M    P1
_symmetry_Int_Tables_number       1
_space_group_crystal_system       triclinic
_cell_length_a                    17.734337
_cell_length_b                    16.433228
_cell_length_c                    19.373168
_cell_angle_alpha                 90.0
_cell_angle_beta                  90.194484
_cell_angle_gamma                 89.999986
_cell_volume                      5645.93638475

loop_
_atom_site_label
_atom_site_type_symbol
_atom_type_description
_atom_site_fract_x
_atom_site_fract_y
_atom_site_fract_z
_atom_type_partial_charge
C1    C     C_R   0.355324 0.499998 0.499929 0.830507
C2    C     C_R   0.644676 0.499998 0.500071 0.830508
C3    C     C_R   0.727400 0.499982 0.500143 -0.112787
C4    C     C_R   0.272600 0.499982 0.499859 -0.112783
C5    C     C_R   0.885392 0.499890 0.500111 0.015101
C6    C     C_R   0.114608 0.499890 0.499895 0.015099
C7    C     C_1   0.966155 0.499837 0.500038 0.081957
C8    C     C_1   0.033845 0.499837 0.499969 0.081956
C9    C     C_R   0.547896 0.828908 0.544092 -0.255979
C10   C     C_R   0.451691 0.171097 0.456284 -0.255245
C11   C     C_R   0.452104 0.828908 0.455908 -0.255979
C12   C     C_R   0.548308 0.171097 0.543716 -0.255245
C13   C     C_R   0.547046 0.743047 0.543313 0.082178
C14   C     C_R   0.452550 0.256957 0.457053 0.084665
C15   C     C_R   0.452954 0.743047 0.456687 0.082178
C16   C     C_R   0.547450 0.256957 0.542947 0.084665
C17   C     C_R   0.500000 0.873068 0.500000 0.139369
C18   C     C_R   0.500000 0.126938 0.500000 0.138441
C19   C     C_1   0.500000 0.962700 0.500000 -0.020938
C20   C     C_1   0.500000 0.037306 0.500000 -0.020795
C21   C     C_R   0.499890 0.500000 0.367160 0.797587
C22   C     C_R   0.500110 0.500000 0.632840 0.797587
C23   C     C_R   0.499805 0.573732 0.254715 -0.176846
C24   C     C_R   0.500453 0.426271 0.745287 -0.176403
C25   C     C_R   0.500195 0.573732 0.745285 -0.176847
C26   C     C_R   0.499546 0.426271 0.254713 -0.176403
C27   C     C_R   0.499790 0.573742 0.182797 -0.144022
C28   C     C_R   0.500466 0.426262 0.817205 -0.144026
C29   C     C_R   0.500210 0.573742 0.817203 -0.144022
C30   C     C_R   0.499534 0.426262 0.182795 -0.144026
C31   C     C_R   0.499698 0.500002 0.146103 0.052322
C32   C     C_R   0.500302 0.500002 0.853897 0.052322
C33   C     C_R   0.499743 0.500001 0.291279 -0.037062
C34   C     C_R   0.500257 0.500001 0.708721 -0.037062
C35   C     C_R   0.500172 0.500002 0.929981 0.416840
C36   C     C_R   0.499828 0.500002 0.070019 0.416840
C37   C     C_R   0.845726 0.569483 0.478475 0.168022
C38   C     C_R   0.154168 0.430357 0.478199 0.169498
C39   C     C_R   0.154274 0.569482 0.521533 0.168021
C40   C     C_R   0.845832 0.430356 0.521802 0.169496
C41   C     C_R   0.767103 0.569425 0.479173 -0.210841
C42   C     C_R   0.232801 0.430509 0.478849 -0.209036
C43   C     C_R   0.232897 0.569425 0.520833 -0.210841
C44   C     C_R   0.767199 0.430509 0.521151 -0.209037
Cu1   Cu    Cu3+1 0.500000 0.580420 0.500000 0.948641
Cu2   Cu    Cu3+1 0.500000 0.419580 0.500000 0.951154
H1    H     H_    0.499895 0.631512 0.281617 0.154174
H2    H     H_    0.500576 0.368491 0.718386 0.154461
H3    H     H_    0.500104 0.631512 0.718383 0.154175
H4    H     H_    0.499424 0.368491 0.281614 0.154461
H5    H     H_    0.499889 0.631603 0.156063 0.158170
H6    H     H_    0.500578 0.368401 0.843940 0.158223
H7    H     H_    0.500111 0.631603 0.843937 0.158170
H8    H     H_    0.499422 0.368401 0.156060 0.158223
H9    H     H_    0.737103 0.623354 0.462373 0.178660
H10   H     H_    0.262728 0.376618 0.462022 0.170874
H11   H     H_    0.262897 0.623354 0.537635 0.178659
H12   H     H_    0.737272 0.376617 0.537974 0.170876
H13   H     H_    0.585751 0.860505 0.578939 0.145788
H14   H     H_    0.413510 0.139500 0.421735 0.146062
H15   H     H_    0.414249 0.860505 0.421061 0.145787
H16   H     H_    0.586489 0.139500 0.578265 0.146062
H17   H     H_    0.584258 0.709886 0.577577 0.125787
H18   H     H_    0.415020 0.290122 0.423079 0.120970
H19   H     H_    0.415742 0.709886 0.422423 0.125787
H20   H     H_    0.584980 0.290122 0.576920 0.120971
N1    N     N_R   0.499917 0.428945 0.034321 -0.233026
N2    N     N_R   0.500082 0.571060 0.965679 -0.233086
N3    N     N_R   0.500083 0.428945 0.965679 -0.233026
N4    N     N_R   0.499918 0.571060 0.034321 -0.233087
N5    N     N_R   0.500000 0.701220 0.500000 -0.172230
N6    N     N_R   0.500000 0.298780 0.500000 -0.170839
O1    O     O_R   0.391260 0.567930 0.500000 -0.584674
O2    O     O_R   0.608740 0.432070 0.500000 -0.582936
O3    O     O_R   0.608740 0.567930 0.500000 -0.584675
O4    O     O_R   0.391260 0.432070 0.500000 -0.582936
O5    O     O_R   0.499990 0.567930 0.400140 -0.587659
O6    O     O_R   0.500010 0.432070 0.599860 -0.587058
O7    O     O_R   0.500010 0.567930 0.599860 -0.587659
O8    O     O_R   0.499990 0.432070 0.400140 -0.587058
I1    I     I_    0.900937 0.676210 0.443375 -0.287251
I2    I     I_    0.098763 0.323558 0.443159 -0.290311
I3    I     I_    0.099063 0.676210 0.556640 -0.287248
I4    I     I_    0.901237 0.323557 0.556840 -0.290310

loop_
_geom_bond_atom_site_label_1
_geom_bond_atom_site_label_2
_ccdc_geom_bond_type
C5    C37   A    
Cu1   N5    S    
C40   I4    S    
C19   C20   T    
C16   N6    A    
Cu2   O4    S    
C36   N1    A    
C7    C8    T    
Cu1   Cu2   S    
C30   H8    S    
C29   H7    S    
C22   O7    A    
C38   C42   A    
C29   C32   A    
C26   H4    S    
C30   C31   A    
C21   C33   S    
C15   H19   S    
Cu1   O1    S    
C9    C13   A    
C41   H9    S    
C42   H10   S    
C11   C15   A    
C11   C17   A    
C12   C16   A    
C27   H5    S    
C23   C33   A    
C6    C38   A    
C23   C27   A    
Cu2   N6    S    
C2    O2    A    
C25   C34   A    
C38   I2    S    
C37   I1    S    
C36   N4    A    
C25   C29   A    
C22   C34   S    
C3    C44   A    
C23   H1    S    
C27   C31   A    
C24   H2    S    
C32   C35   S    
C28   C32   A    
C22   O6    A    
C10   C14   A    
C44   H12   S    
C5    C7    S    
C6    C8    S    
C13   N5    A    
C24   C34   A    
N1    N3    A    
C10   H14   S    
C12   H16   S    
C26   C33   A    
C13   H17   S    
C14   H18   S    
Cu1   O7    S    
C9    C17   A    
C26   C30   A    
C16   H20   S    
C21   O5    A    
Cu2   O2    S    
Cu2   O6    S    
C3    C41   A    
C31   C36   S    
C1    O4    A    
C14   N6    A    
C24   C28   A    
C11   H15   S    
C39   C43   A    
C4    C43   A    
C15   N5    A    
Cu1   O3    S    
C1    C4    S    
C1    O1    A    
C2    C3    S    
C39   I3    S    
Cu2   O8    S    
C28   H6    S    
C4    C42   A    
C35   N2    A    
C10   C18   A    
C21   O8    A    
C17   C19   S    
C18   C20   S    
C37   C41   A    
C25   H3    S    
C43   H11   S    
C40   C44   A    
C35   N3    A    
N2    N4    A    
C5    C40   A    
C12   C18   A    
C6    C39   A    
Cu1   O5    S    
C9    H13   S    
C2    O3    A    
