data_mof_unit_57854.cif
_audit_creation_date              2012-12-10T21:25:09-0500
_audit_creation_method            fapswitch 2.2
_symmetry_space_group_name_H-M    P1
_symmetry_Int_Tables_number       1
_space_group_crystal_system       triclinic
_cell_length_a                    10.833611
_cell_length_b                    17.514373
_cell_length_c                    16.915663
_cell_angle_alpha                 88.825144
_cell_angle_beta                  93.068186
_cell_angle_gamma                 93.539048
_cell_volume                      3198.45453339

loop_
_atom_site_label
_atom_site_type_symbol
_atom_type_description
_atom_site_fract_x
_atom_site_fract_y
_atom_site_fract_z
_atom_type_partial_charge
C1    C     C_R   0.501248 0.352651 0.501419 0.957175
C2    C     C_R   0.478727 0.229229 0.433366 -0.240227
C3    C     C_R   0.474971 0.729063 0.498068 -0.131901
C4    C     C_R   0.489848 0.268243 0.504833 -0.161596
C5    C     C_R   0.495684 0.776416 0.431114 0.147237
C6    C     C_R   0.476778 0.226490 0.577164 0.202145
C7    C     C_R   0.470859 0.853793 0.432820 0.180457
C8    C     C_R   0.441561 0.148037 0.575261 0.172532
C9    C     C_R   0.418038 0.882638 0.499381 -0.032287
C10   C     C_R   0.421007 0.111687 0.501932 -0.033667
C11   C     C_1   0.402902 0.962606 0.501326 -0.072748
C12   C     C_R   0.496879 0.647018 0.499187 0.954996
C13   C     C_1   0.403578 0.030578 0.501475 -0.061468
C14   C     C_R   0.402232 0.456320 0.829705 -0.150321
C15   C     C_R   0.540128 0.565612 0.166230 -0.210883
C16   C     C_R   0.259888 0.502890 0.497692 0.936667
C17   C     C_R   0.740684 0.503496 0.501834 0.933100
C18   C     C_R   0.409547 0.455784 0.745569 0.025411
C19   C     C_R   0.561826 0.557717 0.250213 0.040019
C20   C     C_R   0.576654 0.550359 0.752120 0.274311
C21   C     C_R   0.445897 0.438567 0.250687 0.276581
C22   C     C_R   0.574368 0.550313 0.836542 0.146989
C23   C     C_R   0.873827 0.512147 0.503424 -0.048577
C24   C     C_R   0.442198 0.438295 0.166276 0.098960
C25   C     C_R   0.486183 0.503241 0.875826 -0.034066
C26   C     C_R   0.483633 0.503593 0.123325 -0.038517
C27   C     C_1   0.481706 0.503421 0.963249 -0.007525
C28   C     C_1   0.480463 0.503248 0.035681 -0.042553
C29   C     C_R   0.154103 0.599103 0.223485 -0.029953
C30   C     C_R   0.928552 0.449515 0.785760 -0.094557
C31   C     C_R   0.140928 0.594954 0.307017 0.037759
C32   C     C_R   0.909891 0.444212 0.702189 0.018735
C33   C     C_R   0.097551 0.524385 0.341934 0.048095
C34   C     C_R   0.128452 0.511714 0.494474 -0.031364
C35   C     C_R   0.909779 0.512709 0.655542 0.093950
C36   C     C_R   0.059673 0.462535 0.293019 -0.226769
C37   C     C_R   0.926852 0.583793 0.692578 -0.306819
C38   C     C_R   0.068228 0.467804 0.210989 0.057274
C39   C     C_R   0.955013 0.588506 0.773787 0.097226
C40   C     C_R   0.119703 0.534909 0.177287 -0.302673
C41   C     C_R   0.958111 0.521174 0.819595 -0.224380
C42   C     C_R   0.927720 0.519698 0.429981 -0.228483
C43   C     C_R   0.075401 0.513612 0.567531 -0.223392
C44   C     C_3   0.617104 0.941374 0.368856 -0.730673
C45   C     C_R   0.949541 0.512650 0.573435 0.066666
C46   C     C_3   0.536775 0.071166 0.679282 -0.737602
C47   C     C_2   0.303728 0.409749 0.870267 0.353755
C48   C     C_2   0.579370 0.637480 0.122404 0.364366
C49   C     C_2   0.303720 0.416343 0.701072 0.597244
C50   C     C_2   0.675171 0.599711 0.284299 0.499218
C51   C     C_3   0.635255 0.685663 0.726130 -0.749648
C52   C     C_3   0.288925 0.351628 0.306527 -0.675136
C53   C     C_3   0.746188 0.567992 0.935472 -0.723937
C54   C     C_3   0.289121 0.362442 0.084825 -0.719342
C55   C     C_2   0.201183 0.668351 0.179754 0.362163
C56   C     C_R   0.054215 0.519482 0.423932 0.042726
C57   C     C_2   0.921909 0.382255 0.840529 0.384827
C58   C     C_2   0.163220 0.664154 0.356463 0.374059
C59   C     C_2   0.909730 0.368503 0.663497 0.389924
C60   C     C_2   0.017887 0.404970 0.159268 0.362195
C61   C     C_2   0.987656 0.664249 0.808786 0.418184
C62   C     C_2   0.340533 0.865601 0.637320 0.416703
C63   C     C_2   0.418581 0.114792 0.352361 0.427869
C64   C     C_3   0.449440 0.743562 0.293804 -0.518436
C65   C     C_3   0.625050 0.277719 0.679253 -0.617578
C66   C     C_R   0.394500 0.835619 0.565959 -0.014803
C67   C     C_R   0.440334 0.152015 0.430483 -0.019472
C68   C     C_R   0.423988 0.759200 0.564516 -0.211515
H1    H     H_    0.127615 0.538481 0.113634 0.127382
H2    H     H_    0.624476 0.983795 0.417060 0.240240
H3    H     H_    0.631735 0.972076 0.311736 0.263228
H4    H     H_    0.690774 0.900364 0.379010 0.238747
H5    H     H_    0.349147 0.068908 0.647252 0.234689
H6    H     H_    0.519701 0.046216 0.738847 0.254766
H7    H     H_    0.616127 0.114185 0.685056 0.254231
H8    H     H_    0.560983 0.024760 0.640189 0.236813
H9    H     H_    0.262219 0.432502 0.921039 0.066375
H10   H     H_    0.569779 0.640702 0.058387 0.098543
H11   H     H_    0.210242 0.427434 0.715715 -0.003078
H12   H     H_    0.982040 0.524441 0.882506 0.152943
H13   H     H_    0.753002 0.611709 0.247164 0.072398
H14   H     H_    0.677649 0.594367 0.658015 0.273217
H15   H     H_    0.633155 0.717045 0.668405 0.229420
H16   H     H_    0.712421 0.711915 0.764146 0.249893
H17   H     H_    0.546063 0.692732 0.754020 0.251413
H18   H     H_    0.454948 0.322445 0.265493 0.248841
H19   H     H_    0.277444 0.294619 0.335998 0.233071
H20   H     H_    0.230627 0.350707 0.250832 0.250952
H21   H     H_    0.258094 0.394152 0.347032 0.255943
H22   H     H_    0.614140 0.646431 0.904495 0.231720
H23   H     H_    0.017682 0.410904 0.319277 0.194623
H24   H     H_    0.713126 0.565957 0.996332 0.216898
H25   H     H_    0.833666 0.604075 0.937084 0.275817
H26   H     H_    0.764099 0.508973 0.918215 0.240657
H27   H     H_    0.479547 0.350921 0.092854 0.252145
H28   H     H_    0.297318 0.340295 0.024481 0.252123
H29   H     H_    0.246510 0.418535 0.079547 0.210297
H30   H     H_    0.227594 0.320819 0.116640 0.264642
H31   H     H_    0.247595 0.661692 0.125196 0.101301
H32   H     H_    0.969468 0.385581 0.898632 0.081496
H33   H     H_    0.135263 0.719296 0.334732 0.137512
H34   H     H_    0.932148 0.635658 0.656394 0.144664
H35   H     H_    0.949422 0.320347 0.694515 0.137241
H36   H     H_    0.018901 0.411847 0.095374 0.060146
H37   H     H_    0.976887 0.715876 0.773109 0.076728
H38   H     H_    0.314269 0.924281 0.638553 0.071747
H39   H     H_    0.369630 0.059180 0.347917 0.067261
H40   H     H_    0.625069 0.768601 0.346955 0.256049
H41   H     H_    0.484976 0.779470 0.244113 0.255595
H42   H     H_    0.359252 0.764903 0.308692 0.230102
H43   H     H_    0.432983 0.683714 0.274314 0.230797
H44   H     H_    0.440310 0.242804 0.695769 0.279145
H45   H     H_    0.871109 0.523585 0.375422 0.180445
H46   H     H_    0.644544 0.245275 0.735177 0.239440
H47   H     H_    0.642034 0.339635 0.691272 0.268770
H48   H     H_    0.689948 0.260768 0.634972 0.244717
H49   H     H_    0.132007 0.514554 0.622276 0.150278
H50   H     H_    0.404576 0.722413 0.615182 0.213535
H51   H     H_    0.496909 0.259628 0.379001 0.216605
H52   H     H_    0.425725 0.935835 0.347884 0.234574
N1    N     N_R   0.500030 0.500030 0.707230 -0.171137
N2    N     N_2   0.497090 0.262778 0.651854 -0.255273
N3    N     N_R   0.499970 0.499970 0.292770 -0.137488
N4    N     N_2   0.496103 0.901398 0.365532 -0.306921
N5    N     N_2   0.426638 0.106210 0.647738 -0.312406
N6    N     N_2   0.656511 0.605770 0.714506 -0.291019
N7    N     N_2   0.417352 0.368237 0.290678 -0.277982
N8    N     N_2   0.657049 0.601955 0.880639 -0.286304
N9    N     N_2   0.409757 0.368522 0.126119 -0.298173
N10   N     N_2   0.538473 0.746325 0.360938 -0.263070
O1    O     O_R   0.500000 0.389130 0.566570 -0.541314
O2    O     O_2   0.618475 0.695258 0.156903 -0.583310
O3    O     O_2   0.317416 0.367562 0.652831 -0.558984
O4    O     O_2   0.685050 0.622625 0.351635 -0.571148
O5    O     O_2   0.183689 0.732836 0.200593 -0.589991
O6    O     O_2   0.858648 0.324219 0.823631 -0.580181
O7    O     O_2   0.212344 0.660405 0.422868 -0.600915
O8    O     O_2   0.866394 0.358999 0.596066 -0.600590
O9    O     O_2   0.974155 0.345002 0.187096 -0.553763
O10   O     O_2   0.028711 0.670077 0.877182 -0.574729
O11   O     O_2   0.324452 0.824957 0.695860 -0.568004
O12   O     O_R   0.500000 0.610870 0.433430 -0.525277
O13   O     O_2   0.453348 0.146417 0.291756 -0.559804
O14   O     O_R   0.499990 0.389100 0.433480 -0.613189
O15   O     O_R   0.500010 0.610900 0.566520 -0.663004
O16   O     O_R   0.316760 0.500020 0.566540 -0.633382
O17   O     O_R   0.683240 0.499980 0.433460 -0.595445
O18   O     O_R   0.316760 0.499990 0.433460 -0.621211
O19   O     O_R   0.683240 0.500010 0.566540 -0.649641
O20   O     O_2   0.270144 0.345348 0.848574 -0.562759
Zn1   Zn    Zn3+2 0.500010 0.500020 0.588860 0.978537
Zn2   Zn    Zn3+2 0.499990 0.499980 0.411140 1.014127

loop_
_geom_bond_atom_site_label_1
_geom_bond_atom_site_label_2
_ccdc_geom_bond_type
C66   C68   A    
C60   O9    D    
C34   C56   A    
C23   C45   A    
C65   H46   S    
C14   C18   A    
C46   N5    S    
O1    Zn1   S    
C3    C68   A    
C7    N4    S    
C51   H17   S    
C41   H12   S    
C46   H8    S    
C39   C41   A    
C10   C67   A    
C15   C19   A    
C19   N3    A    
C17   C23   S    
C23   C42   A    
C31   C58   S    
C35   C37   A    
C24   C26   A    
O19   Zn1   S    
C37   H34   S    
H5    N5    S    
C48   H10   S    
C30   C57   S    
C33   C36   A    
C44   H3    S    
C16   O16   A    
O12   Zn2   S    
C9    C66   A    
H14   N6    S    
C3    C12   S    
C16   C34   S    
C64   H42   S    
C24   N9    S    
C63   O13   D    
C22   C25   A    
C31   C33   A    
C30   C41   A    
C44   H2    S    
C21   N7    S    
C61   H37   S    
H40   N10   S    
C68   H50   S    
C33   C56   S    
H18   N7    S    
C38   C40   A    
C65   H47   S    
C52   H21   S    
C15   C48   S    
C46   H7    S    
C52   N7    S    
C39   C61   S    
C63   C67   S    
C40   H1    S    
C62   C66   S    
C53   H25   S    
C32   C35   A    
C52   H20   S    
C4    C6    A    
C2    C67   A    
C50   O4    D    
C5    C7    A    
C64   H43   S    
C6    C8    A    
C29   C55   S    
C59   O8    D    
C1    O1    A    
C57   H32   S    
C44   N4    S    
C49   H11   S    
C54   H30   S    
C12   O15   A    
C21   N3    A    
C2    C4    A    
H44   N2    S    
C53   N8    S    
C43   C45   A    
C42   H45   S    
C22   N8    S    
C47   O20   D    
C53   H24   S    
C57   O6    D    
C58   H33   S    
C65   N2    S    
C42   C56   A    
C9    C11   S    
C20   N1    A    
O15   Zn1   S    
C43   H49   S    
C38   C60   S    
C36   H23   S    
C5    N10   S    
C64   N10   S    
C65   H48   S    
C47   H9    S    
C62   O11   D    
C63   H39   S    
C35   C45   S    
C51   H15   S    
C46   H6    S    
C58   O7    D    
C54   H29   S    
C7    C9    A    
C54   N9    S    
C49   O3    D    
N3    Zn2   S    
H22   N8    S    
C17   O17   A    
C53   H26   S    
C51   N6    S    
C54   H28   S    
C52   H19   S    
C17   O19   A    
C34   C43   A    
O18   Zn2   S    
C20   C22   A    
C3    C5    A    
C10   C13   S    
C2    H51   S    
C15   C26   A    
C61   O10   D    
C14   C47   S    
C62   H38   S    
C25   C27   S    
C26   C28   S    
C16   O18   A    
C1    C4    S    
C59   H35   S    
C36   C38   A    
O17   Zn2   S    
C29   C31   A    
C1    O14   A    
C30   C32   A    
C11   C13   T    
C19   C50   S    
C64   H41   S    
C55   O5    D    
C29   C40   A    
C12   O12   A    
C20   N6    S    
C44   H4    S    
C14   C25   A    
H52   N4    S    
C18   N1    A    
O16   Zn1   S    
N1    Zn1   S    
C8    N5    S    
C37   C39   A    
C50   H13   S    
C8    C10   A    
C21   C24   A    
C55   H31   S    
C27   C28   T    
H27   N9    S    
C6    N2    S    
C48   O2    D    
C32   C59   S    
C60   H36   S    
C51   H16   S    
O14   Zn2   S    
C18   C49   S    
