data_mof_unit_61159.cif
_audit_creation_date              2012-12-10T18:21:47-0500
_audit_creation_method            fapswitch 2.2
_symmetry_space_group_name_H-M    P1
_symmetry_Int_Tables_number       1
_space_group_crystal_system       triclinic
_cell_length_a                    35.670055
_cell_length_b                    35.670055
_cell_length_c                    29.377186
_cell_angle_alpha                 89.99998
_cell_angle_beta                  90.000012
_cell_angle_gamma                 90.0
_cell_volume                      37378.1455595

loop_
_atom_site_label
_atom_site_type_symbol
_atom_type_description
_atom_site_fract_x
_atom_site_fract_y
_atom_site_fract_z
_atom_type_partial_charge
C1    C     C_R   0.000000 0.427658 0.500000 0.817833
C2    C     C_R   0.427658 0.000000 0.500000 0.817833
C3    C     C_R   0.000000 0.572342 0.500000 0.817833
C4    C     C_R   0.572342 0.000000 0.500000 0.817833
C5    C     C_R   0.500000 0.927658 0.000000 0.817833
C6    C     C_R   0.927658 0.500000 0.000000 0.817833
C7    C     C_R   0.500000 0.072342 0.000000 0.817833
C8    C     C_R   0.072342 0.500000 0.000000 0.817833
C9    C     C_1   0.000000 0.233204 0.500000 -0.003463
C10   C     C_1   0.233204 0.000000 0.500000 -0.003463
C11   C     C_1   0.000000 0.766795 0.500000 -0.003463
C12   C     C_1   0.766795 0.000000 0.500000 -0.003463
C13   C     C_1   0.500000 0.733204 1.000000 -0.003463
C14   C     C_1   0.733204 0.500000 0.000000 -0.003463
C15   C     C_1   0.500000 0.266796 0.000000 -0.003462
C16   C     C_1   0.266796 0.500000 1.000000 -0.003462
C17   C     C_1   0.000000 0.266953 0.500000 0.052514
C18   C     C_1   0.266953 0.000000 0.500000 0.052513
C19   C     C_1   0.000000 0.733047 0.500000 0.052514
C20   C     C_1   0.733047 0.000000 0.500000 0.052514
C21   C     C_1   0.500000 0.766953 1.000000 0.052514
C22   C     C_1   0.766953 0.500000 0.000000 0.052514
C23   C     C_1   0.500000 0.233047 0.000000 0.052514
C24   C     C_1   0.233047 0.500000 1.000000 0.052514
C25   C     C_R   0.034097 0.327068 0.499983 0.157964
C26   C     C_R   0.327068 0.965903 0.499991 0.157964
C27   C     C_R   0.965903 0.672932 0.499988 0.157964
C28   C     C_R   0.672932 0.034097 0.499993 0.157964
C29   C     C_R   0.034097 0.672932 0.500012 0.157964
C30   C     C_R   0.327068 0.034097 0.500009 0.157964
C31   C     C_R   0.965903 0.327068 0.500017 0.157964
C32   C     C_R   0.672932 0.965903 0.500007 0.157964
C33   C     C_R   0.534097 0.827068 0.999984 0.157964
C34   C     C_R   0.827068 0.465903 0.999982 0.157964
C35   C     C_R   0.465903 0.172932 0.999986 0.157964
C36   C     C_R   0.172932 0.534097 0.999989 0.157964
C37   C     C_R   0.534097 0.172932 0.000014 0.157964
C38   C     C_R   0.827068 0.534097 0.000018 0.157964
C39   C     C_R   0.465903 0.827068 0.000015 0.157964
C40   C     C_R   0.172932 0.465903 0.000011 0.157964
C41   C     C_R   0.033945 0.366250 0.499983 -0.199094
C42   C     C_R   0.366250 0.966055 0.499991 -0.199093
C43   C     C_R   0.966056 0.633749 0.499988 -0.199093
C44   C     C_R   0.633749 0.033945 0.499993 -0.199093
C45   C     C_R   0.033944 0.633749 0.500012 -0.199094
C46   C     C_R   0.366250 0.033945 0.500009 -0.199093
C47   C     C_R   0.966055 0.366251 0.500017 -0.199094
C48   C     C_R   0.633749 0.966055 0.500007 -0.199093
C49   C     C_R   0.533944 0.866251 0.999985 -0.199093
C50   C     C_R   0.866251 0.466055 0.999982 -0.199093
C51   C     C_R   0.466056 0.133749 0.999986 -0.199093
C52   C     C_R   0.133749 0.533944 0.999989 -0.199094
C53   C     C_R   0.533944 0.133749 0.000014 -0.199094
C54   C     C_R   0.866251 0.533944 0.000017 -0.199094
C55   C     C_R   0.466056 0.866251 0.000015 -0.199093
C56   C     C_R   0.133749 0.466056 0.000011 -0.199093
C57   C     C_R   0.000000 0.386212 0.500000 -0.117136
C58   C     C_R   0.386212 0.000000 0.500000 -0.117136
C59   C     C_R   0.000000 0.613788 0.500000 -0.117136
C60   C     C_R   0.613788 0.000000 0.500000 -0.117136
C61   C     C_R   0.500000 0.886212 0.000000 -0.117136
C62   C     C_R   0.886212 0.500000 0.000000 -0.117136
C63   C     C_R   0.500000 0.113788 0.000000 -0.117136
C64   C     C_R   0.113788 0.500000 0.000000 -0.117136
C65   C     C_R   0.000000 0.307291 0.500000 0.024641
C66   C     C_R   0.307291 0.000000 0.500000 0.024641
C67   C     C_R   0.000000 0.692709 0.500000 0.024641
C68   C     C_R   0.692709 0.000000 0.500000 0.024641
C69   C     C_R   0.500000 0.807291 1.000000 0.024641
C70   C     C_R   0.807291 0.500000 0.000000 0.024641
C71   C     C_R   0.500000 0.192709 0.000000 0.024641
C72   C     C_R   0.192709 0.500000 1.000000 0.024641
C73   C     C_R   0.072888 0.000000 0.500000 0.822173
C74   C     C_R   0.000000 0.927112 0.500000 0.822174
C75   C     C_R   0.927112 0.000000 0.500000 0.822174
C76   C     C_R   0.000000 0.072888 0.500000 0.822174
C77   C     C_R   0.572888 0.500000 0.000000 0.822174
C78   C     C_R   0.500000 0.427112 0.000000 0.822174
C79   C     C_R   0.427112 0.500000 0.000000 0.822174
C80   C     C_R   0.500000 0.572888 0.000000 0.822174
C81   C     C_R   0.000000 0.500000 0.415262 0.804278
C82   C     C_R   0.500000 0.000000 0.415262 0.804278
C83   C     C_R   0.000000 0.500000 0.584738 0.804277
C84   C     C_R   0.500000 0.000000 0.584738 0.804277
C85   C     C_R   0.500000 0.000000 0.915262 0.804278
C86   C     C_R   0.000000 0.500000 0.915262 0.804278
C87   C     C_R   0.500000 0.000000 0.084738 0.804277
C88   C     C_R   0.000000 0.500000 0.084738 0.804277
C89   C     C_1   0.000000 0.500000 0.364027 -0.172970
C90   C     C_1   0.500000 0.000000 0.364027 -0.172970
C91   C     C_1   0.000000 0.500000 0.635973 -0.172970
C92   C     C_1   0.500000 1.000000 0.635973 -0.172970
C93   C     C_1   0.500000 0.000000 0.864027 -0.172970
C94   C     C_1   0.000000 0.500000 0.864027 -0.172970
C95   C     C_1   0.500000 0.000000 0.135973 -0.172970
C96   C     C_1   0.000000 0.500000 0.135973 -0.172970
C97   C     C_1   0.000000 0.500000 0.321574 0.018075
C98   C     C_1   0.500000 0.000000 0.321574 0.018075
C99   C     C_1   0.000000 0.500000 0.678426 0.018075
C100  C     C_1   0.500000 1.000000 0.678426 0.018075
C101  C     C_1   0.500000 1.000000 0.821574 0.018075
C102  C     C_1   0.000000 0.500000 0.821574 0.018075
C103  C     C_1   0.500000 1.000000 0.178426 0.018075
C104  C     C_1   0.000000 0.500000 0.178426 0.018075
C105  C     C_1   0.000000 0.500000 0.271226 0.020481
C106  C     C_1   0.500000 0.000000 0.271226 0.020481
C107  C     C_1   1.000000 0.500000 0.728773 0.020481
C108  C     C_1   0.500000 1.000000 0.728773 0.020481
C109  C     C_1   0.500000 1.000000 0.771226 0.020481
C110  C     C_1   0.000000 0.500000 0.771226 0.020481
C111  C     C_1   0.500000 0.000000 0.228774 0.020481
C112  C     C_1   1.000000 0.500000 0.228774 0.020481
C113  C     C_R   0.999988 0.173350 0.541238 -0.127939
C114  C     C_R   0.173350 0.000014 0.541238 -0.127941
C115  C     C_R   0.000013 0.826650 0.541238 -0.127940
C116  C     C_R   0.826650 0.999987 0.541238 -0.127940
C117  C     C_R   0.999987 0.826650 0.458762 -0.127940
C118  C     C_R   0.173350 0.999986 0.458762 -0.127939
C119  C     C_R   0.000012 0.173350 0.458762 -0.127941
C120  C     C_R   0.826650 0.000013 0.458762 -0.127940
C121  C     C_R   0.499987 0.673350 0.041238 -0.127940
C122  C     C_R   0.673350 0.500013 0.041238 -0.127940
C123  C     C_R   0.500013 0.326650 0.041238 -0.127940
C124  C     C_R   0.326650 0.499988 0.041238 -0.127940
C125  C     C_R   0.499987 0.326650 0.958762 -0.127940
C126  C     C_R   0.673350 0.499987 0.958762 -0.127940
C127  C     C_R   0.500013 0.673350 0.958762 -0.127940
C128  C     C_R   0.326650 0.500012 0.958762 -0.127940
C129  C     C_R   0.999988 0.134183 0.541281 -0.180638
C130  C     C_R   0.134183 0.000014 0.541281 -0.180637
C131  C     C_R   0.000013 0.865816 0.541281 -0.180637
C132  C     C_R   0.865817 0.999987 0.541281 -0.180636
C133  C     C_R   0.999987 0.865816 0.458719 -0.180637
C134  C     C_R   0.134183 0.999986 0.458719 -0.180637
C135  C     C_R   0.000012 0.134183 0.458719 -0.180636
C136  C     C_R   0.865816 0.000013 0.458719 -0.180637
C137  C     C_R   0.499987 0.634183 0.041281 -0.180637
C138  C     C_R   0.634183 0.500013 0.041281 -0.180637
C139  C     C_R   0.500013 0.365816 0.041281 -0.180637
C140  C     C_R   0.365816 0.499988 0.041281 -0.180637
C141  C     C_R   0.499987 0.365816 0.958719 -0.180636
C142  C     C_R   0.634183 0.499987 0.958719 -0.180636
C143  C     C_R   0.500013 0.634183 0.958719 -0.180637
C144  C     C_R   0.365816 0.500012 0.958719 -0.180636
C145  C     C_R   0.000000 0.114240 0.500000 -0.052151
C146  C     C_R   0.114240 0.000000 0.500000 -0.052151
C147  C     C_R   0.000000 0.885760 0.500000 -0.052152
C148  C     C_R   0.885760 0.000000 0.500000 -0.052152
C149  C     C_R   0.500000 0.614240 1.000000 -0.052152
C150  C     C_R   0.614240 0.500000 0.000000 -0.052152
C151  C     C_R   0.500000 0.385760 0.000000 -0.052151
C152  C     C_R   0.385760 0.500000 0.000000 -0.052152
C153  C     C_R   0.000000 0.192962 0.500000 0.133283
C154  C     C_R   0.192962 0.000000 0.500000 0.133282
C155  C     C_R   0.000000 0.807038 0.500000 0.133282
C156  C     C_R   0.807038 0.000000 0.500000 0.133282
C157  C     C_R   0.500000 0.692962 1.000000 0.133282
C158  C     C_R   0.692962 0.500000 0.000000 0.133282
C159  C     C_R   0.500000 0.307038 0.000000 0.133283
C160  C     C_R   0.307038 0.500000 1.000000 0.133282
Cu1   Cu    Cu3+1 0.962730 0.500000 0.500000 0.991455
Cu2   Cu    Cu3+1 0.500000 0.037270 0.500000 0.991454
Cu3   Cu    Cu3+1 0.037270 0.500000 0.500000 0.991454
Cu4   Cu    Cu3+1 0.500000 0.962730 0.500000 0.991455
Cu5   Cu    Cu3+1 0.462730 0.000000 0.000000 0.991455
Cu6   Cu    Cu3+1 0.000000 0.537270 0.000000 0.991454
Cu7   Cu    Cu3+1 0.537270 0.000000 0.000000 0.991454
Cu8   Cu    Cu3+1 0.000000 0.462730 0.000000 0.991455
Cu9   Cu    Cu3+1 0.000000 1.000000 0.457530 0.962914
Cu10  Cu    Cu3+1 0.000000 0.000000 0.542470 0.962914
Cu11  Cu    Cu3+1 0.500000 0.500000 0.957530 0.962914
Cu12  Cu    Cu3+1 0.500000 0.500000 0.042470 0.962914
H1    H     H_    0.999980 0.188323 0.573330 0.145788
H2    H     H_    0.188323 0.000025 0.573330 0.145788
H3    H     H_    0.000024 0.811677 0.573330 0.145788
H4    H     H_    0.811677 0.999978 0.573330 0.145788
H5    H     H_    0.999976 0.811677 0.426670 0.145788
H6    H     H_    0.188323 0.999975 0.426670 0.145788
H7    H     H_    0.000020 0.188323 0.426670 0.145788
H8    H     H_    0.811677 0.000022 0.426670 0.145788
H9    H     H_    0.499977 0.688323 0.073330 0.145788
H10   H     H_    0.688323 0.500023 0.073330 0.145788
H11   H     H_    0.500023 0.311677 0.073330 0.145787
H12   H     H_    0.311677 0.499978 0.073330 0.145788
H13   H     H_    0.499977 0.311677 0.926670 0.145788
H14   H     H_    0.688323 0.499977 0.926670 0.145788
H15   H     H_    0.500023 0.688323 0.926670 0.145788
H16   H     H_    0.311677 0.500022 0.926670 0.145788
H17   H     H_    0.999979 0.119525 0.573565 0.156398
H18   H     H_    0.119525 0.000025 0.573565 0.156398
H19   H     H_    0.000024 0.880475 0.573565 0.156399
H20   H     H_    0.880475 0.999977 0.573565 0.156399
H21   H     H_    0.999976 0.880475 0.426435 0.156399
H22   H     H_    0.119525 0.999975 0.426435 0.156399
H23   H     H_    0.000021 0.119525 0.426435 0.156398
H24   H     H_    0.880475 0.000022 0.426435 0.156398
H25   H     H_    0.499977 0.619525 0.073565 0.156398
H26   H     H_    0.619525 0.500023 0.073565 0.156398
H27   H     H_    0.500023 0.380475 0.073565 0.156398
H28   H     H_    0.380475 0.499978 0.073565 0.156398
H29   H     H_    0.499977 0.380475 0.926435 0.156398
H30   H     H_    0.619525 0.499977 0.926435 0.156399
H31   H     H_    0.500023 0.619525 0.926435 0.156398
H32   H     H_    0.380475 0.500022 0.926435 0.156399
H33   H     H_    0.060467 0.381014 0.499970 0.186079
H34   H     H_    0.381014 0.939532 0.499984 0.186079
H35   H     H_    0.939533 0.618986 0.499979 0.186079
H36   H     H_    0.618986 0.060468 0.499988 0.186078
H37   H     H_    0.060467 0.618986 0.500021 0.186079
H38   H     H_    0.381014 0.060468 0.500016 0.186079
H39   H     H_    0.939533 0.381014 0.500030 0.186079
H40   H     H_    0.618986 0.939532 0.500012 0.186079
H41   H     H_    0.560467 0.881014 0.999973 0.186079
H42   H     H_    0.881014 0.439532 0.999969 0.186079
H43   H     H_    0.439533 0.118986 0.999975 0.186079
H44   H     H_    0.118986 0.560467 0.999981 0.186079
H45   H     H_    0.560467 0.118986 0.000025 0.186079
H46   H     H_    0.881014 0.560467 0.000031 0.186079
H47   H     H_    0.439532 0.881014 0.000027 0.186079
H48   H     H_    0.118986 0.439533 0.000019 0.186079
O1    O     O_R   0.968530 0.445640 0.500010 -0.578118
O2    O     O_R   0.445640 0.031470 0.500010 -0.578118
O3    O     O_R   0.031470 0.554360 0.500010 -0.578118
O4    O     O_R   0.554360 0.968530 0.500010 -0.578118
O5    O     O_R   0.968530 0.554360 0.499990 -0.578118
O6    O     O_R   0.445640 0.968530 0.499990 -0.578118
O7    O     O_R   0.031470 0.445640 0.499990 -0.578118
O8    O     O_R   0.554360 0.031470 0.499990 -0.578118
O9    O     O_R   0.468530 0.945640 0.000010 -0.578118
O10   O     O_R   0.945640 0.531470 0.000010 -0.578118
O11   O     O_R   0.531470 0.054360 0.000010 -0.578118
O12   O     O_R   0.054360 0.468530 0.000010 -0.578118
O13   O     O_R   0.468530 0.054360 0.999990 -0.578118
O14   O     O_R   0.945640 0.468530 0.999990 -0.578118
O15   O     O_R   0.531470 0.945640 0.999990 -0.578118
O16   O     O_R   0.054360 0.531470 0.999990 -0.578118
O17   O     O_R   0.968530 0.500000 0.438040 -0.558708
O18   O     O_R   0.500000 0.031470 0.438040 -0.558709
O19   O     O_R   0.031470 0.500000 0.438040 -0.558709
O20   O     O_R   0.500000 0.968530 0.438040 -0.558709
O21   O     O_R   0.968530 0.500000 0.561960 -0.558709
O22   O     O_R   0.500000 0.968530 0.561960 -0.558708
O23   O     O_R   0.031470 0.500000 0.561960 -0.558709
O24   O     O_R   0.500000 0.031470 0.561960 -0.558709
O25   O     O_R   0.468530 0.000000 0.938040 -0.558708
O26   O     O_R   0.000000 0.531470 0.938040 -0.558709
O27   O     O_R   0.531470 0.000000 0.938040 -0.558709
O28   O     O_R   0.000000 0.468530 0.938040 -0.558709
O29   O     O_R   0.468530 0.000000 0.061960 -0.558709
O30   O     O_R   0.000000 0.468530 0.061960 -0.558708
O31   O     O_R   0.531470 0.000000 0.061960 -0.558709
O32   O     O_R   0.000000 0.531470 0.061960 -0.558710
O33   O     O_R   0.054260 0.999990 0.464160 -0.584130
O34   O     O_R   0.999990 0.945740 0.464160 -0.584130
O35   O     O_R   0.945740 0.000010 0.464160 -0.584130
O36   O     O_R   0.000010 0.054260 0.464160 -0.584130
O37   O     O_R   0.054260 0.000010 0.535840 -0.584131
O38   O     O_R   0.999990 0.054260 0.535840 -0.584131
O39   O     O_R   0.945740 0.999990 0.535840 -0.584130
O40   O     O_R   0.000010 0.945740 0.535840 -0.584130
O41   O     O_R   0.554260 0.499990 0.964160 -0.584130
O42   O     O_R   0.499990 0.445740 0.964160 -0.584130
O43   O     O_R   0.445740 0.500010 0.964160 -0.584130
O44   O     O_R   0.500010 0.554260 0.964160 -0.584130
O45   O     O_R   0.554260 0.500010 0.035840 -0.584130
O46   O     O_R   0.499990 0.554260 0.035840 -0.584130
O47   O     O_R   0.445740 0.499990 0.035840 -0.584130
O48   O     O_R   0.500010 0.445740 0.035840 -0.584130
I1    I     I_    0.086736 0.299316 0.499956 -0.327837
I2    I     I_    0.299316 0.913264 0.499976 -0.327836
I3    I     I_    0.913264 0.700684 0.499969 -0.327837
I4    I     I_    0.700684 0.086736 0.499984 -0.327836
I5    I     I_    0.086736 0.700684 0.500031 -0.327837
I6    I     I_    0.299316 0.086736 0.500023 -0.327836
I7    I     I_    0.913264 0.299316 0.500044 -0.327837
I8    I     I_    0.700684 0.913264 0.500016 -0.327837
I9    I     I_    0.586736 0.799316 0.999960 -0.327837
I10   I     I_    0.799316 0.413264 0.999955 -0.327837
I11   I     I_    0.413264 0.200684 0.999964 -0.327837
I12   I     I_    0.200684 0.586736 0.999972 -0.327837
I13   I     I_    0.586736 0.200684 0.000036 -0.327837
I14   I     I_    0.799316 0.586736 0.000045 -0.327837
I15   I     I_    0.413264 0.799316 0.000040 -0.327837
I16   I     I_    0.200684 0.413264 0.000028 -0.327837

loop_
_geom_bond_atom_site_label_1
_geom_bond_atom_site_label_2
_ccdc_geom_bond_type
C27   I3    S    
Cu11  Cu12  S    
C88   C96   S    
C82   C90   S    
Cu5   O13   S    
C116  C132  A    
C28   I4    S    
C47   H39   S    
C131  H19   S    
C130  C146  A    
C79   O43   A    
Cu9   Cu10  S    
Cu9   O35   S    
C80   O46   A    
C143  H31   S    
Cu11  O43   S    
C80   O44   A    
C2    O2    A    
Cu4   O22   S    
C42   C58   A    
C7    O13   A    
Cu3   O19   S    
C118  H6    S    
C7    O11   A    
C138  C150  A    
Cu7   O15   S    
C11   C19   T    
C77   O41   A    
C12   C20   T    
C14   C158  S    
Cu5   O29   S    
C142  H30   S    
C1    O1    A    
C28   C68   A    
C141  H29   S    
C124  H12   S    
Cu12  O47   S    
C75   O35   A    
C127  C157  A    
Cu2   O18   S    
C73   O37   A    
Cu1   O17   S    
C50   H42   S    
C101  C109  S    
Cu5   O9    S    
C83   O23   A    
C52   H44   S    
Cu7   O31   S    
C108  C109  T    
C43   H35   S    
C103  C111  S    
C82   O20   A    
C126  C142  A    
Cu11  O41   S    
C124  C140  A    
C36   I12   S    
C115  H3    S    
C130  H18   S    
C86   C94   S    
C144  H32   S    
C122  H10   S    
C85   C93   S    
C39   C55   A    
Cu2   O2    S    
C49   H41   S    
C95   C103  T    
C139  H27   S    
C40   C56   A    
C129  H17   S    
Cu6   O26   S    
Cu4   O20   S    
C79   O47   A    
C56   C64   A    
C19   C67   S    
Cu10  O39   S    
C133  C147  A    
C40   I16   S    
C40   C72   A    
C140  C152  A    
Cu6   O16   S    
Cu12  O46   S    
C36   C52   A    
C43   C59   A    
C32   C68   A    
C48   C60   A    
C97   C105  S    
C1    O7    A    
C15   C23   T    
C6    O14   A    
C144  C152  A    
C117  C133  A    
C81   C89   S    
C16   C24   T    
C141  C151  A    
C121  C157  A    
C84   O22   A    
C46   C58   A    
Cu6   Cu8   S    
Cu3   O23   S    
C32   C48   A    
Cu9   O36   S    
C137  C149  A    
C2    C58   S    
Cu5   Cu7   S    
C119  H7    S    
C12   C156  S    
C2    O6    A    
C87   O29   A    
C13   C157  S    
C22   C70   S    
Cu1   Cu3   S    
C117  H5    S    
C78   C151  S    
C54   H46   S    
C114  H2    S    
Cu2   Cu4   S    
C106  C111  T    
C126  C158  A    
C24   C72   S    
C29   I5    S    
C80   C149  S    
C134  C146  A    
Cu3   O3    S    
C100  C108  S    
C49   C61   A    
C116  H4    S    
C121  H9    S    
C123  H11   S    
Cu7   O11   S    
C132  C148  A    
C41   H33   S    
C48   H40   S    
C74   C147  S    
C126  H14   S    
C51   C63   A    
C122  C138  A    
C33   I9    S    
C84   O24   A    
C52   C64   A    
C88   O30   A    
C93   C101  T    
C104  C112  S    
C128  C160  A    
C34   C70   A    
C55   H47   S    
Cu2   O8    S    
C54   C62   A    
C135  C145  A    
C53   H45   S    
C121  C137  A    
C28   C44   A    
C45   H37   S    
C81   O19   A    
C125  H13   S    
C89   C97   T    
C120  C136  A    
C26   C66   A    
C77   C150  S    
Cu11  O42   S    
C87   O31   A    
C37   C53   A    
C133  H21   S    
C117  C155  A    
Cu12  O45   S    
C32   I8    S    
C1    C57   S    
Cu8   O12   S    
Cu9   O33   S    
Cu4   O4    S    
C37   I13   S    
C127  H15   S    
C38   C54   A    
C120  C156  A    
C134  H22   S    
C39   I15   S    
C116  C156  A    
C4    C60   S    
C10   C154  S    
C82   O18   A    
C13   C21   T    
Cu10  O38   S    
C127  C143  A    
C90   C98   T    
C44   C60   A    
C131  C147  A    
C30   C46   A    
C128  C144  A    
C135  H23   S    
C7    C63   S    
C136  C148  A    
C35   I11   S    
C8    C64   S    
C6    O10   A    
C73   O33   A    
C8    O16   A    
C9    C17   T    
C38   C70   A    
C30   C66   A    
C105  C112  T    
C137  H25   S    
C76   C145  S    
C30   I6    S    
C74   O40   A    
C37   C71   A    
C35   C51   A    
C14   C22   T    
C50   C62   A    
C107  C110  T    
C5    O9    A    
C11   C155  S    
C102  C110  S    
C31   I7    S    
Cu2   O24   S    
C83   C91   S    
C138  H26   S    
C46   H38   S    
C56   H48   S    
C21   C69   S    
C99   C107  S    
C92   C100  T    
C113  H1    S    
C51   H43   S    
C31   C65   A    
C27   C43   A    
C132  H20   S    
C87   C95   S    
C45   C59   A    
C3    O3    A    
C42   H34   S    
C122  C158  A    
Cu8   O28   S    
C128  H16   S    
Cu1   O21   S    
Cu9   O34   S    
C20   C68   S    
C86   O28   A    
C113  C153  A    
C118  C134  A    
C15   C159  S    
C75   O39   A    
C34   C50   A    
Cu10  O40   S    
C125  C159  A    
C136  H24   S    
C77   O45   A    
C8    O12   A    
C33   C69   A    
C75   C148  S    
C18   C66   S    
Cu6   O32   S    
Cu8   O30   S    
C114  C130  A    
Cu8   O14   S    
C17   C65   S    
C98   C106  S    
C4    O4    A    
C73   C146  S    
C91   C99   T    
C142  C150  A    
C86   O26   A    
C96   C104  T    
C115  C155  A    
C41   C57   A    
C85   O25   A    
Cu5   O25   S    
C29   C67   A    
C123  C159  A    
Cu12  O48   S    
C5    C61   S    
C53   C63   A    
C6    C62   S    
C140  H28   S    
C26   I2    S    
C76   O38   A    
C10   C18   T    
Cu7   O27   S    
C55   C61   A    
C139  C151  A    
C39   C69   A    
C81   O17   A    
C118  C154  A    
Cu10  O37   S    
C125  C141  A    
C129  C145  A    
C4    O8    A    
C26   C42   A    
C34   I10   S    
Cu11  O44   S    
C76   O36   A    
C119  C135  A    
C74   O34   A    
C119  C153  A    
C27   C67   A    
C123  C139  A    
C38   I14   S    
C124  C160  A    
C9    C153  S    
Cu1   O5    S    
C31   C47   A    
C143  C149  A    
C115  C131  A    
C16   C160  S    
C94   C102  T    
C23   C71   S    
Cu6   O10   S    
C25   C41   A    
C5    O15   A    
C29   C45   A    
C47   C57   A    
C85   O27   A    
C25   C65   A    
Cu1   O1    S    
C79   C152  S    
Cu4   O6    S    
C44   H36   S    
C84   C92   S    
C78   O42   A    
C120  H8    S    
C83   O21   A    
C113  C129  A    
C33   C49   A    
C114  C154  A    
C25   I1    S    
C88   O32   A    
C36   C72   A    
C35   C71   A    
C78   O48   A    
C3    O5    A    
Cu3   O7    S    
C3    C59   S    
