data_mof_unit_49228.cif
_audit_creation_date              2012-12-11T16:35:16-0500
_audit_creation_method            fapswitch 2.2
_symmetry_space_group_name_H-M    P1
_symmetry_Int_Tables_number       1
_space_group_crystal_system       triclinic
_cell_length_a                    6.925046
_cell_length_b                    17.619133
_cell_length_c                    19.522427
_cell_angle_alpha                 109.014008
_cell_angle_beta                  90.528402
_cell_angle_gamma                 90.480709
_cell_volume                      2251.77233783

loop_
_atom_site_label
_atom_site_type_symbol
_atom_type_description
_atom_site_fract_x
_atom_site_fract_y
_atom_site_fract_z
_atom_type_partial_charge
O1    O     O_R   0.505700 0.440210 0.561730 -0.544198
O2    O     O_R   0.169350 0.406300 0.412660 -0.537088
O3    O     O_R   0.005650 0.559790 0.438270 -0.541361
C1    C     C_R   0.338468 0.379829 0.387103 0.715415
O4    O     O_R   0.175560 0.430650 0.559600 -0.543982
O5    O     O_R   0.011900 0.584320 0.586250 -0.536375
C2    C     C_R   0.344300 0.418888 0.583904 0.700815
O6    O     O_R   0.499450 0.415680 0.413750 -0.534004
O7    O     O_3   0.341370 0.550390 0.508570 -0.367160
V1    V     V_3+5 0.063940 0.490650 0.498410 1.404621
O8    O     O_R   0.682570 0.593700 0.587340 -0.537359
C3    C     C_R   0.852421 0.615706 0.615621 0.695086
O9    O     O_R   0.676370 0.569350 0.440400 -0.543063
C4    C     C_R   0.844852 0.584523 0.418913 0.691104
V2    V     V_3+5 0.564750 0.509350 0.501590 1.410256
O10   O     O_3   0.837190 0.449610 0.491430 -0.368573
C5    C     C_R   0.042573 0.708633 0.308089 -0.148652
H1    H     H_    0.181728 0.732064 0.299176 0.101076
C6    C     C_R   0.032425 0.663938 0.355463 -0.168969
H2    H     H_    0.164361 0.653536 0.381103 0.121360
C7    C     C_R   0.854446 0.633517 0.369805 -0.048758
C8    C     C_R   0.686631 0.649253 0.335744 -0.161674
H3    H     H_    0.547349 0.626201 0.345056 0.115029
C9    C     C_R   0.696970 0.693699 0.288036 -0.146904
H4    H     H_    0.565672 0.703263 0.261574 0.097131
C10   C     C_R   0.875243 0.723749 0.273403 0.103058
C11   C     C_R   0.744984 0.825919 0.220493 -0.147908
H5    H     H_    0.623455 0.835951 0.256753 0.113702
C12   C     C_R   0.759804 0.870977 0.173616 -0.198803
H6    H     H_    0.648172 0.914120 0.174980 0.124799
C13   C     C_R   0.917880 0.862293 0.126939 -0.066238
C14   C     C_R   0.060904 0.804689 0.126879 0.148378
C15   C     C_R   0.043541 0.759774 0.174431 -0.141624
H7    H     H_    0.151684 0.715471 0.173799 0.103417
C16   C     C_R   0.887584 0.770376 0.222035 0.047984
C17   C     C_R   0.042359 0.897281 0.748305 -0.196607
C18   C     C_R   0.099655 0.906945 0.683379 -0.121007
C19   C     C_R   0.079949 0.843558 0.618340 0.215092
C20   C     C_R   0.002568 0.770212 0.618857 -0.146243
C21   C     C_R   0.945414 0.758620 0.684254 0.032616
C22   C     C_R   0.965254 0.823528 0.750248 0.070264
C23   C     C_R   0.866627 0.684152 0.684387 -0.150708
C24   C     C_R   0.807862 0.674598 0.750682 0.028802
C25   C     C_R   0.827076 0.739644 0.816571 0.027031
C26   C     C_R   0.905214 0.814305 0.816399 -0.150003
C27   C     C_R   0.733461 0.600410 0.752787 -0.197121
C28   C     C_R   0.677421 0.589939 0.818039 0.202293
C29   C     C_R   0.695997 0.654525 0.883270 0.208414
C30   C     C_R   0.770982 0.728131 0.881980 -0.184670
H8    H     H_    0.058413 0.948345 0.796980 0.110762
H9    H     H_    0.158567 0.964308 0.683981 0.116424
H10   H     H_    0.986662 0.722780 0.567314 0.109967
H11   H     H_    0.719317 0.549541 0.703594 0.117335
H12   H     H_    0.786733 0.776239 0.933068 0.112403
H13   H     H_    0.427746 0.488537 0.192722 0.109490
C31   C     C_R   0.320003 0.201614 0.378456 0.148229
C32   C     C_R   0.316991 0.119571 0.371074 -0.089085
C33   C     C_R   0.347755 0.061581 0.305107 -0.172355
C34   C     C_R   0.382821 0.083758 0.244777 -0.143810
C35   C     C_R   0.384737 0.165363 0.248373 0.048634
C36   C     C_R   0.351185 0.227194 0.316265 0.047579
C37   C     C_R   0.421492 0.184380 0.184547 -0.144409
C38   C     C_R   0.422724 0.265289 0.186815 -0.013496
C39   C     C_R   0.387222 0.327748 0.252960 0.072523
C40   C     C_R   0.352224 0.309993 0.318152 -0.160899
C41   C     C_R   0.457569 0.285118 0.123316 -0.192302
C42   C     C_R   0.455700 0.364365 0.123374 0.483116
C43   C     C_R   0.423735 0.426013 0.189209 -0.245090
C44   C     C_R   0.388273 0.407963 0.252368 -0.189971
H14   H     H_    0.292320 0.099679 0.417303 0.115886
H15   H     H_    0.346417 0.998708 0.300785 0.123187
H16   H     H_    0.409385 0.035382 0.195025 0.105403
H17   H     H_    0.486538 0.238969 0.072314 0.146930
H18   H     H_    0.361984 0.458205 0.300775 0.122854
C45   C     C_R   0.527975 0.285276 0.688531 -0.194245
H19   H     H_    0.657302 0.251988 0.690711 0.129991
C46   C     C_R   0.519987 0.329197 0.640389 -0.193276
H20   H     H_    0.644061 0.329234 0.607028 0.139186
C47   C     C_R   0.353254 0.371730 0.634745 -0.090185
C48   C     C_R   0.195669 0.370330 0.679225 -0.158658
H21   H     H_    0.067647 0.404176 0.676292 0.121822
C49   C     C_R   0.202994 0.327361 0.728768 0.205672
C50   C     C_R   0.370559 0.283094 0.732805 0.098817
C51   C     C_R   0.256247 0.170390 0.775033 -0.150788
H22   H     H_    0.145152 0.155660 0.733237 0.119870
C52   C     C_R   0.269543 0.124444 0.821117 -0.251000
H23   H     H_    0.165189 0.076697 0.814692 0.133250
C53   C     C_R   0.416324 0.138837 0.874126 -0.121035
C54   C     C_R   0.550392 0.202430 0.881901 0.443487
C55   C     C_R   0.531797 0.249897 0.835482 -0.269026
H24   H     H_    0.626766 0.300664 0.841275 0.114088
C56   C     C_R   0.385382 0.234105 0.782206 0.058585
O11   O     O_R   0.273230 0.084330 0.086440 -0.536828
O12   O     O_R   0.596660 0.069390 0.940470 -0.516810
O13   O     O_R   0.760270 0.915710 0.913690 -0.536192
C57   C     C_R   0.427283 0.086577 0.920722 0.726936
O14   O     O_R   0.603330 0.093680 0.087390 -0.533621
O15   O     O_R   0.766990 0.940160 0.061660 -0.545325
C58   C     C_R   0.434604 0.118174 0.113968 0.692785
O16   O     O_R   0.266510 0.059870 0.938470 -0.552392
O17   O     O_3   0.431050 0.949630 0.991510 -0.370724
V3    V     V_3+5 0.708490 0.009340 0.001580 1.449973
O18   O     O_R   0.096270 0.930570 0.059390 -0.538471
C59   C     C_R   0.927820 0.913644 0.079508 0.693329
O19   O     O_R   0.089600 0.906290 0.912460 -0.539495
C60   C     C_R   0.919455 0.883275 0.884914 0.691671
V4    V     V_3+5 0.207670 0.990600 0.998190 1.407691
O20   O     O_3   0.935250 0.050360 0.008480 -0.364472
C61   C     C_3   0.139866 0.853295 0.547915 -0.805454
H25   H     H_    0.198116 0.914550 0.555866 0.206993
H26   H     H_    0.253385 0.809114 0.522752 0.210810
H27   H     H_    0.013466 0.842558 0.510397 0.213981
C62   C     C_3   0.599670 0.509481 0.817281 -0.801544
H28   H     H_    0.449706 0.515708 0.837816 0.222307
H29   H     H_    0.597389 0.465260 0.761873 0.215929
H30   H     H_    0.692189 0.485154 0.851740 0.205897
C63   C     C_3   0.294144 0.257358 0.454109 -0.784563
H31   H     H_    0.159415 0.291551 0.457299 0.223443
H32   H     H_    0.280214 0.225373 0.494408 0.196774
H33   H     H_    0.424771 0.295834 0.470108 0.198941
O21   O     O_3   0.499917 0.377717 0.058730 -0.545406
C64   C     C_3   0.401579 0.444168 0.050341 0.087237
H34   H     H_    0.475941 0.501007 0.082356 0.123829
H35   H     H_    0.247470 0.445078 0.066675 0.115060
C65   C     C_3   0.405533 0.438911 0.971043 -0.709413
H36   H     H_    0.329913 0.383397 0.937263 0.221794
H37   H     H_    0.331958 0.491600 0.963833 0.175723
H38   H     H_    0.557182 0.438053 0.952843 0.220795
C66   C     C_3   0.034632 0.332187 0.778338 -0.851921
H39   H     H_    0.962025 0.272845 0.765189 0.198166
H40   H     H_    0.085525 0.352104 0.835580 0.210283
H41   H     H_    0.925223 0.375602 0.772784 0.214501
O22   O     O_3   0.681632 0.220429 0.939872 -0.546356
C67   C     C_3   0.855113 0.255956 0.926892 0.104561
H42   H     H_    0.832809 0.320452 0.933896 0.138555
H43   H     H_    0.911101 0.223837 0.871858 0.114633
C68   C     C_3   0.007010 0.251683 0.982265 -0.661530
H44   H     H_    0.030946 0.188261 0.978305 0.233700
H45   H     H_    0.145429 0.278004 0.971896 0.182291
H46   H     H_    0.958821 0.285596 0.037866 0.222925
C69   C     C_3   0.229682 0.787979 0.075924 -0.758793
H47   H     H_    0.177325 0.774668 0.019224 0.205690
H48   H     H_    0.330175 0.840376 0.090844 0.219307
H49   H     H_    0.313449 0.735380 0.078312 0.193387
C70   C     C_3   0.637654 0.645796 0.954639 -0.799748
H50   H     H_    0.481742 0.630042 0.952941 0.212371
H51   H     H_    0.723448 0.597966 0.965587 0.213879
H52   H     H_    0.662109 0.702239 0.000567 0.208354

loop_
_geom_bond_atom_site_label_1
_geom_bond_atom_site_label_2
_ccdc_geom_bond_type
C25   C30   A    
O17   V4    S    
C53   C57   S    
O17   V3    S    
C11   C12   A    
C31   C63   S    
C6    H2    S    
C1    O6    A    
C67   C68   S    
H13   C43   S    
C55   H24   S    
C46   H20   S    
C25   C26   A    
C50   C56   S    
C68   H45   S    
C12   H6    S    
C5    C10   A    
C4    C7    S    
C7    C8    A    
C17   C18   A    
C6    C7    A    
C51   C52   A    
C66   H39   S    
C61   H26   S    
O5    C3    A    
C1    C40   S    
C18   H9    S    
C52   C53   A    
C33   H15   S    
C30   H12   S    
C31   C32   A    
C35   C37   A    
C3    C23   S    
O14   C58   A    
O8    V2    S    
C28   C29   A    
C43   C44   A    
C65   H38   S    
V4    O20   S    
V3    O20   S    
O1    V2    S    
C32   H14   S    
O7    V1    S    
O11   C58   A    
O14   V3    S    
O13   V3    S    
C34   H16   S    
C62   H30   S    
C21   C23   A    
C41   C42   A    
C38   C41   A    
C34   C35   A    
O9    C4    A    
C17   C22   A    
C42   O21   S    
C70   H51   S    
C70   H50   S    
C46   C47   A    
C19   C20   A    
C68   H46   S    
C54   O22   S    
C42   C43   A    
C9    H4    S    
C48   C49   A    
C61   H27   S    
C20   C21   A    
O4    C2    A    
C63   H32   S    
C52   H23   S    
C5    C6    A    
C67   H43   S    
C11   C16   A    
C33   C34   A    
O15   V3    S    
C41   H17   S    
C38   C39   A    
C35   C36   A    
C49   C66   S    
O2    C1    A    
C45   H19   S    
C18   C19   A    
O13   C60   A    
O19   V4    S    
C55   C56   A    
C13   C14   A    
C29   C70   S    
C37   C38   A    
C5    H1    S    
C14   C69   S    
C44   H18   S    
C31   C36   A    
C39   C44   A    
C51   H22   S    
C19   C61   S    
O12   C57   A    
C45   C46   A    
O21   C64   S    
O3    C4    A    
C21   C22   A    
O6    V2    S    
O9    V2    S    
C24   C25   A    
C65   H36   S    
C8    C9    A    
C47   C48   A    
C63   H33   S    
C23   C24   A    
C64   H35   S    
O2    V1    S    
C11   H5    S    
C70   H52   S    
C17   H8    S    
C26   C60   S    
C2    C47   S    
C62   H28   S    
C68   H44   S    
C28   C62   S    
C27   C28   A    
C29   C30   A    
O16   V4    S    
O1    C2    A    
C9    C10   A    
C48   H21   S    
O5    V1    S    
O8    C3    A    
C64   H34   S    
C67   H42   S    
C69   H49   S    
O19   C60   A    
C39   C40   A    
C66   H41   S    
C64   C65   S    
C69   H48   S    
O7    V2    S    
O4    V1    S    
C12   C13   A    
O3    V1    S    
V1    O10   S    
C69   H47   S    
C14   C15   A    
C45   C50   A    
C32   C33   A    
O22   C67   S    
O15   C59   A    
C57   O16   A    
C27   H11   S    
C15   C16   A    
C15   H7    S    
C20   H10   S    
C24   C27   A    
C37   C58   S    
C36   C40   A    
C10   C16   S    
C13   C59   S    
C53   C54   A    
O12   V3    S    
C49   C50   A    
C61   H25   S    
O18   C59   A    
C65   H37   S    
C22   C26   A    
C8    H3    S    
O18   V4    S    
C51   C56   A    
C66   H40   S    
C54   C55   A    
C63   H31   S    
O11   V4    S    
V2    O10   S    
C62   H29   S    
