data_mof_unit_66579.cif
_audit_creation_date              2012-12-10T16:50:54-0500
_audit_creation_method            fapswitch 2.2
_symmetry_space_group_name_H-M    P1
_symmetry_Int_Tables_number       1
_space_group_crystal_system       triclinic
_cell_length_a                    7.835255
_cell_length_b                    8.575821
_cell_length_c                    10.666415
_cell_angle_alpha                 90.304218
_cell_angle_beta                  85.46919
_cell_angle_gamma                 93.512932
_cell_volume                      713.134038547

loop_
_atom_site_label
_atom_site_type_symbol
_atom_type_description
_atom_site_fract_x
_atom_site_fract_y
_atom_site_fract_z
_atom_type_partial_charge
C1    C     C_R   0.545317 0.794367 0.494318 0.985653
C2    C     C_R   0.916575 0.292786 0.059299 0.474322
C3    C     C_R   0.015102 0.430367 0.088486 -0.161486
C4    C     C_R   0.942574 0.361421 0.936124 -0.211530
C5    C     C_R   0.166919 0.410156 0.145290 -0.220695
C6    C     C_R   0.793826 0.366568 0.869489 -0.240082
C7    C     C_R   0.327265 0.437104 0.079305 0.068544
C8    C     C_R   0.636052 0.402466 0.933666 0.136232
C9    C     C_R   0.337293 0.480706 0.953932 -0.011930
C10   C     C_R   0.621619 0.373764 0.062977 0.027522
C11   C     C_R   0.477557 0.416818 0.135771 -0.209373
C12   C     C_R   0.454433 0.205543 0.502605 0.934067
C13   C     C_R   0.494441 0.464662 0.877791 -0.217383
C14   C     C_3   0.908069 0.724585 0.869988 0.078950
C15   C     C_3   0.757479 0.829529 0.886723 -0.313706
C16   C     C_3   0.754489 0.940075 0.775508 -0.985149
C17   C     C_3   0.115837 0.092930 0.009735 0.063333
C18   C     C_3   0.198362 0.966625 0.080518 -0.287189
C19   C     C_3   0.364070 0.919317 0.010576 -0.992460
C20   C     C_2   0.568713 0.958011 0.488689 -0.387239
C21   C     C_2   0.430402 0.041934 0.502724 -0.383689
C22   C     C_R   0.500280 0.494123 0.741810 0.873885
C23   C     C_R   0.492549 0.468983 0.264584 0.893849
C24   C     C_R   0.189730 0.545054 0.913277 -0.233630
C25   C     C_R   0.748155 0.292394 0.116118 -0.173334
C26   C     C_R   0.021539 0.509984 0.972100 0.484216
H1    H     H_    0.028788 0.300214 0.870479 0.102618
H2    H     H_    0.989675 0.629430 0.582723 0.174292
H3    H     H_    0.892104 0.647676 0.787552 0.150829
H4    H     H_    0.025146 0.802436 0.852374 0.127708
H5    H     H_    0.636325 0.755779 0.895413 0.224822
H6    H     H_    0.766162 0.899407 0.974310 0.258729
H7    H     H_    0.866125 0.026358 0.771804 0.255093
H8    H     H_    0.635241 0.004201 0.784271 0.272363
H9    H     H_    0.759286 0.872588 0.686784 0.271178
H10   H     H_    0.216164 0.184126 0.981163 0.157321
H11   H     H_    0.065227 0.043157 0.923570 0.137984
H12   H     H_    0.950722 0.497119 0.164142 0.186123
H13   H     H_    0.228075 0.011406 0.174904 0.226779
H14   H     H_    0.107165 0.862622 0.093908 0.257941
H15   H     H_    0.341111 0.882015 0.913235 0.257152
H16   H     H_    0.414200 0.820925 0.060911 0.279702
H17   H     H_    0.461595 0.019208 0.006884 0.274116
H18   H     H_    0.209188 0.636296 0.844665 0.158478
H19   H     H_    0.719668 0.235135 0.206580 0.164995
H20   H     H_    0.157333 0.347195 0.233388 0.174127
H21   H     H_    0.806126 0.335791 0.771288 0.183599
H22   H     H_    0.699430 0.008955 0.475030 0.185674
H23   H     H_    0.299615 0.991086 0.515976 0.178244
H24   H     H_    0.009527 0.369493 0.418312 0.179578
N1    N     N_2   0.950330 0.457950 0.466250 -0.183949
N2    N     N_2   0.049670 0.542050 0.533750 -0.185415
O1    O     O_R   0.389250 0.738570 0.508280 -0.608728
O2    O     O_3   0.980199 0.148767 0.089608 -0.657623
O3    O     O_R   0.610750 0.261430 0.491720 -0.623241
O4    O     O_R   0.678390 0.711630 0.486650 -0.625838
O5    O     O_R   0.321610 0.288370 0.513350 -0.640558
O6    O     O_R   0.355430 0.513480 0.694040 -0.626088
O7    O     O_R   0.644570 0.486520 0.305960 -0.618492
O8    O     O_R   0.644570 0.486540 0.672410 -0.638004
O9    O     O_R   0.355430 0.513460 0.327590 -0.619260
O10   O     O_3   0.915329 0.637189 0.981686 -0.644528
Zn1   Zn    Zn3+2 0.306940 0.517990 0.514440 0.919658
Zn2   Zn    Zn3+2 0.693060 0.482010 0.485560 0.920924

loop_
_geom_bond_atom_site_label_1
_geom_bond_atom_site_label_2
_ccdc_geom_bond_type
C22   O6    A    
C4    C26   A    
C18   H13   S    
O4    Zn2   S    
C9    C24   A    
C15   H5    S    
C8    C13   A    
C17   H10   S    
C16   H7    S    
O1    Zn1   S    
C5    H20   S    
C2    C4    A    
C19   H16   S    
O8    Zn2   S    
C15   C16   S    
O3    Zn2   S    
C21   H23   S    
C17   C18   S    
C26   O10   S    
C5    C7    A    
C15   H6    S    
C17   H11   S    
C7    C11   A    
H2    N2    S    
O7    Zn2   S    
C20   H22   S    
C14   H4    S    
C6    C8    A    
C12   O5    A    
C17   O2    S    
C10   C25   A    
C4    C6    A    
C1    O4    A    
C24   C26   A    
C13   C22   S    
H24   N1    S    
C2    C25   A    
C2    C3    A    
C16   H9    S    
C22   O8    A    
C24   H18   S    
C2    O2    S    
C12   O3    A    
C6    H21   S    
C14   H3    S    
N1    N2    D    
C14   O10   S    
C25   H19   S    
C23   O9    A    
C4    H1    S    
C18   H14   S    
C20   C21   D    
C3    H12   S    
C8    C10   A    
C18   C19   S    
C10   C11   A    
C11   C23   S    
O6    Zn1   S    
O9    Zn1   S    
C1    O1    A    
C14   C15   S    
C1    C20   S    
C9    C13   A    
C23   O7    A    
C16   H8    S    
C12   C21   S    
N2    Zn1   S    
C3    C26   A    
N1    Zn2   S    
C19   H15   S    
O5    Zn1   S    
C19   H17   S    
C3    C5    A    
C7    C9    A    
