data_mof_unit_31123.cif
_audit_creation_date              2013-03-05T15:50:48-0500
_audit_creation_method            fapswitch 2.2
_symmetry_space_group_name_H-M    P1
_symmetry_Int_Tables_number       1
_space_group_crystal_system       triclinic
_cell_length_a                    14.305638
_cell_length_b                    14.798769
_cell_length_c                    33.253801
_cell_angle_alpha                 98.312249
_cell_angle_beta                  90.057316
_cell_angle_gamma                 118.698637
_cell_volume                      6090.19298963

loop_
_atom_site_label
_atom_site_type_symbol
_atom_site_description
_atom_site_fract_x
_atom_site_fract_y
_atom_site_fract_z
_atom_type_partial_charge
O1    O     O_R   0.318160 0.824460 0.443680 -0.510834
O2    O     O_R   0.525040 0.857250 0.449830 -0.499961
C1    C     C_R   0.616927 0.910031 0.437007 0.585306
O3    O     O_R   0.684760 0.998800 0.456360 -0.462533
O4    O     O_R   0.647540 0.166310 0.470260 -0.515255
C2    C     C_R   0.594595 0.206143 0.456782 0.559812
O5    O     O_R   0.500960 0.181750 0.467450 -0.446502
O6    O     O_R   0.331100 0.981120 0.457080 -0.491217
C3    C     C_R   0.295245 0.892424 0.434320 0.539313
O7    O     O_R   0.315560 0.821140 0.532010 -0.518426
O8    O     O_R   0.522630 0.854180 0.531710 -0.498869
C4    C     C_R   0.613544 0.905950 0.552001 0.560576
O9    O     O_R   0.682160 0.995480 0.544690 -0.487301
O10   O     O_R   0.645130 0.163230 0.552140 -0.504594
C5    C     C_R   0.588470 0.197597 0.571439 0.544806
O11   O     O_R   0.498360 0.178430 0.555780 -0.488599
O12   O     O_R   0.328690 0.978040 0.538950 -0.483703
C6    C     C_R   0.288545 0.887159 0.548593 0.543525
Cr1   Cr    Cr6+3 0.424820 0.846020 0.489780 1.061691
Cr2   Cr    Cr6+3 0.657880 0.078580 0.505700 1.083849
Cr3   Cr    Cr6+3 0.417280 0.075360 0.504550 1.118943
O13   O     O_3   0.499990 0.999990 0.500010 -0.275265
C7    C     C_R   0.735170 0.445833 0.104413 -0.029510
C8    C     C_R   0.649878 0.432842 0.128088 -0.103406
C9    C     C_R   0.647830 0.410062 0.167473 0.204917
C10   C     C_R   0.733490 0.400065 0.183402 -0.013641
C11   C     C_R   0.816825 0.408053 0.159003 -0.041102
C12   C     C_R   0.817195 0.430887 0.119706 -0.120618
C13   C     C_R   0.701152 0.289907 0.236037 -0.064695
C14   C     C_R   0.692588 0.274753 0.276416 -0.007069
C15   C     C_R   0.723713 0.361066 0.307941 0.016231
C16   C     C_R   0.768258 0.463397 0.298751 0.233147
C17   C     C_R   0.775989 0.477428 0.257607 0.010796
C18   C     C_R   0.739673 0.389774 0.226487 -0.008564
C19   C     C_R   0.614633 0.349274 0.368159 0.229680
C20   C     C_R   0.584169 0.314093 0.405754 0.195001
C21   C     C_R   0.729635 0.272698 0.406934 -0.155381
C22   C     C_R   0.759907 0.308165 0.370302 -0.124775
C23   C     C_R   0.700343 0.341927 0.349914 0.013036
C24   C     C_R   0.638341 0.269439 0.423990 -0.031068
H1    H     H_    0.585781 0.443545 0.116411 0.179152
H2    H     H_    0.883543 0.440756 0.101656 0.161436
H3    H     H_    0.826838 0.304116 0.356645 0.158841
H4    H     H_    0.673106 0.223242 0.211713 0.152429
H5    H     H_    0.774380 0.241335 0.420473 0.173124
H6    H     H_    0.257613 0.737088 0.372468 0.152816
C25   C     C_R   0.247398 0.877685 0.392488 -0.012593
C26   C     C_R   0.224755 0.952876 0.379472 -0.035425
C27   C     C_R   0.212406 0.953681 0.337409 -0.021989
C28   C     C_R   0.216072 0.876000 0.308487 0.005300
C29   C     C_R   0.227048 0.795195 0.321633 -0.013551
C30   C     C_R   0.242832 0.796693 0.363193 -0.127785
C31   C     C_R   0.222741 0.818949 0.158378 -0.031816
C32   C     C_R   0.190448 0.798925 0.116507 -0.062605
C33   C     C_R   0.107371 0.909733 0.129610 0.169395
C34   C     C_R   0.139152 0.928749 0.171483 -0.021892
C35   C     C_R   0.190745 0.878180 0.186044 -0.038901
C36   C     C_1   0.203624 0.880903 0.229422 0.023949
C37   C     C_1   0.209969 0.879633 0.265401 0.024511
C38   C     C_R   0.123647 0.836218 0.102451 -0.026281
C39   C     C_R   0.634266 0.881693 0.394430 0.015762
C40   C     C_R   0.545658 0.837054 0.365610 -0.144300
C41   C     C_R   0.559694 0.837078 0.324344 -0.098052
C42   C     C_R   0.662266 0.879955 0.310973 0.000149
C43   C     C_R   0.752061 0.917245 0.338874 -0.003346
C44   C     C_R   0.738520 0.918669 0.381056 0.200755
C45   C     C_R   0.737838 0.947724 0.166885 0.000798
C46   C     C_R   0.749486 0.925970 0.124710 0.225377
C47   C     C_R   0.649014 0.739836 0.128011 -0.149827
C48   C     C_R   0.636022 0.761662 0.168737 -0.106779
C49   C     C_R   0.683429 0.864413 0.188694 -0.015617
C50   C     C_1   0.678914 0.879176 0.232075 0.030141
C51   C     C_1   0.672683 0.882338 0.268174 0.037205
C52   C     C_R   0.710086 0.820543 0.105966 0.015095
H7    H     H_    0.465360 0.809052 0.375131 0.142711
H8    H     H_    0.592938 0.697372 0.185284 0.183901
H9    H     H_    0.616274 0.658383 0.114576 0.164803
H10   H     H_    0.490223 0.806340 0.302855 0.156156
H11   H     H_    0.849320 0.401202 0.902000 0.174047
H12   H     H_    0.821225 0.337805 0.828921 0.156685
H13   H     H_    0.775437 0.245039 0.693489 0.150646
H14   H     H_    0.755758 0.217520 0.618915 0.145170
C53   C     C_R   0.616961 0.240285 0.615505 0.013251
C54   C     C_R   0.548032 0.265350 0.638845 -0.115575
C55   C     C_R   0.558960 0.279737 0.681417 -0.097339
C56   C     C_R   0.639225 0.270007 0.701221 0.050448
C57   C     C_R   0.712504 0.251956 0.678431 -0.068846
C58   C     C_R   0.701638 0.237296 0.635848 -0.111807
C59   C     C_R   0.753349 0.329581 0.845672 -0.135436
C60   C     C_R   0.769516 0.366268 0.887452 -0.131423
C61   C     C_R   0.582739 0.318271 0.889598 -0.045886
C62   C     C_R   0.564550 0.278909 0.847456 0.251410
C63   C     C_R   0.652896 0.290895 0.825132 0.045101
C64   C     C_1   0.646851 0.279407 0.781255 0.087307
C65   C     C_1   0.643656 0.274598 0.744739 0.060406
C66   C     C_R   0.686226 0.367549 0.909302 -0.024117
H15   H     H_    0.482075 0.268225 0.624237 0.164355
H16   H     H_    0.517144 0.315442 0.906613 0.209175
H17   H     H_    0.502376 0.294650 0.698814 0.148479
C67   C     C_R   0.069923 0.751310 0.907629 -0.015714
C68   C     C_R   0.101204 0.848173 0.894561 0.189605
C69   C     C_R   0.112847 0.854975 0.853195 -0.088949
C70   C     C_R   0.093636 0.767674 0.824556 -0.042110
C71   C     C_R   0.068155 0.672646 0.837495 -0.023004
C72   C     C_R   0.064864 0.666965 0.879259 -0.060645
C73   C     C_R   0.176096 0.758880 0.758283 0.031999
C74   C     C_R   0.180182 0.767544 0.717184 -0.077118
C75   C     C_R   0.113388 0.796891 0.698500 0.017354
C76   C     C_R   0.042391 0.818756 0.721275 -0.101195
C77   C     C_R   0.036691 0.808976 0.762390 -0.108959
C78   C     C_R   0.102668 0.778378 0.781139 0.021742
C79   C     C_R   0.156214 0.909804 0.645593 -0.092287
C80   C     C_R   0.201606 0.934789 0.608811 -0.015767
C81   C     C_R   0.173857 0.757778 0.590853 -0.124271
C82   C     C_R   0.128860 0.733949 0.627365 -0.122974
C83   C     C_R   0.126101 0.811623 0.655893 0.016929
C84   C     C_R   0.217575 0.860014 0.582263 0.011005
H18   H     H_    0.103938 0.657053 0.634778 0.122444
H19   H     H_    0.237486 0.753641 0.699774 0.131229
H20   H     H_    0.136675 0.928933 0.843098 0.189529
H21   H     H_    0.991413 0.842759 0.707208 0.138020
H22   H     H_    0.980371 0.824699 0.779622 0.127979
H23   H     H_    0.152429 0.969458 0.667599 0.144274
H24   H     H_    0.181086 0.697483 0.570663 0.148860
C85   C     C_R   0.653989 0.754717 0.916295 -0.021130
C86   C     C_R   0.577503 0.667294 0.888657 0.176038
C87   C     C_R   0.552823 0.680933 0.849646 -0.010979
C88   C     C_R   0.604656 0.780905 0.838352 -0.000013
C89   C     C_R   0.669059 0.867895 0.867522 -0.087232
C90   C     C_R   0.690943 0.856125 0.906562 -0.052526
C91   C     C_R   0.576857 0.866969 0.782159 0.220793
C92   C     C_R   0.586794 0.882098 0.741003 0.221269
C93   C     C_R   0.627715 0.828635 0.714253 -0.020971
C94   C     C_R   0.656022 0.759752 0.727966 -0.155003
C95   C     C_R   0.643813 0.742714 0.767968 -0.154539
C96   C     C_R   0.603927 0.794876 0.795278 -0.017412
C97   C     C_R   0.537109 0.784469 0.646065 -0.098838
C98   C     C_R   0.534672 0.800422 0.606163 -0.121416
C99   C     C_R   0.727028 0.917661 0.613698 -0.031118
C100  C     C_R   0.729206 0.900550 0.654346 0.006365
C101  C     C_R   0.632695 0.837195 0.670754 0.040100
C102  C     C_R   0.627758 0.871080 0.590032 0.002798
H25   H     H_    0.686512 0.718102 0.707408 0.133852
H26   H     H_    0.668067 0.690041 0.778023 0.131807
H27   H     H_    0.463030 0.734343 0.658394 0.129350
H28   H     H_    0.457484 0.762483 0.588928 0.149094
H29   H     H_    0.706562 0.945288 0.859228 0.164181
O14   O     O_R   0.828710 0.851830 0.052170 -0.410894
O15   O     O_R   0.005980 0.823990 0.047210 -0.434429
C103  C     C_R   0.054711 0.782890 0.063325 0.558181
O16   O     O_R   0.031900 0.688850 0.050170 -0.507612
O17   O     O_R   0.830940 0.518420 0.048680 -0.496995
C104  C     C_R   0.743740 0.486612 0.066039 0.548951
O18   O     O_R   0.668160 0.499860 0.053480 -0.510714
O19   O     O_R   0.689170 0.693840 0.050110 -0.522321
C105  C     C_R   0.741757 0.789689 0.066131 0.574567
O20   O     O_R   0.803860 0.812940 0.962540 -0.499942
O21   O     O_R   0.982950 0.787950 0.964120 -0.453780
C106  C     C_R   0.022758 0.731948 0.947373 0.563203
O22   O     O_R   0.007050 0.649970 0.960540 -0.504117
O23   O     O_R   0.807910 0.482370 0.965590 -0.501485
C107  C     C_R   0.711766 0.435820 0.949544 0.552368
O24   O     O_R   0.643310 0.460980 0.963840 -0.463992
O25   O     O_R   0.666140 0.657800 0.967020 -0.443931
C108  C     C_R   0.708849 0.741577 0.951233 0.545163
Cr4   Cr    Cr6+3 0.903360 0.812540 0.006510 1.200512
Cr5   Cr    Cr6+3 0.914630 0.587050 0.006280 1.077830
Cr6   Cr    Cr6+3 0.673560 0.582680 0.008540 1.118694
O26   O     O_3   0.830520 0.660760 0.007110 -0.297192
N1    N     N_R   0.496147 0.319976 0.424167 0.116359
O27   O     O_R   0.404548 0.281571 0.403239 -0.257959
O28   O     O_R   0.509287 0.369103 0.461242 -0.276682
C109  C     C_1   0.905316 0.398155 0.174476 0.237241
N2    N     N_1   0.976215 0.390302 0.186900 -0.181540
C110  C     C_1   0.225089 0.738853 0.088167 0.260504
N3    N     N_1   0.252881 0.691021 0.065598 -0.216672
C111  C     C_1   0.285672 0.775655 0.173191 0.238317
N4    N     N_1   0.336008 0.741301 0.184989 -0.238957
C112  C     C_1   0.227574 0.712290 0.292867 0.212012
N5    N     N_1   0.227969 0.645888 0.269855 -0.214981
C113  C     C_1   0.214458 0.029599 0.408826 0.291651
N6    N     N_1   0.205888 0.090661 0.432211 -0.149642
C114  C     C_1   0.116915 0.999176 0.199654 0.308515
N7    N     N_1   0.098931 0.055360 0.222056 -0.167413
N8    N     N_R   0.055308 0.962417 0.115210 0.098892
O29   O     O_R   0.098345 0.023675 0.088422 -0.236236
O30   O     O_R   0.972108 0.958916 0.132179 -0.317401
C115  C     C_1   0.201344 0.037365 0.324007 0.263472
N9    N     N_1   0.193218 0.104625 0.313468 -0.149728
N10   N     N_R   0.799069 0.009013 0.101062 0.106659
O31   O     O_R   0.884840 0.095676 0.115650 -0.227733
O32   O     O_R   0.756381 0.999206 0.065020 -0.298971
C116  C     C_1   0.781149 0.054108 0.187817 0.288084
N11   N     N_1   0.816018 0.139130 0.204677 -0.243343
C117  C     C_1   0.856996 0.951844 0.324061 0.301234
N12   N     N_1   0.940676 0.979231 0.312050 -0.206773
N13   N     N_R   0.829320 0.957353 0.410135 0.093560
O33   O     O_R   0.824005 0.907818 0.440096 -0.275439
O34   O     O_R   0.916564 0.043399 0.407477 -0.294907
N14   N     N_R   0.458099 0.232011 0.827776 0.097594
O35   O     O_R   0.430337 0.164870 0.794157 -0.272733
O36   O     O_R   0.385095 0.248242 0.845423 -0.249112
N15   N     N_R   0.124105 0.940718 0.922966 0.100652
O37   O     O_R   0.107185 0.012591 0.911660 -0.283873
O38   O     O_R   0.175328 0.960048 0.958234 -0.275071
C118  C     C_1   0.059649 0.575328 0.892308 0.256587
N16   N     N_1   0.057080 0.502750 0.902576 -0.232698
C119  C     C_1   0.645450 0.168952 0.284664 0.224119
N17   N     N_1   0.607650 0.084308 0.291284 -0.296212
C120  C     C_1   0.248213 0.730084 0.776008 0.267229
N18   N     N_1   0.305169 0.705684 0.789924 -0.215575
C121  C     C_1   0.236146 0.039094 0.600779 0.240109
N19   N     N_1   0.263443 0.122681 0.594412 -0.251973
C122  C     C_1   0.038713 0.578986 0.807908 0.206886
N20   N     N_1   0.014993 0.504263 0.784365 -0.283438
N21   N     N_R   0.528109 0.564618 0.899254 0.092188
O39   O     O_R   0.465406 0.543458 0.928852 -0.264443
O40   O     O_R   0.533502 0.489096 0.875907 -0.334104
C123  C     C_1   0.754668 0.950275 0.935579 0.278986
N22   N     N_1   0.805563 0.025678 0.958766 -0.170129
C124  C     C_1   0.828989 0.951473 0.679783 0.210435
N23   N     N_1   0.908615 0.992098 0.700115 -0.278077
N24   N     N_R   0.552518 0.948937 0.726163 0.101078
O41   O     O_R   0.459316 0.939451 0.733812 -0.282910
O42   O     O_R   0.613253 0.018092 0.704310 -0.342111
N25   N     N_R   0.543843 0.927549 0.810485 0.098111
O43   O     O_R   0.583205 0.027131 0.810352 -0.274371
O44   O     O_R   0.479668 0.885445 0.838109 -0.293159
C125  C     C_1   0.474530 0.592396 0.821170 0.300499
N26   N     N_1   0.411961 0.521722 0.798389 -0.203621
N27   N     N_R   0.560629 0.401384 0.191274 0.097117
O45   O     O_R   0.521525 0.332738 0.215604 -0.260241
O46   O     O_R   0.512427 0.454482 0.185472 -0.303460
C126  C     C_1   0.825939 0.983628 0.596892 0.238735
N28   N     N_1   0.905048 0.036270 0.583524 -0.225807
N29   N     N_R   0.803489 0.551768 0.331000 0.090439
O47   O     O_R   0.860672 0.559688 0.363111 -0.309800
O48   O     O_R   0.776817 0.623626 0.328824 -0.260384
C127  C     C_1   0.822326 0.581261 0.247152 0.276491
N30   N     N_1   0.859387 0.664151 0.238713 -0.252029
N31   N     N_R   0.557625 0.390607 0.348415 0.118928
O49   O     O_R   0.544347 0.465617 0.368203 -0.208397
O50   O     O_R   0.516974 0.352176 0.310914 -0.255932

loop_
_geom_bond_atom_site_label_1
_geom_bond_atom_site_label_2
_geom_bond_distance
_ccdc_geom_bond_type
N15   O37   1.301521 A    
N10   O31   1.301261 A    
C93   C94   1.393403 A    
C92   N24   1.438323 S    
O14   Cr4   2.031823 S    
C47   H9    1.083339 S    
C127  N30   1.157488 T    
C67   C106  1.486500 S    
C57   C58   1.398148 A    
C88   C89   1.394668 A    
C11   C109  1.444762 S    
O23   C107  1.278001 A    
C35   C36   1.446328 S    
O15   C103  1.282111 A    
C95   C96   1.402707 A    
Cr5   O26   1.972400 S    
O4    Cr2   1.929462 S    
C32   C38   1.420047 A    
C55   C56   1.399132 A    
C75   C76   1.398637 A    
C4    O9    1.273839 A    
N15   O38   1.301614 A    
O8    Cr1   1.923988 S    
C10   C11   1.409900 A    
C13   C14   1.388977 A    
C53   C54   1.407806 A    
C55   H17   1.083610 S    
C54   H15   1.082451 S    
C97   H27   1.084072 S    
O25   C108  1.283479 A    
C21   C22   1.383668 A    
N21   O40   1.299958 A    
C89   C90   1.389475 A    
C21   C24   1.406615 A    
C47   C48   1.380110 A    
C88   C96   1.477228 S    
C120  N18   1.156953 T    
C95   H26   1.083822 S    
C26   C113  1.450559 S    
C99   C102  1.418461 A    
O16   Cr5   2.036230 S    
C100  C124  1.449555 S    
N8    O30   1.299362 A    
C73   C74   1.389721 A    
N13   O33   1.301395 A    
C46   C52   1.419137 A    
C5    O11   1.272053 A    
C73   C120  1.444655 S    
H6    C30   1.084247 S    
C87   C125  1.448324 S    
C34   C35   1.404914 A    
C70   C78   1.474143 S    
N31   O49   1.301109 A    
O22   Cr5   2.039544 S    
H12   C59   1.084051 S    
N13   O34   1.301310 A    
C77   C78   1.405542 A    
C71   C72   1.402919 A    
H11   C60   1.079076 S    
C70   C71   1.406631 A    
C69   C70   1.397978 A    
C61   C66   1.405658 A    
C85   C90   1.419589 A    
C10   C18   1.469545 S    
C25   C26   1.419730 A    
N29   O48   1.301366 A    
N14   O35   1.301434 A    
C118  N16   1.157454 T    
C26   C27   1.412170 A    
C7    C8    1.402133 A    
O21   C106  1.281310 A    
C48   C49   1.389039 A    
C46   N10   1.440549 S    
O19   Cr6   1.912064 S    
C68   N15   1.438634 S    
C61   C62   1.410188 A    
C81   H24   1.083151 S    
C33   N8    1.434161 S    
C53   C58   1.409051 A    
C94   H25   1.083731 S    
C109  N2    1.157230 T    
Cr3   O13   1.971305 S    
C8    H1    1.083147 S    
O18   Cr6   2.044587 S    
C39   C40   1.404283 A    
C29   C112  1.445658 S    
C39   C44   1.417547 A    
C74   H19   1.085364 S    
C79   C80   1.398644 A    
C125  N26   1.157332 T    
C17   C18   1.409625 A    
C2    O5    1.274363 A    
C73   C78   1.411968 A    
C1    C39   1.473406 S    
C100  C101  1.410387 A    
C22   C23   1.393228 A    
O7    C6    1.270922 A    
O19   C105  1.271860 A    
C3    C25   1.489340 S    
O1    Cr1   2.041179 S    
C41   C42   1.393602 A    
C29   C30   1.395405 A    
C81   C84   1.406537 A    
C68   C69   1.398036 A    
O10   Cr2   1.910003 S    
C20   C24   1.418365 A    
Cr1   O13   1.971262 S    
O1    C3    1.273932 A    
C8    C9    1.395764 A    
N24   O41   1.301291 A    
C91   C96   1.417606 A    
C98   C102  1.407382 A    
O20   C108  1.268721 A    
C123  N22   1.157431 T    
C31   C35   1.406136 A    
C122  N20   1.157435 T    
O6    C3    1.274439 A    
C5    C53   1.482007 S    
C28   C29   1.406082 A    
C9    C10   1.414059 A    
C31   C32   1.409916 A    
C13   C18   1.393781 A    
O12   Cr3   1.927495 S    
C45   C46   1.421181 A    
C31   C111  1.451888 S    
C115  N9    1.157131 T    
N31   O50   1.300981 A    
C19   C20   1.412557 A    
C32   C110  1.451147 S    
C113  N6    1.157465 T    
C85   C108  1.487829 S    
C114  N7    1.157234 T    
C40   C41   1.387066 A    
C17   C127  1.448485 S    
C124  N23   1.157289 T    
C72   C118  1.451196 S    
N29   O47   1.301200 A    
C106  O22   1.267259 A    
O24   Cr6   2.028931 S    
O25   Cr6   1.926202 S    
O7    Cr1   2.037622 S    
C42   C51   1.434923 S    
C82   H18   1.083736 S    
C14   C119  1.446371 S    
C99   C126  1.449207 S    
O12   C6    1.274655 A    
C67   C72   1.423342 A    
C52   C105  1.481050 S    
C47   C52   1.406945 A    
N27   O46   1.301581 A    
C63   C64   1.441941 S    
H13   C57   1.083592 S    
C7    C12   1.401807 A    
C54   C55   1.397975 A    
C60   C66   1.402657 A    
C62   C63   1.415808 A    
C6    C84   1.478647 S    
C119  N17   1.157309 T    
O23   Cr5   1.918300 S    
C86   N21   1.434026 S    
C79   H23   1.084897 S    
C80   C84   1.420140 A    
C38   C103  1.497098 S    
Cr6   O26   1.975747 S    
N27   O45   1.300883 A    
Cr2   O13   1.975554 S    
N25   O43   1.301442 A    
C64   C65   1.205586 T    
N25   O44   1.301036 A    
C7    C104  1.469507 S    
C13   H4    1.084922 S    
C48   H8    1.084766 S    
C85   C86   1.417885 A    
C27   C28   1.409819 A    
C2    C24   1.480517 S    
C40   H7    1.083053 S    
C126  N28   1.157446 T    
C28   C37   1.445637 S    
C74   C75   1.401102 A    
C21   H5    1.083074 S    
C87   C88   1.409731 A    
C59   C60   1.392552 A    
C79   C83   1.398947 A    
O17   Cr5   1.924188 S    
C69   H20   1.083962 S    
O21   Cr4   1.915379 S    
C107  O24   1.274227 A    
C16   N29   1.440418 S    
C97   C101  1.393020 A    
C14   C15   1.412254 A    
C9    N27   1.441047 S    
N10   O32   1.301369 A    
O9    Cr2   2.045591 S    
O2    Cr1   1.920115 S    
C56   C57   1.398798 A    
C93   C101  1.469001 S    
C15   C16   1.414272 A    
O15   Cr4   1.925214 S    
C80   C121  1.443993 S    
C50   C51   1.199628 T    
C19   N31   1.436826 S    
O6    Cr3   1.914434 S    
O20   Cr4   2.042182 S    
C99   C100  1.413749 A    
N24   O42   1.301039 A    
O11   Cr3   2.029716 S    
C81   C82   1.385730 A    
C25   C30   1.406045 A    
C34   C114  1.449756 S    
C112  N5    1.157237 T    
C97   C98   1.384223 A    
C94   C95   1.385170 A    
C20   N1    1.435102 S    
C103  O16   1.273639 A    
C16   C17   1.409846 A    
C75   C83   1.462805 S    
O2    C1    1.277172 A    
C36   C37   1.203330 T    
C71   C122  1.452841 S    
C49   C50   1.433736 S    
C110  N3    1.157430 T    
C45   C116  1.446539 S    
C91   C92   1.414858 A    
C77   H22   1.083548 S    
O5    Cr3   2.046555 S    
C91   N25   1.441340 S    
C76   H21   1.083049 S    
N8    O29   1.301120 A    
O4    C2    1.275360 A    
C27   C115  1.450870 S    
N1    O28   1.301157 A    
C98   H28   1.083182 S    
C86   C87   1.411199 A    
H14   C58   1.083028 S    
C19   C23   1.412011 A    
C42   C43   1.408619 A    
C12   H2    1.084365 S    
C67   C68   1.417159 A    
C4    C102  1.481858 S    
C92   C93   1.415030 A    
C45   C49   1.410624 A    
C43   C44   1.414749 A    
C61   H16   1.082882 S    
C59   C63   1.397939 A    
C90   C123  1.446743 S    
C89   H29   1.084970 S    
C44   N13   1.439901 S    
C56   C65   1.438794 S    
C111  N4    1.157413 T    
C33   C34   1.409726 A    
C117  N12   1.156981 T    
O3    Cr2   2.027565 S    
N21   O39   1.300975 A    
C22   H3    1.083857 S    
C121  N19   1.157336 T    
Cr4   O26   1.973970 S    
N14   O36   1.301590 A    
C116  N11   1.157137 T    
N1    O27   1.301145 A    
C76   C77   1.393905 A    
C11   C12   1.395635 A    
C15   C23   1.471202 S    
O10   C5    1.276760 A    
O17   C104  1.275544 A    
O14   C105  1.278482 A    
C82   C83   1.396838 A    
C104  O18   1.268171 A    
C33   C38   1.418824 A    
C62   N14   1.442451 S    
C1    O3    1.269478 A    
O8    C4    1.274986 A    
C66   C107  1.482760 S    
C43   C117  1.447244 S    
C41   H10   1.084290 S    
