data_mof_unit_27571.cif
_audit_creation_date              2012-12-11T18:34:51-0500
_audit_creation_method            fapswitch 2.2
_symmetry_space_group_name_H-M    P1
_symmetry_Int_Tables_number       1
_space_group_crystal_system       triclinic
_cell_length_a                    8.280567
_cell_length_b                    14.294117
_cell_length_c                    22.842392
_cell_angle_alpha                 93.210002
_cell_angle_beta                  89.283743
_cell_angle_gamma                 91.624104
_cell_volume                      2698.21516843

loop_
_atom_site_label
_atom_site_type_symbol
_atom_type_description
_atom_site_fract_x
_atom_site_fract_y
_atom_site_fract_z
_atom_type_partial_charge
Ba1   Ba    Ba6+2 0.846250 0.544220 0.470860 1.645301
Ba2   Ba    Ba6+2 0.343570 0.455860 0.529140 1.635903
C1    C     C_3   0.668529 0.892487 0.318248 -0.353737
C2    C     C_R   0.091947 0.573859 0.936837 -0.023095
C3    C     C_R   0.044129 0.569322 0.877225 0.593372
C4    C     C_3   0.145922 0.794095 0.307056 0.515539
C5    C     C_R   0.964495 0.407424 0.883567 0.569825
C6    C     C_R   0.011208 0.409889 0.943000 -0.015634
C7    C     C_R   0.075226 0.493534 0.969768 -0.052956
C8    C     C_R   0.155597 0.657147 0.964479 -0.078764
C9    C     C_R   0.201441 0.660482 0.023362 -0.075449
C10   C     C_R   0.185291 0.580636 0.056739 -0.015911
C11   C     C_R   0.122062 0.496884 0.029798 -0.053331
C12   C     C_3   0.641411 0.793268 0.338051 0.349047
C13   C     C_R   0.995598 0.329945 0.976279 -0.075001
C14   C     C_R   0.042625 0.333055 0.034950 -0.076808
C15   C     C_R   0.106037 0.416361 0.062570 -0.026699
C16   C     C_3   0.063793 0.717720 0.267740 -0.266488
C17   C     C_R   0.154094 0.420641 0.122062 0.591583
C18   C     C_R   0.230359 0.583148 0.116432 0.579977
C19   C     C_2   0.796575 0.438124 0.770786 -0.085996
C20   C     C_3   0.774799 0.408321 0.706988 -0.046655
C21   C     C_1   0.999711 0.516802 0.684809 0.021285
C22   C     C_2   0.045532 0.520538 0.741032 -0.129004
C23   C     C_3   0.517048 0.319448 0.355349 0.295145
C24   C     C_2   0.936655 0.481707 0.788307 0.202558
C25   C     C_R   0.406176 0.550655 0.229857 -0.108647
C26   C     C_R   0.444045 0.560816 0.289633 -0.015241
C27   C     C_R   0.194270 0.479940 0.314814 0.028627
C28   C     C_3   0.264867 0.743272 0.642302 0.505789
C29   C     C_R   0.152650 0.471787 0.254859 -0.099435
C30   C     C_R   0.257422 0.508398 0.211338 0.201841
C31   C     C_2   0.869600 0.468532 0.666083 -0.276860
C32   C     C_R   0.686913 0.935897 0.535033 -0.046746
C33   C     C_R   0.509899 0.802143 0.499488 0.023681
C34   C     C_3   0.507441 0.293920 0.289940 -0.365403
C35   C     C_R   0.369886 0.770514 0.470658 -0.270856
C36   C     C_R   0.269610 0.833272 0.445914 0.018320
C37   C     C_R   0.314830 0.927880 0.445257 -0.148640
C38   C     C_R   0.457896 0.960910 0.472729 0.004048
C39   C     C_R   0.553393 0.898993 0.502604 -0.031986
C40   C     C_3   0.269755 0.843727 0.622890 -0.324371
C41   C     C_R   0.639948 0.091994 0.502494 -0.047814
C42   C     C_R   0.733685 0.031460 0.534650 -0.023317
C43   C     C_R   0.684121 0.187991 0.502534 0.022950
C44   C     C_R   0.819258 0.222745 0.533224 -0.329318
C45   C     C_3   0.101951 0.255757 0.696740 0.332286
C46   C     C_R   0.919044 0.163194 0.561081 0.020116
C47   C     C_R   0.873556 0.068161 0.564810 0.125207
C48   C     C_R   0.503221 0.055550 0.471933 -0.032739
C49   C     C_3   0.021305 0.257249 0.412542 0.306522
C50   C     C_3   0.019436 0.151197 0.401399 -0.373508
C51   C     C_3   0.685153 0.662851 0.641755 0.292980
C52   C     C_3   0.732200 0.694701 0.704097 -0.400967
C53   C     C_3   0.299553 0.854037 0.222216 -0.260183
C54   C     C_3   0.907884 0.007436 0.659839 -0.210609
C55   C     C_3   0.204575 0.775642 0.748454 -0.193628
C56   C     C_3   0.127116 0.230177 0.759606 -0.323725
C57   C     C_3   0.556612 0.206365 0.670027 0.374540
C58   C     C_3   0.522387 0.110920 0.694608 -0.369144
C59   C     C_R   0.336992 0.527140 0.331476 -0.295293
H1    H     H_    0.724000 0.784144 0.375029 0.110235
H2    H     H_    0.587344 0.608392 0.643252 0.058029
H3    H     H_    0.791567 0.901258 0.299257 0.167143
H4    H     H_    0.758028 0.633641 0.729867 0.073694
H5    H     H_    0.633118 0.733688 0.726454 0.137128
H6    H     H_    0.514723 0.785578 0.353698 -0.057879
H7    H     H_    0.654769 0.943572 0.356303 0.075295
H8    H     H_    0.394034 0.335979 0.371875 0.019902
H9    H     H_    0.598517 0.382170 0.361962 0.061585
H10   H     H_    0.424311 0.232307 0.281924 0.135851
H11   H     H_    0.461489 0.353599 0.266675 0.072013
H12   H     H_    0.185703 0.887429 0.649210 0.111260
H13   H     H_    0.629288 0.276906 0.272217 0.131177
H14   H     H_    0.579404 0.907899 0.284679 0.100917
H15   H     H_    0.151599 0.685757 0.236587 0.095316
H16   H     H_    0.168849 0.322963 0.690091 0.087212
H17   H     H_    0.970717 0.264332 0.690247 -0.056225
H18   H     H_    0.248673 0.201729 0.765165 0.144518
H19   H     H_    0.118591 0.294039 0.788964 0.126667
H20   H     H_    0.034461 0.177124 0.772275 0.113369
H21   H     H_    0.690093 0.216241 0.666383 -0.082493
H22   H     H_    0.503352 0.205775 0.625591 0.085867
H23   H     H_    0.393604 0.874940 0.627606 0.091263
H24   H     H_    0.567389 0.055223 0.663319 0.064241
H25   H     H_    0.391054 0.097920 0.700841 0.157120
H26   H     H_    0.253090 0.763129 0.326663 -0.081288
H27   H     H_    0.583778 0.106810 0.737292 0.110850
H28   H     H_    0.028510 0.269794 0.058711 0.123383
H29   H     H_    0.947074 0.264278 0.956990 0.122507
H30   H     H_    0.249620 0.726181 0.042729 0.117757
H31   H     H_    0.492325 0.575829 0.197954 0.118002
H32   H     H_    0.170267 0.720288 0.940626 0.115847
H33   H     H_    0.163916 0.549506 0.752852 0.118448
H34   H     H_    0.233754 0.844526 0.576350 0.062948
H35   H     H_    0.710187 0.412231 0.802555 0.119750
H36   H     H_    0.039163 0.437445 0.242353 0.125130
H37   H     H_    0.848685 0.455254 0.619526 0.080265
H38   H     H_    0.333669 0.697135 0.470364 0.076478
H39   H     H_    0.236783 0.975629 0.424649 0.067776
H40   H     H_    0.853527 0.296257 0.531999 0.068956
H41   H     H_    0.754847 0.890379 0.560675 0.114039
H42   H     H_    0.429065 0.100083 0.447412 0.094201
H43   H     H_    0.016569 0.661807 0.295355 0.126804
H44   H     H_    0.963687 0.746646 0.243094 0.146472
H45   H     H_    0.899211 0.279792 0.425431 0.001528
H46   H     H_    0.351577 0.706337 0.613115 0.043256
H47   H     H_    0.991421 0.115946 0.442434 0.059971
H48   H     H_    0.840398 0.742082 0.703020 0.130059
H49   H     H_    0.369005 0.533621 0.377329 0.083275
H50   H     H_    0.246821 0.928061 0.300676 0.189051
H51   H     H_    0.358273 0.920073 0.208200 0.113678
H52   H     H_    0.222626 0.825558 0.185635 0.170790
H53   H     H_    0.394463 0.803437 0.231126 0.141705
H54   H     H_    0.997911 0.948159 0.580700 0.199223
H55   H     H_    0.801850 0.958293 0.661504 0.098491
H56   H     H_    0.107173 0.276522 0.448360 0.073664
H57   H     H_    0.874087 0.077930 0.678110 0.110150
H58   H     H_    0.003309 0.982729 0.688231 0.109345
H59   H     H_    0.362490 0.677468 0.713075 0.187930
H60   H     H_    0.262234 0.772500 0.791898 0.134546
H61   H     H_    0.091814 0.731999 0.748471 0.143174
H62   H     H_    0.176068 0.849765 0.742587 0.092834
H63   H     H_    0.926581 0.129326 0.368338 0.132131
H64   H     H_    0.139750 0.128563 0.384943 0.115088
H65   H     H_    0.791577 0.633034 0.618678 0.046831
N1    N     N_R   0.982529 0.486379 0.850544 -0.420734
N2    N     N_R   0.213007 0.503982 0.149153 -0.421036
N3    N     N_2   0.200532 0.873368 0.273992 -0.425129
N4    N     N_2   0.967361 0.012046 0.600128 -0.413818
N5    N     N_2   0.314552 0.740313 0.703178 -0.445187
O1    O     O_2   0.901900 0.448470 0.362340 -0.456329
O2    O     O_2   0.253789 0.165392 0.549561 -0.480468
O3    O     O_3   0.160796 0.184397 0.658322 -0.590200
O4    O     O_3   0.142240 0.449440 0.433360 -0.494629
O5    O     O_3   0.549340 0.612930 0.525560 -0.487180
O6    O     O_2   0.396530 0.270940 0.479440 -0.467429
O7    O     O_3   0.577091 0.243209 0.383564 -0.644746
O8    O     O_2   0.443989 0.459215 0.710495 -0.499601
O9    O     O_3   0.487574 0.277244 0.706909 -0.595152
O10   O     O_2   0.054874 0.639868 0.849512 -0.625218
O11   O     O_2   0.908336 0.334166 0.861254 -0.619912
O12   O     O_3   0.631572 0.740672 0.613907 -0.651329
O13   O     O_2   0.145692 0.349550 0.149386 -0.596787
O14   O     O_2   0.284361 0.656500 0.139230 -0.632891
O15   O     O_3   0.645560 0.619080 0.391970 -0.492488
O16   O     O_2   0.778597 0.556093 0.291105 -0.491657
O17   O     O_3   0.067595 0.298559 0.360754 -0.627333
O18   O     O_3   0.673421 0.727775 0.291308 -0.607199
O19   O     O_2   0.793170 0.729090 0.520590 -0.438640
O20   O     O_3   0.052800 0.667320 0.419180 -0.476504
O21   O     O_2   0.940014 0.834467 0.457211 -0.488713
O22   O     O_3   0.030482 0.826241 0.348718 -0.610325
O23   O     O_2   0.287790 0.551560 0.637690 -0.493717
O24   O     O_3   0.047460 0.550640 0.566640 -0.463978
O25   O     O_3   0.544140 0.380990 0.608030 -0.475227
O26   O     O_3   0.109635 0.702816 0.633771 -0.642461
O27   O     O_3   0.640350 0.387150 0.474440 -0.472356
O28   O     O_3   0.136890 0.332750 0.580830 -0.493204
P1    P     P_3+3 0.074990 0.420800 0.372080 0.995311
P2    P     P_3+3 0.618830 0.715330 0.538180 0.965813
P3    P     P_3+3 0.074127 0.789835 0.418381 0.948061
P4    P     P_3+3 0.114710 0.579280 0.627920 0.975175
P5    P     P_3+3 0.116941 0.211238 0.586688 0.966674
P6    P     P_3+3 0.636039 0.614681 0.315391 0.943049
P7    P     P_3+3 0.578063 0.270581 0.459182 0.939831
P8    P     P_3+3 0.561274 0.385330 0.684067 0.946929

loop_
_geom_bond_atom_site_label_1
_geom_bond_atom_site_label_2
_ccdc_geom_bond_type
C42   C47   A    
C6    C7    A    
C28   O26   S    
C57   C58   S    
C19   C24   D    
Ba2   O24   S    
C53   H51   S    
H59   N5    S    
C50   H63   S    
C1    H7    S    
C57   H21   S    
Ba1   O1    S    
C58   H27   S    
C5    C6    A    
C28   N5    S    
C52   H4    S    
C43   C44   A    
C33   P2    S    
C49   O17   S    
Ba1   O27   S    
C33   C35   A    
C57   H22   S    
C18   N2    Am   
C36   C37   A    
C28   H46   S    
O12   P2    S    
C13   C14   A    
C12   H1    S    
C17   O13   D    
C17   N2    Am   
Ba1   Ba2   S    
O17   P1    S    
Ba1   O24   S    
C7    C11   A    
O16   P6    D    
C49   H56   S    
C55   H61   S    
H50   N3    S    
C31   H37   S    
C14   C15   A    
C21   C31   D    
C16   H15   S    
C12   H6    S    
Ba1   O5    S    
C1    H14   S    
C43   P7    S    
O26   P4    S    
C34   H10   S    
C56   H19   S    
C26   C59   A    
O9    P8    S    
Ba1   P2    S    
C48   H42   S    
Ba2   O23   S    
C27   C59   A    
C19   C20   S    
C10   C18   A    
Ba1   O15   S    
C32   C39   A    
C4    N3    S    
C59   H49   S    
O6    P7    D    
C27   P1    S    
C21   P4    S    
O5    P2    S    
C4    C16   S    
C44   H40   S    
C44   C46   A    
C49   C50   S    
O23   P4    D    
Ba1   O19   S    
C40   H23   S    
C51   H65   S    
C56   H20   S    
C37   C38   A    
C58   H25   S    
Ba2   O28   S    
C16   H43   S    
C53   H52   S    
C8    H32   S    
O24   P4    S    
C1    H3    S    
Ba2   O5    S    
C4    H26   S    
C40   H34   S    
C52   H48   S    
C51   O12   S    
C41   C42   A    
C35   C36   A    
C22   H33   S    
C55   H62   S    
C3    O10   D    
C29   C30   A    
C36   P3    S    
Ba2   O27   S    
O20   P3    S    
C32   C42   A    
C3    N1    Am   
C54   H55   S    
O18   P6    S    
C25   H31   S    
C32   H41   S    
O8    P8    D    
C41   C43   A    
C1    C12   S    
C34   H13   S    
C26   P6    S    
C52   H5    S    
C20   P8    S    
C56   H18   S    
C46   C47   A    
C19   H35   S    
O15   P6    S    
C6    C13   A    
C45   O3    S    
C54   H58   S    
C23   H8    S    
C45   H16   S    
C2    C8    A    
O2    P5    D    
C35   H38   S    
O27   P7    S    
C20   C31   S    
C38   C39   A    
C40   H12   S    
Ba2   O25   S    
O4    P1    S    
C25   C30   A    
O28   P5    S    
Ba2   O6    S    
C54   H57   S    
C55   N5    S    
Ba1   P1    S    
C22   C24   S    
C2    C3    A    
Ba2   P4    S    
C50   H64   S    
O19   P2    D    
C41   C48   A    
C51   C52   S    
C46   P5    S    
C53   H53   S    
C47   N4    S    
Ba2   O4    S    
O25   P8    S    
C11   C15   A    
O22   P3    S    
O7    P7    S    
C30   N2    S    
C53   N3    S    
C23   O7    S    
C16   H44   S    
C27   C29   A    
C23   C34   S    
C13   H29   S    
C51   H2    S    
C37   H39   S    
C57   O9    S    
C49   H45   S    
C38   C48   A    
C12   O18   S    
C15   C17   A    
O3    P5    S    
Ba1   O20   S    
C24   N1    S    
C29   H36   S    
C33   C39   A    
O21   P3    D    
C4    O22   S    
C8    C9    A    
C21   C22   D    
C55   H60   S    
C9    H30   S    
C14   H28   S    
C10   C11   A    
C50   H47   S    
C25   C26   A    
C18   O14   D    
C28   C40   S    
C58   H24   S    
C23   H9    S    
C45   H17   S    
C5    N1    Am   
C2    C7    A    
Ba1   O4    S    
O1    P1    D    
C5    O11   D    
C54   N4    S    
C34   H11   S    
C9    C10   A    
C45   C56   S    
H54   N4    S    
