data_mof_unit_24019.cif
_audit_creation_date              2012-12-10T19:44:34-0500
_audit_creation_method            fapswitch 2.2
_symmetry_space_group_name_H-M    P1
_symmetry_Int_Tables_number       1
_space_group_crystal_system       triclinic
_cell_length_a                    8.639538
_cell_length_b                    15.004383
_cell_length_c                    14.38667
_cell_angle_alpha                 90.702945
_cell_angle_beta                  98.847691
_cell_angle_gamma                 94.352738
_cell_volume                      1836.90813462

loop_
_atom_site_label
_atom_site_type_symbol
_atom_type_description
_atom_site_fract_x
_atom_site_fract_y
_atom_site_fract_z
_atom_type_partial_charge
C1    C     C_R   0.500130 0.328205 0.499563 0.885189
C2    C     C_R   0.498592 0.671904 0.500232 0.895226
C3    C     C_R   0.369173 0.461064 0.092276 0.137047
C4    C     C_R   0.630746 0.539568 0.907769 0.140375
C5    C     C_R   0.380005 0.451814 0.191614 0.416302
C6    C     C_R   0.620561 0.547925 0.808289 0.415662
C7    C     C_R   0.600818 0.558311 0.214421 0.334667
C8    C     C_R   0.397325 0.443127 0.785845 0.337442
C9    C     C_R   0.594602 0.563182 0.116516 -0.239447
C10   C     C_R   0.403757 0.438474 0.883739 -0.235931
C11   C     C_R   0.493681 0.504143 0.053099 0.009160
C12   C     C_R   0.505883 0.496967 0.947077 0.007102
C13   C     C_R   0.201440 0.499777 0.475201 0.974955
C14   C     C_R   0.798556 0.500275 0.524788 0.979989
C15   C     C_2   0.035963 0.499141 0.462160 -0.345517
C16   C     C_2   0.964045 0.501175 0.537813 -0.340281
C17   C     C_R   0.429083 0.092462 0.566497 -0.160769
C18   C     C_R   0.455207 0.902597 0.414094 -0.153464
C19   C     C_R   0.432012 0.184446 0.567325 -0.154039
C20   C     C_R   0.456506 0.810715 0.414802 -0.143461
C21   C     C_R   0.498022 0.232373 0.498423 -0.024259
C22   C     C_R   0.495547 0.767813 0.500210 -0.044049
C23   C     C_R   0.561741 0.188339 0.428692 -0.143366
C24   C     C_R   0.532325 0.817124 0.584944 -0.145801
C25   C     C_R   0.561434 0.096231 0.428846 -0.154482
C26   C     C_R   0.533699 0.909152 0.583981 -0.167509
C27   C     C_R   0.494963 0.048252 0.497789 0.103317
C28   C     C_R   0.494898 0.951950 0.498575 0.101351
H1    H     H_    0.973603 0.496620 0.390440 0.236166
H2    H     H_    0.026374 0.503845 0.609529 0.238470
H3    H     H_    0.374789 0.055876 0.619074 0.152048
H4    H     H_    0.422183 0.935010 0.347899 0.153150
H5    H     H_    0.381078 0.217795 0.620990 0.199980
H6    H     H_    0.425729 0.773397 0.348751 0.184426
H7    H     H_    0.614102 0.225116 0.375482 0.168322
H8    H     H_    0.561877 0.785020 0.651608 0.209175
H9    H     H_    0.614611 0.062629 0.376127 0.150012
H10   H     H_    0.566320 0.946901 0.649653 0.154984
H11   H     H_    0.663091 0.618056 0.091525 0.228688
H12   H     H_    0.333730 0.384306 0.908751 0.229594
N1    N     N_R   0.500000 0.499980 0.252470 -0.196102
N2    N     N_R   0.500000 0.500020 0.747530 -0.192989
O1    O     O_R   0.500010 0.369070 0.579480 -0.607332
O2    O     O_R   0.499990 0.630930 0.420520 -0.606286
O3    O     O_R   0.500010 0.369060 0.420520 -0.567485
O4    O     O_R   0.499990 0.630940 0.579480 -0.572419
O5    O     O_R   0.271750 0.500000 0.560890 -0.599151
O6    O     O_R   0.728250 0.500000 0.439110 -0.602486
O7    O     O_R   0.271750 0.499990 0.401930 -0.552361
O8    O     O_R   0.728250 0.500010 0.598070 -0.545229
Zn1   Zn    Zn3+2 0.500000 0.500010 0.606140 1.065932
Zn2   Zn    Zn3+2 0.500000 0.499990 0.393860 1.064346
Br1   Br    Br    0.162513 0.449889 0.016848 -0.272301
Br2   Br    Br    0.836555 0.553333 0.984119 -0.273391
S1    S     S_3+6 0.217328 0.385721 0.228059 0.091231
O9    O     O_2   0.083608 0.444691 0.225467 -0.262769
O10   O     O_2   0.167716 0.310365 0.157300 -0.252309
O11   O     O_3   0.241742 0.337080 0.332512 -0.538478
H13   H     H_    0.135703 0.311572 0.340820 0.364126
S2    S     S_3+6 0.783667 0.613565 0.771688 0.082584
O12   O     O_2   0.830984 0.690330 0.840979 -0.261315
O13   O     O_2   0.918236 0.554923 0.776839 -0.252471
O14   O     O_3   0.761479 0.659998 0.666073 -0.559938
H14   H     H_    0.867042 0.687341 0.659229 0.367366
Br3   Br    Br    0.748822 0.640149 0.291218 -0.442432
Br4   Br    Br    0.244099 0.364000 0.709537 -0.468768

loop_
_geom_bond_atom_site_label_1
_geom_bond_atom_site_label_2
_ccdc_geom_bond_type
C2    C22   S    
C14   O6    A    
C11   C12   S    
C1    C21   S    
C14   C16   S    
C7    Br3   S    
C3    Br1   S    
C5    S1    S    
N1    Zn2   S    
C26   C28   A    
C3    C11   A    
C9    H11   S    
N2    Zn1   S    
S1    O9    D    
O7    Zn2   S    
C20   H6    S    
O2    Zn2   S    
C13   C15   S    
O8    Zn1   S    
C14   O8    A    
C2    O4    A    
C8    Br4   S    
C9    C11   A    
C1    O3    A    
C24   H8    S    
C18   H4    S    
C10   C12   A    
O1    Zn1   S    
S2    O14   S    
C13   O7    A    
C8    C10   A    
C19   C21   A    
C8    N2    A    
C15   H1    S    
C23   H7    S    
S1    O10   D    
C21   C23   A    
C6    N2    A    
C25   C27   A    
C17   H3    S    
C22   C24   A    
C4    C6    A    
C4    C12   A    
C20   C22   A    
C16   H2    S    
C15   C16   D    
C17   C27   A    
C6    S2    S    
O6    Zn2   S    
C23   C25   A    
C18   C28   A    
C18   C20   A    
S2    O13   D    
C19   H5    S    
S1    O11   S    
C2    O2    A    
C27   C28   S    
C7    C9    A    
C5    N1    A    
C26   H10   S    
C10   H12   S    
O5    Zn1   S    
O3    Zn2   S    
C17   C19   A    
O11   H13   S    
C4    Br2   S    
C13   O5    A    
O4    Zn1   S    
C1    O1    A    
O14   H14   S    
C7    N1    A    
C24   C26   A    
S2    O12   D    
C3    C5    A    
C25   H9    S    
