data_mof_unit_6493.cif
_audit_creation_date              2012-12-10T18:23:12-0500
_audit_creation_method            fapswitch 2.2
_symmetry_space_group_name_H-M    P1
_symmetry_Int_Tables_number       1
_space_group_crystal_system       triclinic
_cell_length_a                    14.926099
_cell_length_b                    14.263271
_cell_length_c                    10.680532
_cell_angle_alpha                 88.98821
_cell_angle_beta                  86.388535
_cell_angle_gamma                 91.616466
_cell_volume                      2267.98272538

loop_
_atom_site_label
_atom_site_type_symbol
_atom_type_description
_atom_site_fract_x
_atom_site_fract_y
_atom_site_fract_z
_atom_type_partial_charge
C1    C     C_R   0.326978 0.498576 0.501761 0.936440
C2    C     C_R   0.965425 0.494195 0.266976 -0.095134
C3    C     C_R   0.559718 0.801002 0.421294 0.024083
C4    C     C_R   0.434353 0.198594 0.567885 0.008462
C5    C     C_R   0.439827 0.795853 0.577692 0.042448
C6    C     C_R   0.564907 0.204279 0.429735 0.042319
C7    C     C_R   0.442303 0.896480 0.585596 -0.089559
C8    C     C_R   0.560436 0.104137 0.417076 -0.086866
C9    C     C_R   0.558302 0.902005 0.413117 -0.092024
C10   C     C_R   0.437679 0.098228 0.579334 -0.089584
C11   C     C_R   0.500183 0.949722 0.499223 0.105611
C12   C     C_R   0.672887 0.500806 0.499298 0.949700
C13   C     C_R   0.499686 0.050561 0.498897 0.105151
C14   C     C_R   0.388581 0.945610 0.676624 -0.081369
C15   C     C_R   0.613511 0.056261 0.324355 -0.079119
C16   C     C_R   0.611576 0.957045 0.321206 -0.088533
C17   C     C_R   0.382588 0.044258 0.669436 -0.087143
C18   C     C_R   0.499094 0.500521 0.257718 1.012704
C19   C     C_R   0.500838 0.499344 0.742309 0.977673
C20   C     C_3   0.478206 0.585068 0.038882 -0.082815
C21   C     C_3   0.521902 0.414267 0.960826 -0.064843
C22   C     C_3   0.561263 0.563167 0.952269 -0.065115
C23   C     C_R   0.952755 0.473316 0.493925 0.067714
C24   C     C_3   0.439131 0.435909 0.047415 -0.080314
C25   C     C_3   0.418498 0.520326 0.962827 -0.231291
C26   C     C_3   0.581994 0.478448 0.037179 -0.206568
C27   C     C_3   0.501957 0.498399 0.877317 -0.097355
C28   C     C_3   0.498129 0.500766 0.122792 -0.146469
C29   C     C_R   0.821920 0.519877 0.386043 -0.049077
C30   C     C_R   0.178204 0.473789 0.614732 -0.051892
C31   C     C_R   0.769066 0.499602 0.496622 -0.124916
C32   C     C_R   0.230633 0.493087 0.503082 -0.115229
C33   C     C_R   0.805828 0.460890 0.600986 -0.175500
C34   C     C_R   0.046116 0.470267 0.495072 0.072549
C35   C     C_R   0.192484 0.498902 0.388663 -0.159971
C36   C     C_R   0.898468 0.451236 0.604035 0.035486
C37   C     C_R   0.099712 0.490211 0.382968 0.040248
C38   C     C_2   0.442598 0.676857 0.083570 1.051981
C39   C     C_2   0.551578 0.320857 0.914220 0.998506
C40   C     C_2   0.633922 0.627872 0.894011 0.969841
C41   C     C_2   0.367825 0.365342 0.094428 1.014293
C42   C     C_2   0.783535 0.566904 0.277453 0.943850
C43   C     C_2   0.215405 0.497625 0.735066 0.872058
C44   C     C_2   0.879139 0.371717 0.816011 0.977115
C45   C     C_R   0.913353 0.497600 0.381536 -0.015533
C46   C     C_2   0.114007 0.508616 0.148078 0.975640
C47   C     C_2   0.073522 0.364296 0.819005 0.995063
C48   C     C_2   0.921772 0.461101 0.154361 0.989420
C49   C     C_2   0.626861 0.749108 0.347599 0.976038
C50   C     C_2   0.354943 0.248017 0.614737 0.994482
C51   C     C_2   0.366572 0.739986 0.643427 0.977651
C52   C     C_2   0.644566 0.258783 0.378263 0.974973
C53   C     C_2   0.346917 0.897616 0.791225 0.920390
C54   C     C_2   0.663305 0.108127 0.218416 0.920600
C55   C     C_2   0.658616 0.914572 0.210522 0.930392
C56   C     C_R   0.085892 0.451704 0.609221 -0.013220
C57   C     C_2   0.325022 0.088907 0.768370 0.926230
C58   C     C_R   0.937273 0.414301 0.710949 -0.070352
C59   C     C_R   0.059285 0.498423 0.267661 -0.097432
C60   C     C_R   0.031874 0.413083 0.713402 -0.101243
H1    H     H_    0.351166 0.540140 0.936990 0.182082
H2    H     H_    0.205173 0.578424 0.887435 0.343215
H3    H     H_    0.842052 0.255167 0.918353 0.359095
H4    H     H_    0.205755 0.452549 0.027454 0.353763
H5    H     H_    0.166977 0.275143 0.873009 0.397615
H6    H     H_    0.831250 0.368356 0.089335 0.378582
H7    H     H_    0.661024 0.697326 0.177061 0.357849
H8    H     H_    0.226687 0.279583 0.586763 0.383272
H9    H     H_    0.322523 0.668569 0.799885 0.332916
H10   H     H_    0.777124 0.286904 0.387665 0.377400
H11   H     H_    0.233598 0.850679 0.887663 0.368603
H12   H     H_    0.648965 0.458269 0.065856 0.244390
H13   H     H_    0.657123 0.188187 0.062430 0.358436
H14   H     H_    0.775048 0.870124 0.129542 0.371069
H15   H     H_    0.316759 0.147444 0.938431 0.391350
H16   H     H_    0.760183 0.439564 0.679440 0.223216
H17   H     H_    0.236131 0.513331 0.305188 0.179776
H18   H     H_    0.347584 0.742479 0.188951 0.363262
H19   H     H_    0.644118 0.249478 0.811964 0.353294
H20   H     H_    0.748183 0.640472 0.783065 0.366983
H21   H     H_    0.295631 0.304895 0.241783 0.377195
H22   H     H_    0.805228 0.659592 0.132360 0.353114
N1    N     N_R   0.500000 0.750030 0.500000 -0.189732
N2    N     N_R   0.500000 0.249970 0.500000 -0.183083
O1    O     O_R   0.367850 0.580280 0.500030 -0.613183
O2    O     O_R   0.365513 0.676854 0.164900 -0.814307
O3    O     O_2   0.506625 0.249889 0.942234 -0.514233
O4    O     O_R   0.631042 0.315855 0.838498 -0.797577
O5    O     O_2   0.632781 0.712014 0.912842 -0.526323
O6    O     O_R   0.703081 0.590683 0.817830 -0.789811
O7    O     O_2   0.328317 0.318970 0.018962 -0.556291
O8    O     O_R   0.345289 0.353988 0.222773 -0.783539
O9    O     O_2   0.710931 0.540519 0.242636 -0.673600
O10   O     O_R   0.832938 0.639213 0.212238 -0.727729
O11   O     O_2   0.285448 0.464089 0.764656 -0.620570
O12   O     O_R   0.632150 0.419720 0.499970 -0.619547
O13   O     O_R   0.170277 0.560877 0.812884 -0.736376
O14   O     O_2   0.824406 0.419426 0.873727 -0.586073
O15   O     O_R   0.886545 0.276794 0.847384 -0.748546
O16   O     O_2   0.107208 0.578512 0.082023 -0.542107
O17   O     O_R   0.172877 0.438391 0.111660 -0.778301
O18   O     O_2   0.045835 0.376316 0.927379 -0.557174
O19   O     O_R   0.143974 0.303602 0.793948 -0.765454
O20   O     O_2   0.934588 0.502495 0.053430 -0.505328
O21   O     O_R   0.862422 0.383372 0.167919 -0.787776
O22   O     O_2   0.702191 0.741865 0.384645 -0.565447
O23   O     O_R   0.632150 0.580280 0.499970 -0.603123
O24   O     O_R   0.606683 0.717438 0.229626 -0.759874
O25   O     O_2   0.356972 0.293925 0.709941 -0.519722
O26   O     O_R   0.276782 0.240427 0.549694 -0.755503
O27   O     O_2   0.292374 0.737225 0.600920 -0.568492
O28   O     O_R   0.379873 0.697371 0.758980 -0.769144
O29   O     O_2   0.639357 0.312259 0.288588 -0.580676
O30   O     O_R   0.727029 0.246258 0.430548 -0.765270
O31   O     O_2   0.394351 0.872950 0.874231 -0.512701
O32   O     O_R   0.253727 0.883725 0.805439 -0.716960
O33   O     O_2   0.745338 0.107097 0.207676 -0.536994
O34   O     O_R   0.367850 0.419720 0.500030 -0.592990
O35   O     O_R   0.615820 0.156156 0.130119 -0.728948
O36   O     O_2   0.617413 0.897728 0.117746 -0.496531
O37   O     O_R   0.750571 0.898555 0.210571 -0.703695
O38   O     O_2   0.243888 0.091303 0.758939 -0.520268
O39   O     O_R   0.363386 0.123412 0.874768 -0.695852
O40   O     O_R   0.499970 0.580260 0.313950 -0.601724
O41   O     O_R   0.500030 0.419740 0.686050 -0.592436
O42   O     O_R   0.500030 0.580260 0.686050 -0.603129
O43   O     O_R   0.499970 0.419740 0.313950 -0.561095
O44   O     O_2   0.479464 0.750788 0.047621 -0.450005
Zn1   Zn    Zn3+2 0.500000 0.607200 0.500000 1.046056
Zn2   Zn    Zn3+2 0.500000 0.392800 0.500000 1.064066

loop_
_geom_bond_atom_site_label_1
_geom_bond_atom_site_label_2
_ccdc_geom_bond_type
C21   C26   S    
C55   O37   S    
C34   C56   A    
C8    C13   A    
C23   C45   A    
C46   C59   S    
C34   C37   A    
C26   H12   S    
C39   O3    D    
O23   Zn1   S    
C17   C57   S    
C3    C49   S    
C52   O29   D    
H10   O30   S    
C7    C11   A    
C51   O28   S    
C38   O2    S    
H15   O39   S    
C35   C37   A    
C9    C16   A    
N1    Zn1   S    
C36   C58   A    
C29   C42   S    
C44   O15   S    
H7    O24   S    
C20   C25   S    
C10   C17   A    
C58   C60   A    
C15   C16   A    
C42   O9    D    
C50   O26   S    
C33   C36   A    
H3    O15   S    
C6    N2    A    
O1    Zn1   S    
C47   C60   S    
H21   O8    S    
C44   O14   D    
O41   Zn2   S    
C7    C14   A    
C44   C58   S    
C4    N2    A    
H11   O32   S    
C43   O11   D    
C31   C33   A    
C40   O5    D    
C19   C27   S    
C53   O32   S    
H18   O2    S    
C21   C27   S    
C47   O18   D    
C54   O35   S    
C24   C41   S    
C14   C17   A    
C39   O4    S    
H19   O4    S    
C49   O24   S    
C55   O36   D    
C2    C45   A    
C1    O1    A    
H4    O17   S    
C46   O17   S    
C47   O19   S    
C32   C35   A    
C43   O13   S    
C18   C28   S    
C24   C25   S    
C5    C7    A    
C2    C59   A    
C6    C8    A    
C20   C28   S    
O42   Zn1   S    
C2    C48   S    
C30   C56   A    
C19   O41   A    
C50   O25   D    
C56   C60   A    
C4    C50   S    
C25   H1    S    
C15   C54   S    
O34   Zn2   S    
C18   O43   A    
C57   O39   S    
H2    O13   S    
C20   C38   S    
C41   O8    S    
C33   H16   S    
C48   O21   S    
C21   C39   S    
C23   C34   A    
C22   C40   S    
C14   C53   S    
H8    O26   S    
C3    C9    A    
C9    C11   A    
C37   C59   A    
C41   O7    D    
C20   C22   S    
C8    C15   A    
C22   C27   S    
C12   C31   S    
C3    N1    A    
C57   O38   D    
C30   C43   S    
C21   C24   S    
H5    O19   S    
H6    O21   S    
C4    C10   A    
H22   O10   S    
O12   Zn2   S    
C46   O16   D    
C51   O27   D    
C42   O10   S    
C5    C51   S    
C24   C28   S    
C10   C13   A    
C12   O23   A    
C38   O44   D    
C49   O22   D    
C52   O30   S    
C25   C27   S    
C19   O42   A    
C26   C28   S    
C40   O6    S    
C16   C55   S    
C29   C31   A    
C30   C32   A    
C11   C13   A    
C5    N1    A    
N2    Zn2   S    
H9    O28   S    
C35   H17   S    
O40   Zn1   S    
C1    O34   A    
C1    C32   S    
H20   O6    S    
O43   Zn2   S    
H13   O35   S    
H14   O37   S    
C23   C36   A    
C22   C26   S    
C54   O33   D    
C29   C45   A    
C12   O12   A    
C6    C52   S    
C53   O31   D    
C18   O40   A    
C48   O20   D    
