data_mof_unit_61195.cif
_audit_creation_date              2012-12-10T20:55:17-0500
_audit_creation_method            fapswitch 2.2
_symmetry_space_group_name_H-M    P1
_symmetry_Int_Tables_number       1
_space_group_crystal_system       triclinic
_cell_length_a                    26.029615
_cell_length_b                    27.741031
_cell_length_c                    18.980426
_cell_angle_alpha                 90.0
_cell_angle_beta                  133.117704
_cell_angle_gamma                 89.999943
_cell_volume                      10004.3775745

loop_
_atom_site_label
_atom_site_type_symbol
_atom_type_description
_atom_site_fract_x
_atom_site_fract_y
_atom_site_fract_z
_atom_type_partial_charge
C1    C     C_R   1.000000 0.879254 0.500000 0.800713
C2    C     C_R   0.431311 0.774616 0.750909 -0.366353
C3    C     C_1   0.181398 0.250445 0.862068 -0.167812
C4    C     C_1   0.680710 0.250243 0.862086 -0.164539
C5    C     C_1   0.318600 0.750445 0.137932 -0.167804
C6    C     C_1   0.319290 0.250244 0.137914 -0.164539
C7    C     C_1   0.681397 0.750445 0.862068 -0.167830
C8    C     C_1   0.224067 0.750454 0.949072 -0.010549
C9    C     C_1   0.774878 0.250590 0.050943 -0.023599
C10   C     C_1   0.775927 0.750454 0.050928 -0.010311
C11   C     C_1   0.225123 0.250590 0.949057 -0.023666
C12   C     C_1   0.724071 0.250454 0.949072 -0.010431
C13   C     C_R   0.429356 0.209091 0.728056 -0.335004
C14   C     C_1   0.274875 0.750590 0.050943 -0.023811
C15   C     C_1   0.275930 0.250454 0.050928 -0.010468
C16   C     C_1   0.725119 0.750590 0.949057 -0.023400
C17   C     C_1   0.000000 0.568939 0.500000 -0.160683
C18   C     C_1   1.000000 0.431066 0.500000 -0.148831
C19   C     C_1   0.500000 0.068939 0.500000 -0.160681
C20   C     C_1   0.500000 0.931066 0.500000 -0.148834
C21   C     C_1   0.000000 0.525464 0.500000 -0.005760
C22   C     C_1   1.000000 0.474541 0.500000 -0.003465
C23   C     C_1   0.500000 0.025464 0.500000 -0.005761
C24   C     C_R   0.568753 0.774790 0.249157 -0.366092
C25   C     C_1   0.500000 0.974541 0.500000 -0.003467
C26   C     C_R   0.003653 0.707926 0.178451 0.560346
C27   C     C_R   0.999373 0.266291 0.840209 0.595363
C28   C     C_R   0.996328 0.707822 0.821497 0.560361
C29   C     C_R   0.000620 0.266293 0.159800 0.595379
C30   C     C_R   0.503662 0.207877 0.178475 0.560357
C31   C     C_R   0.499422 0.766168 0.840204 0.595377
C32   C     C_R   0.496345 0.207896 0.821539 0.560359
C33   C     C_R   0.500656 0.766404 0.159806 0.595380
C34   C     C_3   0.938799 0.646892 0.162945 -0.235919
C35   C     C_R   0.105060 0.753035 0.316099 -0.086130
C36   C     C_3   0.065321 0.333811 0.891469 -0.242698
C37   C     C_3   0.061201 0.646822 0.836955 -0.235904
C38   C     C_3   0.934723 0.333835 0.108603 -0.242707
C39   C     C_3   0.438789 0.146864 0.162978 -0.235916
C40   C     C_3   0.565170 0.833788 0.891311 -0.242669
C41   C     C_3   0.561200 0.146868 0.837033 -0.235915
C42   C     C_3   0.434613 0.833870 0.108527 -0.242736
C43   C     C_3   0.093604 0.859591 0.360254 -0.302607
C44   C     C_3   0.855100 0.127362 0.641104 -0.289744
C45   C     C_3   0.906452 0.859548 0.639911 -0.302636
C46   C     C_R   0.894183 0.238355 0.680868 -0.099576
C47   C     C_3   0.144915 0.127363 0.358886 -0.289739
C48   C     C_3   0.593577 0.359572 0.360175 -0.302614
C49   C     C_3   0.355002 0.627312 0.640939 -0.289700
C50   C     C_3   0.406408 0.359578 0.639790 -0.302617
C51   C     C_3   0.644823 0.627402 0.358726 -0.289759
C52   C     C_R   0.894942 0.752971 0.683910 -0.086111
C53   C     C_R   0.105818 0.238354 0.319133 -0.099566
C54   C     C_R   0.605059 0.253005 0.316095 -0.086126
C55   C     C_R   0.394176 0.738290 0.680844 -0.099566
C56   C     C_R   0.394941 0.253014 0.683904 -0.086116
C57   C     C_R   0.000000 0.120745 0.500000 0.845322
C58   C     C_R   0.605813 0.738412 0.319115 -0.099571
C59   C     C_R   0.071747 0.796652 0.266134 0.473133
C60   C     C_R   0.926030 0.193013 0.699961 0.524570
C61   C     C_R   0.928272 0.796573 0.733938 0.473134
C62   C     C_R   0.073976 0.193009 0.300037 0.524572
C63   C     C_R   0.571738 0.296615 0.266101 0.473132
C64   C     C_R   0.425979 0.692939 0.699852 0.524543
C65   C     C_R   0.428257 0.296628 0.733884 0.473136
C66   C     C_R   0.573937 0.693074 0.299946 0.524595
C67   C     C_R   0.005567 0.795413 0.170276 -0.073705
C68   C     C_R   0.500000 0.379254 0.500000 0.800711
C69   C     C_R   0.994580 0.184433 0.789325 -0.071264
C70   C     C_R   0.994448 0.795304 0.829799 -0.073702
C71   C     C_R   0.005426 0.184429 0.210673 -0.071290
C72   C     C_R   0.505560 0.295362 0.170241 -0.073702
C73   C     C_R   0.494534 0.684325 0.789181 -0.071366
C74   C     C_R   0.494436 0.295382 0.829743 -0.073709
C75   C     C_R   0.505389 0.684524 0.210556 -0.071213
C76   C     C_R   0.971760 0.750971 0.126563 0.017134
C77   C     C_R   0.030434 0.220751 0.860948 -0.038617
C78   C     C_R   0.028236 0.750850 0.873449 0.017148
C79   C     C_R   0.500000 0.620745 0.500000 0.845319
C80   C     C_R   0.969565 0.220750 0.139057 -0.038583
C81   C     C_R   0.471762 0.250914 0.126558 0.017138
C82   C     C_R   0.530439 0.720618 0.860854 -0.038496
C83   C     C_R   0.528240 0.250938 0.873441 0.017149
C84   C     C_R   0.469567 0.720868 0.138986 -0.038663
C85   C     C_R   0.233681 0.752316 0.411938 0.048748
C86   C     C_R   0.766139 0.248331 0.587307 0.016775
C87   C     C_R   0.766321 0.752277 0.588066 0.048740
C88   C     C_R   0.233861 0.248331 0.412693 0.016768
C89   C     C_R   0.733680 0.252297 0.411936 0.048739
C90   C     C_R   0.070642 0.709114 0.271934 -0.335006
C91   C     C_R   0.266140 0.748311 0.587307 0.016798
C92   C     C_R   0.266320 0.252299 0.588064 0.048742
C93   C     C_R   0.733862 0.748355 0.412692 0.016761
C94   C     C_R   0.304000 0.749883 0.500478 -0.056718
C95   C     C_R   0.695691 0.250367 0.498642 -0.101396
C96   C     C_R   0.695999 0.749883 0.499519 -0.056780
C97   C     C_R   0.304309 0.250368 0.501358 -0.101397
C98   C     C_R   0.804001 0.249883 0.500480 -0.056753
C99   C     C_R   0.195692 0.750367 0.498644 -0.101394
C100  C     C_R   0.195999 0.249883 0.499520 -0.056754
C101  C     C_R   0.931272 0.274707 0.750881 -0.366187
C102  C     C_R   0.804310 0.750368 0.501360 -0.101405
C103  C     C_R   0.320709 0.747213 0.588442 0.019446
C104  C     C_R   0.679064 0.252165 0.410556 0.032194
C105  C     C_R   0.679290 0.747263 0.411551 0.019413
C106  C     C_R   0.320937 0.252167 0.589444 0.032198
C107  C     C_R   0.820710 0.247238 0.588447 0.019420
C108  C     C_R   0.179064 0.752182 0.410558 0.032195
C109  C     C_R   0.179291 0.247237 0.411554 0.019422
C110  C     C_R   0.820938 0.752146 0.589447 0.032193
C111  C     C_1   1.000000 0.931034 0.500000 -0.149067
C112  C     C_R   0.929341 0.709038 0.728015 -0.334949
C113  C     C_1   0.000000 0.068963 0.500000 -0.129568
C114  C     C_1   0.500000 0.431034 0.500000 -0.149069
C115  C     C_1   0.500000 0.568963 0.500001 -0.129566
C116  C     C_1   0.000000 0.974524 0.500000 -0.001431
C117  C     C_1   1.000000 0.025472 0.500000 0.005471
C118  C     C_1   0.500000 0.474524 0.500001 -0.001431
C119  C     C_1   0.500000 0.525472 0.500001 0.005472
C120  C     C_R   1.000000 0.620694 0.500000 0.826748
C121  C     C_R   0.000000 0.379308 0.500000 0.822233
C122  C     C_R   0.500000 0.120694 0.500000 0.826747
C123  C     C_R   0.068723 0.274708 0.249126 -0.366215
C124  C     C_R   0.500000 0.879308 0.500000 0.822235
C125  C     C_R   0.860082 0.750198 0.500723 0.842772
C126  C     C_R   0.140108 0.249954 0.499759 0.895659
C127  C     C_R   0.139919 0.750198 0.499279 0.842795
C128  C     C_R   0.859892 0.249954 0.500241 0.895678
C129  C     C_R   0.360082 0.250198 0.500722 0.842786
C130  C     C_R   0.640108 0.749953 0.499757 0.895685
C131  C     C_R   0.639918 0.250198 0.499278 0.842786
C132  C     C_R   0.359891 0.749955 0.500239 0.895639
C133  C     C_R   0.870841 0.750031 0.241452 0.818142
C134  C     C_R   0.570650 0.209079 0.271958 -0.334971
C135  C     C_R   0.129284 0.250092 0.758546 0.820130
C136  C     C_R   0.129159 0.750031 0.758548 0.818139
C137  C     C_R   0.870716 0.250092 0.241454 0.820115
C138  C     C_R   0.370841 0.250031 0.241452 0.818145
C139  C     C_R   0.629284 0.750092 0.758546 0.820069
C140  C     C_R   0.629159 0.250031 0.758548 0.818140
C141  C     C_R   0.370716 0.750092 0.241454 0.820163
C142  C     C_1   0.180708 0.750244 0.862086 -0.164531
C143  C     C_1   0.818602 0.250445 0.137932 -0.167810
C144  C     C_1   0.819288 0.750243 0.137913 -0.164542
H1    H     H_    0.096729 0.675527 0.309356 0.188390
H2    H     H_    0.912385 0.763908 0.984706 0.205040
H3    H     H_    0.310918 0.774432 0.718693 0.216612
H4    H     H_    0.309013 0.287074 0.712098 0.209357
H5    H     H_    0.313356 0.225952 0.720274 0.207367
H6    H     H_    0.689516 0.713400 0.287774 0.174520
H7    H     H_    0.689121 0.774538 0.281360 0.216645
H8    H     H_    0.132407 0.200165 0.948327 0.184091
H9    H     H_    0.092593 0.184265 0.987220 0.182067
H10   H     H_    0.130290 0.770311 0.977824 0.200846
H11   H     H_    0.087605 0.763732 0.015322 0.205058
H12   H     H_    0.867595 0.200158 0.051683 0.184087
H13   H     H_    0.907406 0.184269 0.012780 0.182060
H14   H     H_    0.369712 0.270388 0.022204 0.200830
H15   H     H_    0.412391 0.263827 0.984693 0.205053
H16   H     H_    0.632392 0.700002 0.948128 0.184073
H17   H     H_    0.907023 0.309592 0.736471 0.186032
H18   H     H_    0.592618 0.684086 0.987072 0.182012
H19   H     H_    0.630288 0.270418 0.977787 0.200824
H20   H     H_    0.587611 0.263862 0.015302 0.205045
H21   H     H_    0.367583 0.700299 0.051530 0.184103
H22   H     H_    0.407422 0.684428 0.012661 0.182102
H23   H     H_    0.894960 0.671172 0.137576 0.173940
H24   H     H_    0.976402 0.642000 0.242634 0.171120
H25   H     H_    0.915645 0.611111 0.129297 0.182747
H26   H     H_    0.024989 0.352739 0.821355 0.154898
H27   H     H_    0.103722 0.314938 0.892802 0.170499
H28   H     H_    0.903243 0.675462 0.690542 0.188391
H29   H     H_    0.094694 0.361592 0.949032 0.191707
H30   H     H_    0.105050 0.671114 0.862399 0.173944
H31   H     H_    0.023621 0.641966 0.757260 0.171175
H32   H     H_    0.084346 0.611030 0.870547 0.182739
H33   H     H_    0.975096 0.352783 0.178678 0.154895
H34   H     H_    0.896369 0.314981 0.107388 0.170474
H35   H     H_    0.905306 0.361599 0.051007 0.191708
H36   H     H_    0.394938 0.171148 0.137550 0.173943
H37   H     H_    0.476372 0.141995 0.242671 0.171154
H38   H     H_    0.415648 0.111074 0.129367 0.182744
H39   H     H_    0.092971 0.309594 0.263540 0.186010
H40   H     H_    0.524662 0.852804 0.821368 0.154857
H41   H     H_    0.603387 0.815018 0.892149 0.170416
H42   H     H_    0.594703 0.861487 0.949030 0.191725
H43   H     H_    0.605039 0.171151 0.862411 0.173945
H44   H     H_    0.523598 0.141981 0.757343 0.171121
H45   H     H_    0.584354 0.111085 0.870673 0.182748
H46   H     H_    0.474855 0.852740 0.178744 0.154925
H47   H     H_    0.396118 0.814935 0.106927 0.170553
H48   H     H_    0.405323 0.861706 0.051069 0.191680
H49   H     H_    0.128153 0.842580 0.432529 0.176969
H50   H     H_    0.596742 0.175497 0.309404 0.188393
H51   H     H_    0.037431 0.856390 0.323918 0.128544
H52   H     H_    0.106615 0.898558 0.371283 0.195891
H53   H     H_    0.811812 0.146963 0.627513 0.151163
H54   H     H_    0.890796 0.110487 0.713993 0.163816
H55   H     H_    0.830844 0.097851 0.587306 0.198054
H56   H     H_    0.871924 0.842547 0.567627 0.176905
H57   H     H_    0.962633 0.856360 0.676272 0.128572
H58   H     H_    0.893430 0.898513 0.628897 0.195899
H59   H     H_    0.188218 0.146966 0.372516 0.151182
H60   H     H_    0.109227 0.110504 0.285983 0.163792
H61   H     H_    0.407088 0.809506 0.736563 0.185949
H62   H     H_    0.169153 0.097840 0.412656 0.198053
H63   H     H_    0.628112 0.342563 0.432452 0.176935
H64   H     H_    0.537398 0.356379 0.323823 0.128558
H65   H     H_    0.606597 0.398537 0.371202 0.195897
H66   H     H_    0.311760 0.646924 0.627451 0.151126
H67   H     H_    0.390710 0.610397 0.713791 0.163835
H68   H     H_    0.330682 0.597831 0.587070 0.198050
H69   H     H_    0.371866 0.342570 0.567511 0.176954
H70   H     H_    0.462584 0.356380 0.676133 0.128549
H71   H     H_    0.393394 0.398544 0.628767 0.195891
H72   H     H_    0.403267 0.175506 0.690622 0.188384
H73   H     H_    0.688123 0.647000 0.372343 0.151158
H74   H     H_    0.609121 0.610548 0.285818 0.163835
H75   H     H_    0.669062 0.597876 0.412490 0.198048
H76   H     H_    0.964968 0.861635 0.150925 0.201577
H77   H     H_    0.008183 0.856124 0.113823 0.222003
H78   H     H_    0.039992 0.122715 0.866457 0.175060
H79   H     H_    0.072885 0.144332 0.820339 0.186938
H80   H     H_    0.035076 0.861529 0.849254 0.201576
H81   H     H_    0.991848 0.855986 0.886332 0.221998
H82   H     H_    0.960022 0.122713 0.133532 0.175061
H83   H     H_    0.593021 0.809674 0.263628 0.186068
H84   H     H_    0.927127 0.144317 0.179657 0.186937
H85   H     H_    0.464947 0.361586 0.150840 0.201576
H86   H     H_    0.508170 0.356060 0.113752 0.222001
H87   H     H_    0.539910 0.622578 0.866218 0.175061
H88   H     H_    0.572784 0.644204 0.820078 0.186930
H89   H     H_    0.535040 0.361606 0.849120 0.201571
H90   H     H_    0.491820 0.356086 0.886213 0.222002
H91   H     H_    0.459953 0.622833 0.133330 0.175056
H92   H     H_    0.427047 0.644425 0.179444 0.186947
H93   H     H_    0.190998 0.787114 0.287929 0.209365
H94   H     H_    0.869712 0.770455 0.022229 0.200808
H95   H     H_    0.186637 0.725994 0.279709 0.207362
H96   H     H_    0.810464 0.213342 0.712185 0.174505
H97   H     H_    0.810895 0.274478 0.718669 0.216634
H98   H     H_    0.809027 0.787021 0.712134 0.209360
H99   H     H_    0.813346 0.725897 0.720251 0.207372
H100  H     H_    0.189536 0.213343 0.287814 0.174502
H101  H     H_    0.189101 0.274479 0.281330 0.216632
H102  H     H_    0.690987 0.287070 0.287899 0.209363
H103  H     H_    0.686645 0.225948 0.279728 0.207371
H104  H     H_    0.310447 0.713297 0.712155 0.174489
N1    N     N_3   0.905613 0.748956 0.028470 -0.397765
N2    N     N_3   0.026768 0.138636 0.805951 -0.420767
N3    N     N_3   0.026767 0.838861 0.884627 -0.457776
N4    N     N_3   0.973245 0.138628 0.194042 -0.420757
N5    N     N_3   0.473249 0.338929 0.115447 -0.457775
N6    N     N_3   0.526676 0.638518 0.805719 -0.420776
N7    N     N_3   0.526743 0.338953 0.884522 -0.457779
N8    N     N_3   0.473171 0.638729 0.193849 -0.420775
N9    N     N_3   0.218467 0.755192 0.323582 -0.443915
N10   N     N_3   0.781179 0.244595 0.675467 -0.433555
N11   N     N_3   0.781537 0.755113 0.676427 -0.443838
N12   N     N_3   0.097973 0.211931 0.955280 -0.406230
N13   N     N_3   0.218820 0.244596 0.324531 -0.433554
N14   N     N_3   0.718465 0.255155 0.323578 -0.443875
N15   N     N_3   0.281180 0.744560 0.675466 -0.433592
N16   N     N_3   0.281535 0.255158 0.676422 -0.443878
N17   N     N_3   0.718820 0.744642 0.324528 -0.433504
N18   N     N_3   0.094378 0.748804 0.971543 -0.397743
N19   N     N_3   0.902025 0.211930 0.044726 -0.406188
N20   N     N_3   0.405617 0.248885 0.028464 -0.397757
N21   N     N_3   0.597993 0.711764 0.955148 -0.406098
N22   N     N_3   0.594385 0.248916 0.971535 -0.397748
N23   N     N_3   0.402038 0.712078 0.044624 -0.406283
N24   N     N_3   0.973262 0.838988 0.115512 -0.457776
O1    O     O_3   0.000000 0.749990 0.500000 -0.474042
O2    O     O_R   0.441770 0.643730 0.444290 -0.627351
O3    O     O_R   0.441770 0.356270 0.444290 -0.637844
O4    O     O_R   0.558230 0.643730 0.555710 -0.627411
O5    O     O_R   0.997500 0.643710 0.555730 -0.642499
O6    O     O_R   0.002500 0.356290 0.444270 -0.638154
O7    O     O_R   0.002500 0.643710 0.444270 -0.642470
O8    O     O_R   0.997500 0.356290 0.555730 -0.638149
O9    O     O_R   0.497500 0.143710 0.555730 -0.642478
O10   O     O_R   0.502500 0.856290 0.444270 -0.638160
O11   O     O_R   0.502500 0.143710 0.444270 -0.642484
O12   O     O_3   0.000000 0.250010 0.500000 -0.490188
O13   O     O_R   0.497500 0.856290 0.555730 -0.638145
O14   O     O_R   0.856330 0.777850 0.444260 -0.626974
O15   O     O_R   0.143670 0.222150 0.555740 -0.607438
O16   O     O_R   0.143670 0.777850 0.555740 -0.627015
O17   O     O_R   0.856330 0.222150 0.444260 -0.607432
O18   O     O_R   0.356330 0.277850 0.444260 -0.627001
O19   O     O_R   0.643670 0.722150 0.555740 -0.607455
O20   O     O_R   0.643670 0.277850 0.555740 -0.626996
O21   O     O_R   0.356330 0.722150 0.444260 -0.607409
O22   O     O_R   0.087950 0.722120 0.444280 -0.651751
O23   O     O_3   0.500000 0.249990 0.500000 -0.474042
O24   O     O_R   0.912050 0.277880 0.555720 -0.658038
O25   O     O_R   0.912050 0.722120 0.555720 -0.651765
O26   O     O_R   0.087950 0.277880 0.444280 -0.658036
O27   O     O_R   0.587950 0.222120 0.444280 -0.651758
O28   O     O_R   0.412050 0.777880 0.555720 -0.658047
O29   O     O_R   0.412050 0.222120 0.555720 -0.651755
O30   O     O_R   0.587950 0.777880 0.444280 -0.658031
O31   O     O_R   0.863370 0.777840 0.287440 -0.619156
O32   O     O_R   0.136630 0.222160 0.712560 -0.627029
O33   O     O_R   0.136630 0.777840 0.712560 -0.619178
O34   O     O_3   0.500000 0.750010 0.500000 -0.490185
O35   O     O_R   0.863370 0.222160 0.287440 -0.627026
O36   O     O_R   0.363370 0.277840 0.287440 -0.619173
O37   O     O_R   0.636630 0.722160 0.712560 -0.627031
O38   O     O_R   0.636630 0.277840 0.712560 -0.619170
O39   O     O_R   0.363370 0.722160 0.287440 -0.627025
O40   O     O_R   0.924090 0.722120 0.287440 -0.663946
O41   O     O_R   0.075910 0.277880 0.712560 -0.650763
O42   O     O_R   0.075910 0.722120 0.712560 -0.663955
O43   O     O_R   0.924090 0.277880 0.287440 -0.650775
O44   O     O_R   0.424090 0.222120 0.287440 -0.663949
O45   O     O_R   0.058230 0.856270 0.555710 -0.637849
O46   O     O_R   0.575910 0.777880 0.712560 -0.650785
O47   O     O_R   0.575910 0.222120 0.712560 -0.663941
O48   O     O_R   0.424090 0.777880 0.287440 -0.650765
O49   O     O_3   0.972664 0.664193 0.133690 -0.585777
O50   O     O_3   0.033976 0.301680 0.910312 -0.575432
O51   O     O_3   0.027301 0.664076 0.866188 -0.585784
O52   O     O_3   0.966007 0.301682 0.089698 -0.575423
O53   O     O_3   0.472682 0.164138 0.133747 -0.585777
O54   O     O_3   0.534087 0.801523 0.910378 -0.575411
O55   O     O_3   0.527330 0.164161 0.866286 -0.585777
O56   O     O_R   0.941770 0.143730 0.444290 -0.627380
O57   O     O_3   0.466088 0.801826 0.089771 -0.575454
O58   O     O_3   0.107004 0.840055 0.305522 -0.613847
O59   O     O_3   0.891854 0.157934 0.629013 -0.595796
O60   O     O_3   0.893035 0.839986 0.694606 -0.613838
O61   O     O_3   0.108156 0.157928 0.370979 -0.595788
O62   O     O_3   0.606986 0.340023 0.305462 -0.613841
O63   O     O_3   0.391756 0.657886 0.628852 -0.595762
O64   O     O_3   0.393002 0.340033 0.694509 -0.613842
O65   O     O_3   0.608082 0.657971 0.370845 -0.595819
O66   O     O_R   0.941770 0.856270 0.444290 -0.637836
O67   O     O_R   0.058230 0.143730 0.555710 -0.627383
O68   O     O_R   0.558230 0.356270 0.555710 -0.637843
Zn1   Zn    Zn3+2 0.996430 0.710180 0.579620 0.948383
Zn2   Zn    Zn3+2 0.083190 0.210200 0.579630 1.018135
Zn3   Zn    Zn3+2 0.083190 0.789800 0.579630 0.977503
Zn4   Zn    Zn3+2 0.916810 0.210200 0.420370 1.018140
Zn5   Zn    Zn3+2 0.416810 0.289800 0.420370 0.977513
Zn6   Zn    Zn3+2 0.583190 0.710200 0.579630 1.018103
Zn7   Zn    Zn3+2 0.583190 0.289800 0.579630 0.977519
Zn8   Zn    Zn3+2 0.416810 0.710200 0.420370 1.018168
Zn9   Zn    Zn3+2 0.003570 0.289820 0.420380 0.971352
Zn10  Zn    Zn3+2 0.003570 0.710180 0.420380 0.948411
Zn11  Zn    Zn3+2 0.996430 0.289820 0.579620 0.971366
Zn12  Zn    Zn3+2 0.496430 0.210180 0.579620 0.948406
Zn13  Zn    Zn3+2 0.503570 0.789820 0.420380 0.971362
Zn14  Zn    Zn3+2 0.503570 0.210180 0.420380 0.948399
Zn15  Zn    Zn3+2 0.496430 0.789820 0.579620 0.971342
Zn16  Zn    Zn3+2 0.916810 0.789800 0.420370 0.977538

loop_
_geom_bond_atom_site_label_1
_geom_bond_atom_site_label_2
_ccdc_geom_bond_type
C19   C122  S    
C79   O4    A    
C80   N19   S    
C73   C82   A    
C74   C83   A    
C102  C125  S    
C39   H36   S    
C9    C143  T    
C45   H56   S    
C59   O58   S    
C78   N18   S    
H91   N8    S    
C52   C61   A    
C54   C63   A    
C53   C109  S    
C54   C134  A    
C41   H43   S    
C123  H39   S    
H80   N3    S    
C11   C15   S    
C77   N12   S    
C1    O45   A    
C81   N20   S    
C4    C12   T    
C122  O11   A    
C72   N5    S    
C60   O59   S    
C88   C97   A    
C47   H62   S    
C124  O13   A    
C100  C109  A    
H81   N3    S    
O15   Zn2   S    
C21   C22   S    
C37   O51   S    
O56   Zn4   S    
C51   H74   S    
C39   O53   S    
H19   N22   S    
O8    Zn11  S    
C87   N11   S    
O16   Zn3   S    
O4    Zn6   S    
C94   C132  S    
O31   Zn16  S    
O12   Zn9   S    
C63   O62   S    
C19   C23   T    
C37   H31   S    
C42   H46   S    
C52   C110  S    
C48   H64   S    
C141  O48   A    
H6    N17   S    
C56   C106  S    
C92   N16   S    
C88   C109  A    
C92   C106  A    
C79   O2    A    
O12   Zn2   S    
O6    Zn9   S    
H3    N15   S    
C34   H23   S    
C91   N15   S    
C33   O57   S    
C128  O24   A    
C32   C83   A    
C38   H35   S    
H100  N13   S    
C46   C60   A    
O66   Zn16  S    
H95   N9    S    
C91   C103  A    
C137  O43   A    
C124  O10   A    
C26   C90   A    
O25   Zn1   S    
C36   H26   S    
O7    Zn10  S    
C41   H45   S    
C2    C55   A    
C43   O58   S    
C10   C16   S    
C29   C80   A    
C50   H71   S    
C34   O49   S    
C47   H60   S    
H76   N24   S    
C122  O9    A    
O23   Zn12  S    
C3    C11   T    
C86   C95   A    
C73   N6    S    
O19   Zn6   S    
C134  H50   S    
C28   O51   S    
O9    Zn12  S    
O41   Zn11  S    
O37   Zn6   S    
C43   H52   S    
C85   N9    S    
C49   O63   S    
C44   O59   S    
O11   Zn14  S    
C44   H54   S    
C79   C115  S    
H22   N23   S    
O33   Zn3   S    
C13   C32   A    
C69   C77   A    
O27   Zn14  S    
H86   N5    S    
H101  N13   S    
C135  O32   A    
C87   C110  A    
C99   C108  A    
O34   Zn15  S    
O12   Zn11  S    
C100  C126  S    
C38   O52   S    
C75   C84   A    
C40   H42   S    
C52   C112  A    
C43   H51   S    
C85   C94   A    
H87   N6    S    
C17   C120  S    
C59   C67   A    
C26   O49   S    
C135  O41   A    
C30   C134  A    
C130  O19   A    
O12   Zn4   S    
C64   C73   A    
C133  O40   A    
C13   C56   A    
C138  O36   A    
C38   H33   S    
C87   C96   A    
C66   O65   S    
O23   Zn7   S    
O1    Zn16  S    
C57   O56   A    
C46   C101  A    
H97   N10   S    
O13   Zn15  S    
H2    N1    S    
O23   Zn14  S    
C57   C113  S    
C50   H69   S    
C51   H75   S    
H15   N20   S    
O47   Zn12  S    
C65   C74   A    
C83   N22   S    
O39   Zn8   S    
O3    Zn5   S    
C10   C144  T    
H4    N16   S    
C34   H25   S    
C113  C117  T    
H78   N2    S    
H79   N2    S    
O34   Zn8   S    
O48   Zn13  S    
C129  O18   A    
C115  C119  T    
C45   O60   S    
C36   O50   S    
O24   Zn11  S    
C85   C108  A    
O42   Zn1   S    
C48   O62   S    
O34   Zn13  S    
C132  O28   A    
C84   N23   S    
C18   C22   T    
C72   C81   A    
C137  O35   A    
C89   C98   A    
C43   H49   S    
C58   C105  S    
C89   C104  A    
C65   O64   S    
C120  O5    A    
C68   O3    A    
C60   C69   A    
C49   H68   S    
C62   C71   A    
C9    C12   S    
C20   C124  S    
C39   H38   S    
O46   Zn15  S    
C36   H29   S    
O67   Zn2   S    
C48   H65   S    
O1    Zn10  S    
O43   Zn9   S    
H96   N10   S    
C1    O66   A    
O29   Zn12  S    
O23   Zn5   S    
C61   C70   A    
C96   C105  A    
H18   N21   S    
H98   N11   S    
C51   H73   S    
H82   N4    S    
C129  O29   A    
H16   N21   S    
C31   C82   A    
C82   N21   S    
O1    Zn1   S    
C54   C104  S    
C114  C118  T    
O17   Zn4   S    
C90   H1    S    
O44   Zn14  S    
O28   Zn15  S    
C93   N17   S    
C20   C25   T    
C47   O61   S    
C29   O52   S    
O14   Zn16  S    
C132  O21   A    
C35   C59   A    
C86   N10   S    
C42   O57   S    
C136  C142  S    
C37   H30   S    
C42   H47   S    
O34   Zn6   S    
C140  O38   A    
C45   H58   S    
C141  O39   A    
C111  C116  T    
O68   Zn7   S    
C24   H83   S    
C74   N7    S    
H102  N14   S    
C40   H40   S    
C98   C128  S    
C27   O50   S    
C130  O30   A    
C95   C131  S    
C133  O31   A    
C131  O27   A    
O36   Zn5   S    
C34   H24   S    
C76   N1    S    
H88   N6    S    
C121  O6    A    
C120  O7    A    
C99   C127  S    
C136  O42   A    
C98   C107  A    
C41   H44   S    
C125  O25   A    
C62   O61   S    
C138  O44   A    
C139  O37   A    
C47   H59   S    
H99   N11   S    
H92   N8    S    
C5    C14   T    
H77   N24   S    
C69   N2    S    
C97   C106  A    
O20   Zn7   S    
C7    C16   T    
C94   C103  A    
H93   N9    S    
O32   Zn2   S    
C102  C110  A    
C71   N4    S    
C96   C130  S    
C140  O47   A    
H20   N22   S    
C125  O14   A    
H21   N23   S    
O21   Zn8   S    
O1    Zn3   S    
C127  O16   A    
C31   O54   S    
C93   C102  A    
C57   O67   A    
C133  C144  S    
C51   O65   S    
C24   C33   A    
C30   C81   A    
O2    Zn8   S    
C1    C111  S    
C37   H32   S    
C112  H28   S    
C66   C75   A    
C29   C123  A    
C48   H63   S    
C32   O55   S    
C3    C135  S    
C61   O60   S    
C33   C84   A    
C17   C21   T    
H11   N18   S    
C18   C121  S    
C35   C90   A    
C63   C72   A    
C24   C58   A    
C8    C142  T    
C89   N14   S    
H9    N12   S    
H90   N7    S    
C28   C112  A    
H84   N4    S    
C38   H34   S    
C70   C78   A    
O26   Zn9   S    
C86   C107  A    
C121  O8    A    
O40   Zn10  S    
C131  O20   A    
C13   H72   S    
C64   O63   S    
C50   H70   S    
C56   C65   A    
C55   C103  S    
C30   O53   S    
C116  C117  S    
C118  C119  S    
C35   C108  S    
O45   Zn3   S    
C93   C105  A    
C6    C15   T    
C136  O33   A    
H7    N17   S    
C50   O64   S    
C26   C76   A    
C28   C78   A    
H5    N16   S    
H104  N15   S    
C137  C143  S    
C44   H53   S    
C126  O15   A    
O22   Zn10  S    
C71   C80   A    
C58   C66   A    
C88   N13   S    
H13   N19   S    
O5    Zn1   S    
H14   N20   S    
C75   N8    S    
C53   C123  A    
C40   H41   S    
C27   C101  A    
C2    C31   A    
C49   H66   S    
C4    C140  S    
C53   C62   A    
H8    N12   S    
C5    C141  S    
C46   C107  S    
C49   H67   S    
C2    H61   S    
C39   H37   S    
C6    C138  S    
C40   O54   S    
C127  O22   A    
C128  O17   A    
O30   Zn13  S    
H94   N1    S    
C67   N24   S    
C95   C104  A    
C92   C100  A    
H10   N18   S    
C36   H27   S    
C8    C14   S    
C27   C77   A    
O35   Zn4   S    
H85   N5    S    
C126  O26   A    
C55   C64   A    
C41   O55   S    
C91   C99   A    
C139  O46   A    
C101  H17   S    
O18   Zn5   S    
C97   C129  S    
O38   Zn7   S    
C7    C139  S    
H12   N19   S    
C23   C25   S    
H103  N14   S    
H89   N7    S    
O10   Zn13  S    
C68   O68   A    
C42   H48   S    
C44   H55   S    
C45   H57   S    
C67   C76   A    
C70   N3    S    
C68   C114  S    
