data_mof_unit_52992.cif
_audit_creation_date              2012-12-10T16:53:55-0500
_audit_creation_method            fapswitch 2.2
_symmetry_space_group_name_H-M    P1
_symmetry_Int_Tables_number       1
_space_group_crystal_system       triclinic
_cell_length_a                    7.766912
_cell_length_b                    8.630645
_cell_length_c                    10.724613
_cell_angle_alpha                 92.604305
_cell_angle_beta                  85.090916
_cell_angle_gamma                 93.408571
_cell_volume                      714.414979237

loop_
_atom_site_label
_atom_site_type_symbol
_atom_type_description
_atom_site_fract_x
_atom_site_fract_y
_atom_site_fract_z
_atom_type_partial_charge
C1    C     C_R   0.545863 0.794574 0.503671 0.878057
C2    C     C_3   0.501144 0.489420 0.120959 -0.168330
C3    C     C_3   0.401915 0.335159 0.070914 0.269664
C4    C     C_3   0.695993 0.499330 0.056389 -0.376254
C5    C     C_2   0.570997 0.958078 0.520961 0.299312
C6    C     C_2   0.434103 0.042264 0.507746 -0.368218
C7    C     C_R   0.501328 0.502607 0.741962 0.946582
C8    C     C_R   0.455138 0.205551 0.506393 0.962997
C9    C     C_R   0.498904 0.491612 0.257904 0.894390
C10   C     C_3   0.433775 0.654587 0.941570 0.068554
C11   C     C_3   0.405218 0.638941 0.086258 0.331970
C12   C     C_3   0.394941 0.347509 0.925207 -0.257630
C13   C     C_3   0.693830 0.492671 0.912934 0.180148
C14   C     C_3   0.501359 0.498410 0.877630 -0.272772
H1    H     H_    0.459353 0.249715 0.874513 0.199081
H2    H     H_    0.307176 0.990737 0.489082 0.150280
H3    H     H_    0.014275 0.381962 0.404062 0.200414
H4    H     H_    0.985675 0.617892 0.596065 0.193468
H5    H     H_    0.540451 0.744807 0.922737 0.162228
H6    H     H_    0.767008 0.599728 0.878521 0.146360
H7    H     H_    0.750631 0.617583 0.079250 0.176042
N1    N     N_2   0.950330 0.457950 0.465890 -0.143792
N2    N     N_2   0.049670 0.542050 0.534110 -0.147577
O1    O     O_R   0.389250 0.738570 0.508370 -0.627449
O2    O     O_R   0.678390 0.711620 0.486510 -0.624767
O3    O     O_R   0.355430 0.513500 0.696140 -0.616629
O4    O     O_R   0.644580 0.486550 0.674270 -0.586691
O5    O     O_R   0.321610 0.288380 0.513490 -0.629037
O6    O     O_R   0.610750 0.261430 0.491630 -0.540733
O7    O     O_R   0.355420 0.513450 0.325730 -0.579054
O8    O     O_R   0.644570 0.486500 0.303860 -0.644918
Zn1   Zn    Zn3+2 0.306940 0.517990 0.514600 1.011397
Zn2   Zn    Zn3+2 0.693060 0.482010 0.485400 1.026565
O9    O     O_3   0.292252 0.716378 0.890403 -0.700361
H8    H     H_    0.203085 0.633109 0.875723 0.339523
C15   C     C_2   0.830770 0.398982 0.104227 0.508585
H9    H     H_    0.918036 0.451459 0.169835 0.125919
O10   O     O_2   0.842821 0.261666 0.074931 -0.498640
C16   C     C_2   0.491638 0.190581 0.102493 0.467160
H10   H     H_    0.515156 0.173768 0.199193 0.033983
O11   O     O_2   0.535840 0.091354 0.023305 -0.558200
O12   O     O_3   0.728146 0.025310 0.555013 -0.702566
H11   H     H_    0.807119 0.943416 0.570135 0.345649
C17   C     C_2   0.467973 0.790843 0.150125 0.481724
H12   H     H_    0.383933 0.887113 0.155320 0.135905
O13   O     O_2   0.603996 0.807376 0.199607 -0.612116
O14   O     O_3   0.227935 0.625458 0.129005 -0.731089
H13   H     H_    0.160464 0.569217 0.066281 0.350522
C18   C     C_2   0.212410 0.323126 0.883387 0.640103
H14   H     H_    0.110513 0.396391 0.919028 0.088407
O15   O     O_2   0.176686 0.216708 0.809280 -0.511336
O16   O     O_3   0.230997 0.320655 0.128355 -0.771286
H15   H     H_    0.231677 0.282677 0.214324 0.326638
O17   O     O_3   0.785166 0.369683 0.852427 -0.683009
H16   H     H_    0.727602 0.269188 0.875859 0.410824

loop_
_geom_bond_atom_site_label_1
_geom_bond_atom_site_label_2
_ccdc_geom_bond_type
C2    C4    S    
C5    O12   S    
O1    Zn1   S    
O3    Zn1   S    
C11   O14   S    
O14   H13   S    
C12   H1    S    
C10   H5    S    
C3    O16   S    
N2    Zn1   S    
O8    Zn2   S    
C2    C3    S    
C3    C16   S    
C11   C17   S    
C16   O11   D    
C13   C14   S    
O4    Zn2   S    
O7    Zn1   S    
C4    H7    S    
C7    O3    A    
C9    O7    A    
O16   H15   S    
O9    H8    S    
C1    C5    S    
C2    C11   S    
C15   O10   D    
C15   H9    S    
C12   C14   S    
C12   C18   S    
C10   C11   S    
C5    C6    D    
C8    O5    A    
O12   H11   S    
C8    O6    A    
C6    H2    S    
H4    N2    S    
C16   H10   S    
O6    Zn2   S    
O5    Zn1   S    
C7    O4    A    
C4    C15   S    
C1    O1    A    
C10   O9    S    
C13   O17   S    
C10   C14   S    
O2    Zn2   S    
C4    C13   S    
C18   H14   S    
N1    Zn2   S    
C9    O8    A    
N1    N2    D    
C6    C8    S    
C3    C12   S    
C13   H6    S    
O17   H16   S    
C2    C9    S    
C1    O2    A    
C7    C14   S    
C17   H12   S    
H3    N1    S    
C17   O13   D    
C18   O15   D    
