data_mof_unit_18875.cif
_audit_creation_date              2012-12-10T19:47:24-0500
_audit_creation_method            fapswitch 2.2
_symmetry_space_group_name_H-M    P1
_symmetry_Int_Tables_number       1
_space_group_crystal_system       triclinic
_cell_length_a                    10.857816
_cell_length_b                    10.821869
_cell_length_c                    12.749661
_cell_angle_alpha                 92.605521
_cell_angle_beta                  92.715167
_cell_angle_gamma                 90.01028
_cell_volume                      1494.87598984

loop_
_atom_site_label
_atom_site_type_symbol
_atom_type_description
_atom_site_fract_x
_atom_site_fract_y
_atom_site_fract_z
_atom_type_partial_charge
C1    C     C_R   0.261944 0.502086 0.500900 0.787089
C2    C     C_R   0.738054 0.497904 0.499099 0.787133
C3    C     C_R   0.494497 0.871596 0.498321 -0.080930
C4    C     C_R   0.505483 0.128407 0.501691 -0.080932
C5    C     C_R   0.427312 0.935186 0.420201 0.024084
C6    C     C_R   0.572651 0.064819 0.579822 0.024069
C7    C     C_R   0.203018 0.577952 0.868571 -0.028534
C8    C     C_R   0.796831 0.421530 0.131495 -0.028658
C9    C     C_R   0.138465 0.531006 0.778030 -0.080788
C10   C     C_R   0.861491 0.468619 0.221928 -0.080809
C11   C     C_R   0.129750 0.600432 0.687697 0.094729
C12   C     C_R   0.870224 0.399364 0.312372 0.094746
C13   C     C_R   0.184283 0.718180 0.689525 -0.117041
C14   C     C_R   0.815634 0.281634 0.310745 -0.117074
C15   C     C_R   0.249479 0.764505 0.780036 -0.096125
C16   C     C_R   0.750318 0.235173 0.220350 -0.096075
C17   C     C_R   0.259193 0.694184 0.869286 -0.100691
C18   C     C_R   0.740573 0.305329 0.130996 -0.100759
C19   C     C_R   0.938122 0.543835 0.587545 -0.236434
C20   C     C_R   0.061874 0.456141 0.412449 -0.236458
C21   C     C_R   0.871721 0.496644 0.497753 -0.090083
C22   C     C_R   0.128276 0.503339 0.502243 -0.090093
C23   C     C_R   0.503518 0.262072 0.500816 0.788397
C24   C     C_R   0.496478 0.737928 0.499186 0.788396
C25   C     C_R   0.934253 0.451826 0.409160 -0.004728
C26   C     C_R   0.065740 0.548131 0.590841 -0.004805
C27   C     C_2   0.475808 0.457684 0.031384 0.153309
C28   C     C_2   0.524227 0.542295 0.968618 0.153450
C29   C     C_1   0.521730 0.527746 0.852602 0.285837
C30   C     C_1   0.478285 0.472244 0.147398 0.285793
C31   C     C_R   0.836630 0.255280 0.708464 -0.164060
C32   C     C_R   0.163347 0.744698 0.291565 -0.164048
C33   C     C_R   0.751956 0.204647 0.632371 -0.171175
C34   C     C_R   0.248032 0.795317 0.367659 -0.171134
C35   C     C_R   0.656813 0.126855 0.661189 0.108947
C36   C     C_R   0.343136 0.873159 0.338842 0.108981
C37   C     C_R   0.648458 0.100179 0.767517 -0.166522
C38   C     C_R   0.351423 0.899915 0.232523 -0.166588
C39   C     C_R   0.733861 0.150108 0.843286 -0.142147
C40   C     C_R   0.266000 0.850014 0.156760 -0.142303
C41   C     C_R   0.827869 0.227898 0.813931 0.423521
C42   C     C_R   0.172043 0.772160 0.186108 0.423494
C43   C     C_R   0.565302 0.936517 0.577177 -0.232501
C44   C     C_R   0.434667 0.063488 0.422844 -0.232566
Cu1   Cu    Cu3+1 0.492140 0.492110 0.395880 1.008837
Cu2   Cu    Cu3+1 0.507860 0.507890 0.604120 1.008826
H1    H     H_    0.176945 0.773460 0.621006 0.109158
H2    H     H_    0.823017 0.226470 0.379333 0.109061
H3    H     H_    0.292905 0.854589 0.780834 0.148606
H4    H     H_    0.706836 0.145106 0.219719 0.148554
H5    H     H_    0.890501 0.579411 0.655442 0.182871
H6    H     H_    0.109497 0.420538 0.344560 0.182832
H7    H     H_    0.910232 0.313942 0.685146 0.157160
H8    H     H_    0.089778 0.685992 0.314876 0.157220
H9    H     H_    0.761753 0.224436 0.550926 0.107354
H10   H     H_    0.238264 0.775484 0.449104 0.107378
H11   H     H_    0.576786 0.039332 0.791519 0.167815
H12   H     H_    0.423056 0.960810 0.208524 0.167778
H13   H     H_    0.727938 0.126415 0.924365 0.171498
H14   H     H_    0.271868 0.873779 0.075691 0.171544
H15   H     H_    0.619066 0.886358 0.635152 0.165764
H16   H     H_    0.380899 0.113652 0.364875 0.165744
H17   H     H_    0.311132 0.729148 0.938714 0.162213
H18   H     H_    0.688536 0.270258 0.061664 0.162186
H19   H     H_    0.210449 0.523827 0.937886 0.203848
H20   H     H_    0.789375 0.475526 0.062099 0.203780
H21   H     H_    0.097123 0.439981 0.777553 0.176406
H22   H     H_    0.902881 0.559629 0.222246 0.176535
N1    N     N_1   0.480320 0.480250 0.239400 -0.153025
N2    N     N_1   0.519680 0.519750 0.760600 -0.153036
O1    O     O_R   0.313000 0.493330 0.412070 -0.579322
O2    O     O_R   0.687000 0.506670 0.587930 -0.579322
O3    O     O_R   0.326280 0.506660 0.587930 -0.567871
O4    O     O_R   0.673720 0.493340 0.412070 -0.567836
O5    O     O_R   0.493370 0.312980 0.412070 -0.583796
O6    O     O_R   0.506630 0.687020 0.587930 -0.583793
O7    O     O_R   0.506650 0.326310 0.587930 -0.555965
O8    O     O_R   0.493350 0.673690 0.412070 -0.555953
Cl1   Cl    Cl    0.936555 0.288493 0.908717 -0.631056
Cl2   Cl    Cl    0.063338 0.711593 0.091328 -0.630876
Cl3   Cl    Cl    0.590916 0.679605 0.024946 -0.644360
Cl4   Cl    Cl    0.409145 0.320363 0.975059 -0.644671

loop_
_geom_bond_atom_site_label_1
_geom_bond_atom_site_label_2
_ccdc_geom_bond_type
C33   H9    S    
C42   Cl2   S    
C40   H14   S    
Cu1   O1    S    
Cu2   O6    S    
C39   C41   A    
Cu1   Cu2   S    
C34   H10   S    
C3    C43   A    
C1    O1    A    
C28   C29   S    
C19   C21   A    
C16   H4    S    
C8    C10   A    
C31   H7    S    
C20   C25   A    
C5    C36   S    
C6    C35   S    
C7    C9    A    
C19   C26   A    
C38   H12   S    
C7    C17   A    
C31   C33   A    
Cu1   O8    S    
Cu2   O2    S    
C2    O4    A    
C40   C42   A    
C1    C22   S    
C27   C30   S    
C3    C24   S    
C2    O2    A    
C32   H8    S    
Cu1   N1    S    
C4    C6    A    
C23   O5    A    
C13   H1    S    
C4    C23   S    
C24   O6    A    
C14   H2    S    
C4    C44   A    
C11   C26   S    
C44   H16   S    
C8    H20   S    
C8    C18   A    
Cu1   O4    S    
C32   C34   A    
C9    H21   S    
C7    H19   S    
C39   H13   S    
C2    C21   S    
C16   C18   A    
C23   O7    A    
C9    C11   A    
C10   C12   A    
C24   O8    A    
C5    C44   A    
C12   C14   A    
C6    C43   A    
C13   C15   A    
C14   C16   A    
C30   N1    T    
C43   H15   S    
C29   N2    T    
C15   C17   A    
C21   C25   A    
C31   C41   A    
C35   C37   A    
C28   Cl3   S    
C27   Cl4   S    
C20   C22   A    
C3    C5    A    
C41   Cl1   S    
Cu2   O7    S    
C10   H22   S    
C12   C25   S    
Cu1   O5    S    
C1    O3    A    
C36   C38   A    
C37   C39   A    
C17   H17   S    
C38   C40   A    
C11   C13   A    
C18   H18   S    
C33   C35   A    
C34   C36   A    
C15   H3    S    
Cu2   N2    S    
C19   H5    S    
C20   H6    S    
C22   C26   A    
C27   C28   D    
C32   C42   A    
Cu2   O3    S    
C37   H11   S    
