data_mof_unit_18587.cif
_audit_creation_date              2012-12-11T15:14:56-0500
_audit_creation_method            fapswitch 2.2
_symmetry_space_group_name_H-M    P1
_symmetry_Int_Tables_number       1
_space_group_crystal_system       triclinic
_cell_length_a                    11.089537
_cell_length_b                    11.146144
_cell_length_c                    18.381345
_cell_angle_alpha                 90.818845
_cell_angle_beta                  89.155446
_cell_angle_gamma                 119.463951
_cell_volume                      1977.90405762

loop_
_atom_site_label
_atom_site_type_symbol
_atom_type_description
_atom_site_fract_x
_atom_site_fract_y
_atom_site_fract_z
_atom_type_partial_charge
C1    C     C_R   0.522885 0.453055 0.643100 0.553825
C2    C     C_R   0.461227 0.520110 0.352841 0.540168
C3    C     C_R   0.454917 0.878580 0.136463 0.532935
C4    C     C_R   0.115254 0.572439 0.362165 0.549961
C5    C     C_3   0.384136 0.983789 0.484548 0.255075
C6    C     C_3   0.628938 0.572566 0.026621 0.271699
C7    C     C_3   0.048732 0.413364 0.483408 0.279793
C8    C     C_3   0.390686 0.999905 0.026380 0.321865
C9    C     C_3   0.635316 0.594801 0.471883 0.255909
C10   C     C_3   0.936843 0.401816 0.048853 0.327612
C11   C     C_3   0.995455 0.388609 0.974702 0.324689
C12   C     C_R   0.877626 0.454622 0.863432 0.536284
C13   C     C_3   0.553162 0.619326 0.532349 0.283359
C14   C     C_3   0.400960 0.939488 0.952342 0.330809
C15   C     C_3   0.123787 0.515149 0.544920 0.288652
C16   C     C_3   0.568835 0.628004 0.971990 0.271938
C17   C     C_3   0.437534 0.920167 0.540045 0.307476
C18   C     C_3   0.490568 0.128969 0.511141 -0.192602
C19   C     C_3   0.570911 0.437626 0.980818 -0.143264
C20   C     C_3   0.909585 0.396071 0.511540 -0.195739
C21   C     C_3   0.530507 0.129540 0.010519 -0.180184
C22   C     C_3   0.601211 0.457244 0.508084 -0.154129
C23   C     C_R   0.575790 0.116608 0.637806 0.556879
C24   C     C_3   0.863784 0.472564 0.014399 -0.149723
C25   C     C_3   0.127364 0.526806 0.989459 -0.181662
C26   C     C_3   0.421172 0.544561 0.485344 -0.024291
C27   C     C_3   0.470926 0.865613 0.986709 -0.150836
C28   C     C_3   0.143810 0.635475 0.496320 -0.078418
C29   C     C_3   0.434176 0.568152 0.018798 -0.143649
C30   C     C_3   0.542597 0.922889 0.483770 -0.082100
C31   C     C_3   0.544497 0.062831 0.564955 0.032218
C32   C     C_3   0.504763 0.494088 0.928457 0.031362
C33   C     C_3   0.988528 0.501446 0.571765 -0.005720
C34   C     C_R   0.516797 0.460922 0.852851 0.537855
C35   C     C_3   0.539314 0.066357 0.937008 0.024293
C36   C     C_3   0.514115 0.481943 0.566816 0.025273
C37   C     C_3   0.924727 0.462644 0.939771 -0.020410
C38   C     C_3   0.065936 0.538758 0.063096 0.021772
C39   C     C_3   0.503308 0.514508 0.426331 0.005725
C40   C     C_3   0.464068 0.928217 0.060961 -0.022823
C41   C     C_3   0.065520 0.532980 0.435851 -0.009436
C42   C     C_3   0.495341 0.506559 0.071279 0.028499
C43   C     C_3   0.492259 0.990610 0.428740 0.022095
C44   C     C_3   0.651133 0.066530 0.509809 -0.168142
C45   C     C_R   0.933104 0.478997 0.644293 0.531557
C46   C     C_3   0.372088 0.432265 0.974239 -0.156238
C47   C     C_3   0.005403 0.621217 0.523779 -0.090349
C48   C     C_3   0.611830 0.994577 0.970897 -0.101281
C49   C     C_3   0.383674 0.405366 0.520349 -0.101359
C50   C     C_3   0.055192 0.601318 0.955571 -0.179144
C51   C     C_3   0.995113 0.611822 0.029043 -0.101934
C52   C     C_3   0.468809 0.379774 0.461319 -0.205396
C53   C     C_3   0.604287 0.056426 0.044322 -0.175403
C54   C     C_3   0.927214 0.516204 0.462854 -0.145902
C55   C     C_3   0.435510 0.373661 0.026404 -0.158081
C56   C     C_R   0.575942 0.121243 0.863203 0.543496
C57   C     C_3   0.599382 0.134512 0.454630 -0.200882
C58   C     C_3   0.191334 0.014807 0.495843 -0.129680
C59   C     C_3   0.787517 0.773058 0.088646 -0.082439
C60   C     C_3   0.981699 0.214594 0.413702 -0.091879
C61   C     C_3   0.252103 0.039525 0.110892 -0.101724
C62   C     C_3   0.796342 0.811897 0.428703 -0.120587
C63   C     C_3   0.807733 0.323375 0.156531 -0.104442
C64   C     C_3   0.034059 0.248058 0.891534 -0.107270
C65   C     C_3   0.709322 0.791785 0.610882 -0.077933
C66   C     C_3   0.316321 0.808644 0.846090 -0.112566
C67   C     C_R   0.461363 0.517492 0.146993 0.533010
C68   C     C_3   0.180827 0.433960 0.647965 -0.097650
C69   C     C_3   0.768910 0.788702 0.909783 -0.079557
C70   C     C_3   0.290407 0.825580 0.640479 -0.051234
C71   C     C_R   0.479007 0.938183 0.354819 0.543469
C72   C     C_R   0.121115 0.575666 0.136900 0.536816
Cr1   Cr    Cr6+3 0.769930 0.543130 0.750000 0.958062
Cr2   Cr    Cr6+3 0.773200 0.230070 0.750000 0.956074
Cr3   Cr    Cr6+3 0.456870 0.226800 0.750000 0.986830
Cr4   Cr    Cr6+3 0.543130 0.769930 0.250000 0.964575
Cr5   Cr    Cr6+3 0.230070 0.773200 0.250000 1.005233
Cr6   Cr    Cr6+3 0.226800 0.456870 0.250000 1.012559
H1    H     H_    0.757538 0.090505 0.523882 0.127208
H2    H     H_    0.848208 0.509889 0.424513 0.189932
H3    H     H_    0.381062 0.269391 0.047964 0.155681
H4    H     H_    0.662988 0.221686 0.417738 0.116904
H5    H     H_    0.462265 0.200475 0.537522 0.122126
H6    H     H_    0.622884 0.385957 0.953474 0.085123
H7    H     H_    0.812036 0.308766 0.528029 0.117374
H8    H     H_    0.564810 0.230785 0.034580 0.090411
H9    H     H_    0.673977 0.420460 0.521801 0.117434
H10   H     H_    0.763039 0.434623 0.040343 0.145685
H11   H     H_    0.227409 0.558439 0.963748 0.090922
H12   H     H_    0.266655 0.374376 0.953723 0.155346
H13   H     H_    0.354778 0.587552 0.469437 0.138992
H14   H     H_    0.430219 0.763306 0.963435 0.146639
H15   H     H_    0.241488 0.720614 0.477234 0.171395
H16   H     H_    0.381014 0.618444 0.046365 0.083166
H17   H     H_    0.559410 0.837597 0.465929 0.147657
H18   H     H_    0.223090 0.107680 0.462392 0.145858
H19   H     H_    0.221712 0.043996 0.553480 0.098365
H20   H     H_    0.076751 0.954516 0.495060 0.134103
H21   H     H_    0.796785 0.768431 0.148423 0.147386
H22   H     H_    0.708398 0.803993 0.077188 0.171479
H23   H     H_    0.988955 0.707549 0.541875 0.167046
H24   H     H_    0.888484 0.855783 0.067933 0.129576
H25   H     H_    0.905792 0.243894 0.393084 0.121049
H26   H     H_    0.037265 0.202293 0.366017 0.154975
H27   H     H_    0.924535 0.113004 0.440236 0.086237
H28   H     H_    0.197255 0.099673 0.106328 0.131808
H29   H     H_    0.354719 0.107133 0.136298 0.115426
H30   H     H_    0.185767 0.952068 0.146931 0.164782
H31   H     H_    0.808088 0.872728 0.478656 0.101770
H32   H     H_    0.716185 0.811179 0.393767 0.167804
H33   H     H_    0.895500 0.865700 0.398012 0.137736
H34   H     H_    0.710777 0.003543 0.951184 0.211592
H35   H     H_    0.699057 0.284453 0.139972 0.088977
H36   H     H_    0.852923 0.433893 0.171462 0.159541
H37   H     H_    0.805579 0.267261 0.206326 0.154196
H38   H     H_    0.092615 0.191798 0.897287 0.131002
H39   H     H_    0.104070 0.349635 0.866097 0.108919
H40   H     H_    0.946967 0.183060 0.854872 0.162744
H41   H     H_    0.768833 0.905022 0.603500 0.113943
H42   H     H_    0.776857 0.748759 0.592938 0.125987
H43   H     H_    0.686670 0.774073 0.669943 0.160110
H44   H     H_    0.294004 0.706574 0.866129 0.087732
H45   H     H_    0.281001 0.325432 0.540545 0.176722
H46   H     H_    0.422624 0.861454 0.822945 0.166749
H47   H     H_    0.242661 0.788881 0.801448 0.132938
H48   H     H_    0.098412 0.329239 0.631344 0.125234
H49   H     H_    0.148267 0.478422 0.693354 0.127705
H50   H     H_    0.266332 0.423710 0.670531 0.159531
H51   H     H_    0.849671 0.886799 0.934039 0.128326
H52   H     H_    0.769122 0.804501 0.850300 0.135598
H53   H     H_    0.799893 0.709196 0.919019 0.176357
H54   H     H_    0.247237 0.891803 0.623547 0.105647
H55   H     H_    0.354028 0.865939 0.689901 0.155349
H56   H     H_    0.091818 0.688071 0.918679 0.224875
H57   H     H_    0.201701 0.724990 0.655856 0.145195
H58   H     H_    0.006213 0.711498 0.048144 0.214095
H59   H     H_    0.437837 0.286804 0.426942 0.142712
H60   H     H_    0.691793 0.092489 0.081144 0.227934
O1    O     O_R   0.913270 0.574260 0.668550 -0.539709
O2    O     O_R   0.574260 0.913270 0.331450 -0.552042
O3    O     O_R   0.086730 0.660990 0.168550 -0.541089
O4    O     O_R   0.339010 0.425740 0.331450 -0.507519
O5    O     O_R   0.640160 0.530400 0.673300 -0.518136
O6    O     O_R   0.890240 0.359840 0.826700 -0.528188
O7    O     O_R   0.469600 0.109760 0.673300 -0.535418
O8    O     O_R   0.640160 0.530400 0.826700 -0.526770
O9    O     O_R   0.890240 0.359840 0.673300 -0.535323
O10   O     O_R   0.469600 0.109760 0.826700 -0.457220
O11   O     O_R   0.530400 0.640160 0.173300 -0.528353
O12   O     O_R   0.660990 0.086730 0.831450 -0.540126
O13   O     O_R   0.359840 0.890240 0.326700 -0.477902
O14   O     O_R   0.109760 0.469600 0.173300 -0.455565
O15   O     O_R   0.530400 0.640160 0.326700 -0.525037
O16   O     O_R   0.359840 0.890240 0.173300 -0.525256
O17   O     O_R   0.109760 0.469600 0.326700 -0.502731
O18   O     O_3   0.666667 0.333333 0.750000 -0.305583
O19   O     O_3   0.333333 0.666667 0.250000 -0.319417
O20   O     O_3   0.244137 0.933386 0.465142 -0.567819
O21   O     O_3   0.761923 0.646201 0.057261 -0.619242
O22   O     O_3   0.080351 0.309466 0.462770 -0.579289
O23   O     O_R   0.425740 0.339010 0.668550 -0.558424
O24   O     O_3   0.259708 0.988619 0.041352 -0.557060
O25   O     O_3   0.771451 0.678869 0.445220 -0.587239
O26   O     O_3   0.882918 0.296739 0.101571 -0.551747
O27   O     O_3   0.981178 0.256930 0.960375 -0.556306
O28   O     O_3   0.583524 0.739464 0.572867 -0.536322
O29   O     O_3   0.293269 0.886113 0.900920 -0.548564
O30   O     O_3   0.231864 0.525952 0.589261 -0.540018
O31   O     O_3   0.638254 0.758494 0.938938 -0.617681
O32   O     O_3   0.368372 0.804651 0.585809 -0.506793
O33   O     O_R   0.913270 0.574260 0.831450 -0.531445
O34   O     O_R   0.660990 0.086730 0.668550 -0.508216
O35   O     O_R   0.425740 0.339010 0.831450 -0.521924
O36   O     O_R   0.574260 0.913270 0.168550 -0.527408
O37   O     O_R   0.086730 0.660990 0.331450 -0.482525
O38   O     O_R   0.339010 0.425740 0.168550 -0.521347

loop_
_geom_bond_atom_site_label_1
_geom_bond_atom_site_label_2
_ccdc_geom_bond_type
C27   C48   S    
C28   C47   S    
C47   H23   S    
C29   C42   S    
Cr3   O35   S    
C33   C45   S    
Cr3   O18   S    
C58   H20   S    
C45   O1    A    
Cr5   O13   S    
C6    O21   S    
C13   O28   S    
Cr6   O14   S    
Cr3   O7    S    
C6    C19   S    
C23   O7    A    
C18   H5    S    
C30   H17   S    
C66   O29   S    
C64   H38   S    
C59   H22   S    
Cr6   O4    S    
C29   H16   S    
C25   C38   S    
C9    C22   S    
C5    C17   S    
C4    C41   S    
C35   C48   S    
C49   H45   S    
Cr4   O15   S    
C9    C39   S    
C64   H40   S    
C30   C43   S    
C9    O25   S    
C12   C37   S    
C11   C37   S    
C61   H30   S    
C9    C13   S    
C25   C50   S    
C58   H18   S    
C3    O36   A    
C32   C34   S    
C63   H36   S    
C59   O21   S    
C2    C39   S    
C65   H42   S    
C71   O13   A    
C62   H33   S    
C69   H52   S    
C72   O14   A    
C4    O37   A    
C46   C55   S    
C70   H55   S    
C43   C71   S    
C66   H44   S    
C65   H43   S    
C14   C27   S    
Cr1   O33   S    
C60   H25   S    
C68   H50   S    
Cr2   O34   S    
C63   H37   S    
C24   C51   S    
C7    C15   S    
C39   C52   S    
C5    C43   S    
C1    O23   A    
Cr5   O37   S    
Cr6   O38   S    
C17   C30   S    
C30   C44   S    
C72   O3    A    
C58   H19   S    
C8    C14   S    
C61   H29   S    
C19   C32   S    
C16   O31   S    
C8    C21   S    
C12   O33   A    
C54   H2    S    
Cr4   O2    S    
C63   O26   S    
C38   C72   S    
Cr4   O19   S    
C31   C44   S    
C23   O34   A    
C61   O24   S    
Cr2   O9    S    
C13   C36   S    
C24   C37   S    
C58   O20   S    
C26   C49   S    
C14   C35   S    
C17   O32   S    
C38   C51   S    
Cr1   O1    S    
C10   C24   S    
C16   C29   S    
C65   O28   S    
C3    O16   A    
C64   H39   S    
C12   O6    A    
C28   H15   S    
C23   C31   S    
C56   O10   A    
C36   C49   S    
C64   O27   S    
C1    O5    A    
C42   C55   S    
C51   H58   S    
C18   C57   S    
C62   O25   S    
C62   H32   S    
C67   O38   A    
C69   H53   S    
C49   C52   S    
C20   H7    S    
C70   H54   S    
C52   H59   S    
C65   H41   S    
Cr2   O18   S    
C27   H14   S    
C50   C51   S    
C69   O31   S    
C22   H9    S    
C61   H28   S    
C24   H10   S    
C68   H49   S    
C26   C39   S    
C47   C54   S    
C46   H12   S    
C20   C33   S    
C68   O30   S    
C20   C54   S    
C48   H34   S    
C3    C40   S    
C5    O20   S    
C2    O15   A    
C53   H60   S    
C50   H56   S    
C70   H57   S    
C33   C47   S    
C66   H46   S    
C13   C26   S    
C55   H3    S    
C56   O12   A    
C19   H6    S    
C68   H48   S    
Cr6   O19   S    
C22   C52   S    
Cr1   O5    S    
C19   C55   S    
Cr2   O6    S    
C21   H8    S    
C10   O26   S    
C27   C40   S    
C35   C56   S    
C45   O9    A    
C59   H24   S    
C32   C46   S    
C44   H1    S    
C60   O22   S    
C40   C53   S    
C28   C41   S    
C71   O2    A    
C7    O22   S    
C2    O4    A    
Cr3   O10   S    
C16   C32   S    
C22   C36   S    
C29   C46   S    
C25   H11   S    
C66   H47   S    
C67   O11   A    
Cr1   O8    S    
C10   C38   S    
Cr4   O36   S    
C21   C35   S    
C26   H13   S    
C34   O35   A    
C8    O24   S    
C15   O30   S    
C21   C53   S    
C37   C50   S    
C34   O8    A    
C15   C28   S    
C42   C67   S    
C62   H31   S    
Cr4   O11   S    
C5    C18   S    
C17   C31   S    
C59   H21   S    
Cr1   O18   S    
C48   C53   S    
Cr3   O23   S    
C15   C33   S    
C7    C41   S    
C70   O32   S    
Cr6   O17   S    
Cr5   O3    S    
C41   C54   S    
C10   C11   S    
C43   C57   S    
C6    C16   S    
C63   H35   S    
C4    O17   A    
C69   H51   S    
C7    C20   S    
C6    C42   S    
C11   O27   S    
Cr5   O16   S    
C11   C25   S    
C57   H4    S    
Cr2   O12   S    
C18   C31   S    
C8    C40   S    
C14   O29   S    
C60   H26   S    
C44   C57   S    
C60   H27   S    
C1    C36   S    
Cr5   O19   S    
