data_mof_unit_33281.cif
_audit_creation_date              2012-12-10T17:00:03-0500
_audit_creation_method            fapswitch 2.2
_symmetry_space_group_name_H-M    P1
_symmetry_Int_Tables_number       1
_space_group_crystal_system       triclinic
_cell_length_a                    23.611535
_cell_length_b                    11.11198
_cell_length_c                    10.077044
_cell_angle_alpha                 91.489064
_cell_angle_beta                  89.300155
_cell_angle_gamma                 93.427309
_cell_volume                      2638.15253868

loop_
_atom_site_label
_atom_site_type_symbol
_atom_type_description
_atom_site_fract_x
_atom_site_fract_y
_atom_site_fract_z
_atom_type_partial_charge
C1    C     C_R   0.501799 0.267393 0.497937 0.795355
C2    C     C_R   0.119698 0.619495 0.538280 0.685987
C3    C     C_R   0.247241 0.624268 0.535476 0.352650
C4    C     C_R   0.391674 0.501861 0.500552 0.950253
C5    C     C_R   0.301366 0.611125 0.480045 0.214697
C6    C     C_R   0.329024 0.504321 0.504441 -0.331007
C7    C     C_R   0.296929 0.405673 0.558486 0.297666
C8    C     C_R   0.238822 0.415403 0.588351 0.396775
C9    C     C_R   0.211409 0.519276 0.550912 -0.060109
C10   C     C_R   0.760889 0.414634 0.420917 -0.208303
C11   C     C_R   0.701807 0.417045 0.409946 0.324359
C12   C     C_R   0.969171 0.279458 0.507386 -0.194572
C13   C     C_R   0.671921 0.498189 0.493834 -0.370544
C14   C     C_R   0.704550 0.579162 0.577504 0.316120
C15   C     C_R   0.760268 0.554092 0.608360 0.427903
C16   C     C_R   0.497631 0.732532 0.502673 0.746725
C17   C     C_R   0.790503 0.480413 0.520562 0.079730
C18   C     C_2   0.500176 0.930856 0.408154 -0.349832
C19   C     C_2   0.488581 0.861548 0.513973 0.296933
C20   C     C_2   0.489792 0.059502 0.402548 0.297480
C21   C     C_2   0.513452 0.139127 0.493491 0.315132
C22   C     C_2   0.469359 0.433941 0.932691 0.200980
C23   C     C_R   0.028690 0.283682 0.506264 0.416883
C24   C     C_2   0.457611 0.470428 0.075776 0.684790
C25   C     C_R   0.608674 0.499226 0.498207 0.905287
C26   C     C_R   0.881666 0.595259 0.518018 0.667377
C27   C     C_R   0.880026 0.380671 0.520307 0.570779
C28   C     C_R   0.939682 0.384805 0.516891 -0.056489
C29   C     C_R   0.970295 0.496688 0.527212 -0.067476
C30   C     C_R   0.941210 0.603731 0.530319 -0.203448
C31   C     C_3   0.792552 0.545949 0.817992 -0.174289
C32   C     C_3   0.604668 0.134452 0.565101 -0.196378
C33   C     C_3   0.362181 0.492091 0.062067 -0.145705
C34   C     C_R   0.060075 0.396775 0.511483 -0.133109
C35   C     C_3   0.573618 0.641145 0.181719 0.201804
C36   C     C_3   0.949933 0.866607 0.420402 -0.036319
C37   C     C_3   0.304064 0.207840 0.497670 0.014760
C38   C     C_3   0.199442 0.364223 0.787308 -0.111666
C39   C     C_R   0.030261 0.502010 0.530350 -0.111559
C40   C     C_R   0.060306 0.613282 0.551261 -0.217497
C41   C     C_R   0.030118 0.715930 0.583196 0.265057
C42   C     C_R   0.972334 0.715237 0.551196 0.392286
C43   C     C_R   0.119996 0.409664 0.499180 0.658748
Cu1   Cu    Cu3+1 0.500010 0.500020 0.638630 1.177558
Cu2   Cu    Cu3+1 0.499990 0.499980 0.361370 1.123440
H1    H     H_    0.945600 0.192885 0.502362 0.219060
H2    H     H_    0.448354 0.946802 0.127109 0.369696
H3    H     H_    0.618916 0.096853 0.467723 0.179935
H4    H     H_    0.631334 0.097744 0.642487 0.216301
H5    H     H_    0.611738 0.234283 0.570012 0.158688
H6    H     H_    0.523672 0.221490 0.912864 0.354039
H7    H     H_    0.584097 0.770753 0.771836 0.396667
H8    H     H_    0.373444 0.588259 0.039268 0.175016
H9    H     H_    0.323160 0.489886 0.124635 0.206926
H10   H     H_    0.351837 0.440347 0.968954 0.170030
H11   H     H_    0.100847 0.019657 0.389345 0.395892
H12   H     H_    0.515342 0.889719 0.316441 0.156995
H13   H     H_    0.599444 0.561395 0.172278 0.194002
H14   H     H_    0.580829 0.686445 0.278604 0.120862
H15   H     H_    0.593422 0.712910 0.119042 0.155972
H16   H     H_    0.055420 0.683543 0.857422 0.330870
H17   H     H_    0.928217 0.803040 0.347607 0.135921
H18   H     H_    0.994953 0.884655 0.388982 0.148464
H19   H     H_    0.928640 0.952837 0.417934 0.206284
H20   H     H_    0.243130 0.929051 0.680308 0.394881
H21   H     H_    0.407124 0.762528 0.267414 0.389305
H22   H     H_    0.304590 0.237346 0.392784 0.159314
H23   H     H_    0.784586 0.362441 0.349669 0.232140
H24   H     H_    0.260968 0.170877 0.525487 0.212127
H25   H     H_    0.332872 0.132969 0.504017 0.227463
H26   H     H_    0.168669 0.436256 0.789981 0.160215
H27   H     H_    0.239462 0.396315 0.837871 0.150198
H28   H     H_    0.180292 0.287554 0.844051 0.212087
H29   H     H_    0.597071 0.212010 0.239691 0.389725
H30   H     H_    0.625164 0.849682 0.531187 0.358816
H31   H     H_    0.819027 0.468583 0.793769 0.149769
H32   H     H_    0.749885 0.513056 0.854951 0.182832
H33   H     H_    0.813670 0.599615 0.899647 0.205400
H34   H     H_    0.409696 0.827564 0.826109 0.397074
N1    N     N_R   0.851960 0.485207 0.520876 -0.443275
N2    N     N_R   0.149416 0.516658 0.533370 -0.447823
N3    N     N_2   0.499380 0.498660 0.846910 -0.066301
N4    N     N_2   0.499370 0.498630 0.153040 -0.051431
O1    O     O_R   0.500010 0.321960 0.617040 -0.511008
O2    O     O_R   0.582130 0.500060 0.617050 -0.516383
O3    O     O_R   0.582110 0.500020 0.382900 -0.577431
O4    O     O_2   0.853509 0.696000 0.503089 -0.417331
O5    O     O_2   0.672466 0.403401 0.155133 -0.267215
O6    O     O_2   0.706965 0.221905 0.249669 -0.268701
O7    O     O_3   0.604970 0.276310 0.307952 -0.568349
O8    O     O_2   0.689774 0.772024 0.736505 -0.215508
O9    O     O_2   0.736340 0.805640 0.522642 -0.198982
O10   O     O_3   0.627918 0.761279 0.521482 -0.596661
O11   O     O_3   0.788146 0.620647 0.708210 -0.493640
O12   O     O_2   0.850439 0.273074 0.524087 -0.503376
O13   O     O_2   0.504326 0.946076 0.764895 -0.206645
O14   O     O_2   0.423102 0.020702 0.648108 -0.197618
O15   O     O_3   0.415932 0.802190 0.732355 -0.456423
O16   O     O_2   0.406598 0.186231 0.303769 -0.243926
O17   O     O_2   0.491380 0.162986 0.166058 -0.292567
O18   O     O_3   0.419155 0.979171 0.187381 -0.452732
O19   O     O_3   0.547601 0.098184 0.591666 -0.537774
O20   O     O_2   0.405110 0.230526 0.990710 -0.167255
O21   O     O_2   0.404540 0.297581 0.763116 -0.202988
O22   O     O_3   0.494298 0.200184 0.845567 -0.395290
O23   O     O_2   0.148073 0.319678 0.441725 -0.430702
O24   O     O_2   0.520622 0.721343 0.947502 -0.292857
O25   O     O_2   0.597252 0.566475 0.947530 -0.312271
O26   O     O_3   0.581192 0.683067 0.750255 -0.398375
O27   O     O_3   0.405247 0.439107 0.132608 -0.532910
O28   O     O_2   0.107888 0.158585 0.620286 -0.185450
O29   O     O_2   0.016591 0.053448 0.570886 -0.256431
O30   O     O_3   0.085582 0.099073 0.373389 -0.485170
O31   O     O_3   0.515586 0.616801 0.143546 -0.488557
O32   O     O_2   0.101826 0.905399 0.651259 -0.121150
O33   O     O_2   0.010439 0.889582 0.769332 -0.182261
O34   O     O_2   0.145969 0.727428 0.515285 -0.419909
O35   O     O_3   0.086092 0.741757 0.827711 -0.459172
O36   O     O_3   0.945957 0.822824 0.550811 -0.480586
O37   O     O_2   0.198506 0.707284 0.761540 -0.227409
O38   O     O_2   0.301253 0.735435 0.740946 -0.263928
O39   O     O_3   0.240490 0.872285 0.602904 -0.395708
O40   O     O_2   0.286461 0.793832 0.320075 -0.190571
O41   O     O_2   0.359666 0.824771 0.487514 -0.217886
O42   O     O_3   0.380625 0.691241 0.279210 -0.523715
O43   O     O_3   0.323200 0.301453 0.586538 -0.537984
O44   O     O_3   0.209962 0.323532 0.656096 -0.520630
O45   O     O_R   0.499990 0.321920 0.382900 -0.527677
O46   O     O_R   0.417890 0.499980 0.617100 -0.551553
O47   O     O_R   0.417870 0.499940 0.382950 -0.492979
O48   O     O_R   0.500010 0.678080 0.617100 -0.486949
O49   O     O_R   0.499990 0.678040 0.382960 -0.599409
S1    S     S_3+6 0.671599 0.328185 0.276909 0.000963
S2    S     S_3+6 0.332408 0.734519 0.391525 0.080695
S3    S     S_3+6 0.689661 0.733353 0.592487 0.082361
S4    S     S_3+6 0.457897 0.913689 0.667327 0.140125
S5    S     S_3+6 0.451115 0.101345 0.262759 0.068984
S6    S     S_3+6 0.440739 0.288700 0.882823 0.111829
S7    S     S_3+6 0.548593 0.617845 0.879462 0.130058
S8    S     S_3+6 0.060466 0.145129 0.521866 0.077143
S9    S     S_3+6 0.056973 0.819458 0.707777 0.143110
S10   S     S_3+6 0.246612 0.735113 0.666213 0.121385

loop_
_geom_bond_atom_site_label_1
_geom_bond_atom_site_label_2
_ccdc_geom_bond_type
O42   S2    S    
C33   H10   S    
O32   S9    D    
C1    C21   S    
H2    O18   S    
C37   H24   S    
C41   C42   A    
O29   S8    D    
H34   O15   S    
C27   O12   S    
C1    O45   A    
O35   S9    S    
C15   O11   S    
C38   O44   S    
C7    C8    A    
O13   S4    D    
Cu1   O48   S    
C12   C23   A    
N3    S7    S    
C12   C28   A    
C35   H13   S    
C22   N3    D    
C28   C29   A    
C24   N4    D    
O5    S1    D    
Cu1   N3    S    
C11   S1    S    
C5    C6    A    
C42   O36   S    
C14   S3    S    
C10   C17   A    
O15   S4    S    
C35   O31   S    
C35   H14   S    
C18   C19   D    
C16   O48   A    
C36   O36   S    
Cu1   O1    S    
C8    O44   S    
O22   S6    S    
C26   O4    S    
H11   O30   S    
C36   H18   S    
C18   C20   S    
Cu2   O47   S    
C13   C14   A    
C32   H3    S    
N4    O31   S    
C13   C25   S    
Cu2   N4    S    
C3    S10   S    
C36   H17   S    
C2    O34   S    
O28   S8    D    
C31   H32   S    
C33   H8    S    
C5    S2    S    
C38   H27   S    
O6    S1    D    
O40   S2    D    
C34   C39   A    
C23   S8    S    
O37   S10   D    
C4    C6    S    
C27   N1    A    
O17   S5    D    
O20   S6    D    
C39   C40   A    
O7    S1    S    
O18   S5    S    
C8    C9    A    
C4    O47   A    
C3    C5    A    
C19   S4    S    
C17   N1    S    
C26   N1    A    
C35   H15   S    
C1    O1    A    
C43   O23   S    
C20   S5    S    
C41   S9    S    
C29   C30   A    
C3    C9    A    
C18   H12   S    
H6    O22   S    
C23   C34   A    
C29   C39   A    
C25   O2    A    
O30   S8    S    
C24   O27   S    
H20   O39   S    
C32   H5    S    
C6    C7    A    
C21   O19   S    
C12   H1    S    
C40   C41   A    
C26   C30   A    
C43   N2    A    
C22   C24   S    
O9    S3    D    
O39   S10   S    
Cu1   O2    S    
Cu1   Cu2   S    
H30   O10   S    
C31   H33   S    
C37   O43   S    
C33   H9    S    
C15   C17   A    
C38   H26   S    
H16   O35   S    
O38   S10   D    
C30   C42   A    
C34   C43   A    
O10   S3    S    
O25   S7    D    
C4    O46   A    
C10   H23   S    
C31   O11   S    
C22   S6    S    
H21   O42   S    
O41   S2    D    
O26   S7    S    
H29   O7    S    
Cu2   O3    S    
Cu1   O46   S    
C36   H19   S    
C11   C13   A    
C31   H31   S    
H7    O26   S    
C16   C19   S    
C37   H22   S    
C25   O3    A    
O21   S6    D    
C32   O19   S    
C7    O43   S    
O24   S7    D    
C16   O49   A    
C32   H4    S    
C10   C11   A    
O33   S9    D    
C2    C40   A    
O8    S3    D    
C20   C21   D    
Cu2   O49   S    
C27   C28   A    
C14   C15   A    
O16   S5    D    
C2    N2    A    
C33   O27   S    
Cu2   O45   S    
O14   S4    D    
C37   H25   S    
C9    N2    S    
C38   H28   S    
