data_mof_unit_16044.cif
_audit_creation_date              2012-12-10T20:26:32-0500
_audit_creation_method            fapswitch 2.2
_symmetry_space_group_name_H-M    P1
_symmetry_Int_Tables_number       1
_space_group_crystal_system       triclinic
_cell_length_a                    10.732529
_cell_length_b                    10.69561
_cell_length_c                    9.887839
_cell_angle_alpha                 89.748859
_cell_angle_beta                  90.293825
_cell_angle_gamma                 90.341549
_cell_volume                      1134.98853405

loop_
_atom_site_label
_atom_site_type_symbol
_atom_type_description
_atom_site_fract_x
_atom_site_fract_y
_atom_site_fract_z
_atom_type_partial_charge
C1    C     C_R   0.501614 0.260287 0.500286 0.915308
C2    C     C_R   0.512911 0.128700 0.501821 -0.015771
C3    C     C_R   0.554743 0.065668 0.386782 -0.201349
C4    C     C_R   0.554270 0.936359 0.386416 -0.162885
C5    C     C_R   0.512648 0.871604 0.501286 -0.028798
C6    C     C_R   0.488392 0.935827 0.620374 -0.043547
C7    C     C_3   0.383480 0.926600 0.719669 0.216720
C8    C     C_3   0.382277 0.069775 0.718649 0.195236
C9    C     C_R   0.426626 0.417639 0.071186 0.144887
C10   C     C_R   0.580483 0.573628 0.070929 0.404093
C11   C     C_R   0.580116 0.573429 0.927426 -0.173097
C12   C     C_R   0.262643 0.500887 0.499584 0.989647
C13   C     C_R   0.426816 0.417454 0.928755 0.190120
C14   C     C_3   0.288303 0.408811 0.922162 -0.440061
C15   C     C_3   0.288051 0.409911 0.075495 -0.501890
C16   C     C_R   0.501704 0.739774 0.499868 0.941678
C17   C     C_R   0.737255 0.495344 0.500398 0.939416
C18   C     C_2   0.932678 0.476304 0.387355 -0.109667
C19   C     C_2   0.868299 0.477747 0.502305 -0.308574
C20   C     C_2   0.066670 0.468526 0.390511 -0.144095
C21   C     C_2   0.130802 0.507395 0.498558 -0.251428
C22   C     C_R   0.487979 0.063015 0.620407 -0.033422
H1    H     H_    0.411875 0.111167 0.816705 0.078268
H2    H     H_    0.244910 0.493297 0.876515 0.230733
H3    H     H_    0.255881 0.318497 0.879173 0.239902
H4    H     H_    0.245564 0.495795 0.117643 0.223376
H5    H     H_    0.254814 0.320547 0.120814 0.215726
H6    H     H_    0.910911 0.462281 0.600621 0.161582
H7    H     H_    0.112790 0.433427 0.301156 0.165767
H8    H     H_    0.087884 0.547418 0.587296 0.163746
H9    H     H_    0.580946 0.887998 0.295272 0.212437
H10   H     H_    0.414795 0.886712 0.818060 0.091748
N1    N     N_R   0.499170 0.499140 0.142800 -0.140208
N2    N     N_R   0.499170 0.499180 0.857150 -0.130976
O1    O     O_R   0.500020 0.316790 0.614690 -0.611657
O2    O     O_R   0.500000 0.316760 0.385350 -0.634106
O3    O     O_R   0.319080 0.500020 0.614640 -0.598755
O4    O     O_R   0.319070 0.499980 0.385300 -0.625843
O5    O     O_R   0.500000 0.683240 0.614650 -0.616476
O6    O     O_R   0.499980 0.683210 0.385310 -0.584731
O7    O     O_R   0.680930 0.500020 0.614700 -0.630473
O8    O     O_R   0.680920 0.499980 0.385360 -0.576952
Zn1   Zn    Zn3+2 0.500010 0.500020 0.653130 0.986849
Zn2   Zn    Zn3+2 0.499990 0.499980 0.346870 1.006345
H11   H     H_    0.887362 0.481705 0.288990 0.204550
Cl1   Cl    Cl    0.684931 0.674441 0.153507 -0.628515
H12   H     H_    0.642825 0.634564 0.872512 0.185241
H13   H     H_    0.582146 0.115526 0.295953 0.169778
Cl2   Cl    Cl    0.247200 0.850346 0.652607 -0.529543
Cl3   Cl    Cl    0.245552 0.141265 0.647947 -0.550331

loop_
_geom_bond_atom_site_label_1
_geom_bond_atom_site_label_2
_ccdc_geom_bond_type
C2    C22   A    
C8    C22   S    
O4    Zn2   S    
C6    C7    S    
O1    Zn1   S    
C21   H8    S    
C3    H13   S    
C15   H5    S    
C2    C3    A    
C9    C15   S    
C13   N2    A    
C13   C14   S    
C9    N1    A    
C19   H6    S    
O7    Zn1   S    
C7    Cl2   S    
O8    Zn2   S    
C16   O6    A    
C17   C19   S    
C1    C2    S    
C10   N1    A    
C18   C20   S    
C20   H7    S    
C14   H3    S    
C12   O4    A    
C5    C6    A    
C17   O7    A    
O3    Zn1   S    
O2    Zn2   S    
C4    H9    S    
C7    C8    S    
C10   C11   A    
C16   O5    A    
C3    C4    A    
C6    C22   A    
C18   H11   S    
C8    Cl3   S    
C10   Cl1   S    
O6    Zn2   S    
C8    H1    S    
C20   C21   D    
C1    O1    A    
C18   C19   D    
C14   H2    S    
C12   O3    A    
C9    C13   A    
C14   C15   S    
C5    C16   S    
O5    Zn1   S    
C7    H10   S    
C17   O8    A    
N1    Zn2   S    
C11   H12   S    
C12   C21   S    
C11   N2    A    
N2    Zn1   S    
C1    O2    A    
C4    C5    A    
C15   H4    S    
