data_mof_unit_51973.cif
_audit_creation_date              2012-12-10T17:04:28-0500
_audit_creation_method            fapswitch 2.2
_symmetry_space_group_name_H-M    P1
_symmetry_Int_Tables_number       1
_space_group_crystal_system       triclinic
_cell_length_a                    14.928615
_cell_length_b                    10.596951
_cell_length_c                    10.136136
_cell_angle_alpha                 89.590524
_cell_angle_beta                  88.701323
_cell_angle_gamma                 91.430375
_cell_volume                      1602.55529325

loop_
_atom_site_label
_atom_site_type_symbol
_atom_type_description
_atom_site_fract_x
_atom_site_fract_y
_atom_site_fract_z
_atom_type_partial_charge
C1    C     C_R   0.507720 0.262998 0.500304 0.953279
C2    C     C_R   0.183482 0.435506 0.601582 -0.260720
C3    C     C_R   0.231443 0.504413 0.504933 -0.059456
C4    C     C_R   0.327129 0.500444 0.501356 0.874158
C5    C     C_R   0.188827 0.578923 0.413354 -0.228205
C6    C     C_2   0.573184 0.930154 0.432424 0.473291
C7    C     C_2   0.503318 0.870810 0.493052 -0.397513
C8    C     C_2   0.564859 0.065357 0.404081 0.067100
C9    C     C_2   0.532756 0.133111 0.505863 -0.471155
C10   C     C_2   0.546414 0.581889 0.922704 0.152739
C11   C     C_2   0.555936 0.568841 0.072236 0.144345
C12   C     C_R   0.909667 0.592678 0.419100 -0.000646
C13   C     C_R   0.499976 0.737380 0.499175 0.998057
C14   C     C_R   0.672840 0.500650 0.499199 0.890343
C15   C     C_R   0.816371 0.585857 0.415682 -0.249366
C16   C     C_R   0.768540 0.503795 0.500173 -0.053101
C17   C     C_R   0.811070 0.431512 0.593874 -0.243511
C18   C     C_R   0.903403 0.436518 0.600258 0.112461
C19   C     C_R   0.953291 0.514470 0.510824 0.012077
C20   C     C_3   0.579944 0.119117 0.264761 -0.332747
C21   C     C_3   0.613165 0.025692 0.161455 -0.903076
C22   C     C_3   0.594522 0.693476 0.854147 -0.296051
C23   C     C_R   0.945855 0.363816 0.694423 -0.260761
C24   C     C_3   0.538792 0.812299 0.863536 -0.864303
C25   C     C_3   0.634220 0.639195 0.133039 -0.311107
C26   C     C_3   0.721804 0.571417 0.103559 -0.880368
C27   C     C_3   0.080915 0.285266 0.807191 -0.419970
C28   C     C_3   0.114967 0.367938 0.919259 -0.836312
C29   C     C_R   0.039152 0.364163 0.700370 0.163604
C30   C     C_R   0.090154 0.437076 0.606292 0.106043
C31   C     C_R   0.046576 0.512736 0.512143 0.019901
C32   C     C_R   0.096426 0.585126 0.417378 0.035446
C33   C     C_R   0.053705 0.663440 0.328406 -0.220634
C34   C     C_R   0.960964 0.671925 0.331338 0.427590
H1    H     H_    0.779385 0.644025 0.349668 0.178088
H2    H     H_    0.092695 0.720868 0.257986 0.170557
H3    H     H_    0.684260 0.002828 0.176819 0.267566
H4    H     H_    0.570651 0.938366 0.164379 0.270985
H5    H     H_    0.608956 0.068735 0.061615 0.247307
H6    H     H_    0.515047 0.153276 0.228826 0.227714
H7    H     H_    0.628784 0.199930 0.267689 0.219726
H8    H     H_    0.530119 0.840845 0.967766 0.238928
H9    H     H_    0.573047 0.890667 0.807587 0.246590
H10   H     H_    0.471139 0.795637 0.823077 0.278377
H11   H     H_    0.661826 0.713645 0.892965 0.177474
H12   H     H_    0.443298 0.919431 0.524381 0.091983
H13   H     H_    0.613305 0.672970 0.752066 0.260566
H14   H     H_    0.725282 0.484604 0.164915 0.277098
H15   H     H_    0.727470 0.543791 0.998331 0.248691
H16   H     H_    0.779840 0.634877 0.124278 0.274721
H17   H     H_    0.639452 0.738084 0.097824 0.183309
H18   H     H_    0.624649 0.654250 0.238511 0.284845
H19   H     H_    0.166769 0.437517 0.882950 0.258152
H20   H     H_    0.058520 0.419538 0.965218 0.268761
H21   H     H_    0.144930 0.307638 0.995809 0.248367
H22   H     H_    0.030857 0.216280 0.850310 0.210646
H23   H     H_    0.527398 0.090270 0.603905 0.149139
H24   H     H_    0.135623 0.227617 0.765450 0.197327
H25   H     H_    0.870216 0.792135 0.288689 0.328286
H26   H     H_    0.698840 0.928531 0.383614 0.333523
H27   H     H_    0.474277 0.422763 0.900041 0.134373
H28   H     H_    0.445965 0.461078 0.103945 0.138392
H29   H     H_    0.771961 0.370539 0.661035 0.148852
H30   H     H_    0.905834 0.306784 0.764034 0.147131
H31   H     H_    0.220198 0.378950 0.669987 0.162099
H32   H     H_    0.227919 0.633684 0.340640 0.149035
N1    N     N_2   0.500970 0.501330 0.852150 -0.222002
N2    N     N_2   0.500990 0.501360 0.147810 -0.227105
O1    O     O_R   0.499990 0.319060 0.613040 -0.614861
O2    O     O_3   0.649831 0.865311 0.400420 -0.806165
O3    O     O_R   0.500010 0.319100 0.386900 -0.619991
O4    O     O_R   0.367830 0.499950 0.613080 -0.614367
O5    O     O_R   0.367860 0.499990 0.386940 -0.618431
O6    O     O_R   0.499990 0.680900 0.613100 -0.625760
O7    O     O_R   0.500010 0.680940 0.386960 -0.611587
O8    O     O_R   0.632140 0.500010 0.613060 -0.640835
O9    O     O_R   0.632170 0.500050 0.386920 -0.631961
O10   O     O_3   0.923902 0.756509 0.245495 -0.779544
Zn1   Zn    Zn3+2 0.499980 0.499970 0.650990 0.926306
Zn2   Zn    Zn3+2 0.500020 0.500030 0.349010 0.926264

loop_
_geom_bond_atom_site_label_1
_geom_bond_atom_site_label_2
_ccdc_geom_bond_type
N2    Zn2   S    
C27   C29   S    
C24   H8    S    
O8    Zn1   S    
C2    H31   S    
C19   C31   A    
C20   H7    S    
C10   N1    D    
C10   C22   S    
C1    O3    A    
C23   C29   A    
C22   C24   S    
O4    Zn1   S    
C26   H16   S    
C30   C31   A    
C20   H6    S    
C11   C25   S    
C15   C16   A    
C33   H2    S    
C18   C19   A    
C14   O9    A    
C21   H4    S    
C13   O7    A    
C8    C9    D    
O7    Zn2   S    
C26   H14   S    
C5    C32   A    
C22   H13   S    
H25   O10   S    
C15   H1    S    
O3    Zn2   S    
C28   H21   S    
C17   C18   A    
C18   C23   A    
C7    H12   S    
N1    Zn1   S    
C26   H15   S    
C28   H20   S    
C27   H22   S    
C16   C17   A    
C6    C8    S    
C25   C26   S    
C1    O1    A    
C14   O8    A    
C25   H17   S    
C29   C30   A    
H27   N1    S    
C31   C32   A    
C21   H5    S    
C12   C15   A    
H26   O2    S    
C33   C34   A    
C1    C9    S    
C8    C20   S    
C13   O6    A    
C4    O5    A    
C23   H30   S    
O6    Zn1   S    
C24   H10   S    
C14   C16   S    
O1    Zn1   S    
C12   C34   A    
C3    C4    S    
C4    O4    A    
C11   N2    D    
O9    Zn2   S    
C6    O2    S    
C5    H32   S    
C3    C5    A    
C27   H24   S    
C28   H19   S    
C6    C7    D    
H28   N2    S    
C2    C30   A    
C32   C33   A    
C2    C3    A    
C25   H18   S    
C34   O10   S    
C12   C19   A    
O5    Zn2   S    
C9    H23   S    
C10   C11   S    
C7    C13   S    
C22   H11   S    
C21   H3    S    
C20   C21   S    
C27   C28   S    
C24   H9    S    
C17   H29   S    
