data_mof_unit_25048.cif
_audit_creation_date              2012-12-11T14:29:34-0500
_audit_creation_method            fapswitch 2.2
_symmetry_space_group_name_H-M    P1
_symmetry_Int_Tables_number       1
_space_group_crystal_system       triclinic
_cell_length_a                    6.936713
_cell_length_b                    14.744838
_cell_length_c                    16.25025
_cell_angle_alpha                 90.603884
_cell_angle_beta                  90.157755
_cell_angle_gamma                 89.852586
_cell_volume                      1661.98310376

loop_
_atom_site_label
_atom_site_type_symbol
_atom_type_description
_atom_site_fract_x
_atom_site_fract_y
_atom_site_fract_z
_atom_type_partial_charge
O1    O     O_R   0.494400 0.416610 0.413880 -0.552446
O2    O     O_R   0.823920 0.406790 0.585520 -0.512050
O3    O     O_R   0.994250 0.583390 0.586120 -0.537648
C1    C     C_R   0.654791 0.383834 0.612528 0.794056
O4    O     O_R   0.824110 0.405730 0.414490 -0.548846
O5    O     O_R   0.994440 0.582310 0.413870 -0.517922
C2    C     C_R   0.654854 0.383703 0.386302 0.718301
O6    O     O_R   0.494210 0.417690 0.586130 -0.514882
O7    O     O_3   0.660810 0.557940 0.500000 -0.375537
V1    V     V_3+5 0.935650 0.489250 0.500000 1.530825
O8    O     O_R   0.324160 0.593210 0.414480 -0.556417
C3    C     C_R   0.154396 0.614874 0.386088 0.729030
O9    O     O_R   0.323970 0.594270 0.585510 -0.526289
C4    C     C_R   0.155148 0.615535 0.614408 0.829036
V2    V     V_3+5 0.435660 0.510750 0.500000 1.499521
O10   O     O_3   0.160630 0.442060 0.500000 -0.368243
H1    H     H_    0.892744 0.901855 0.513467 0.112311
C5    C     C_R   0.271855 0.569505 0.783433 0.591301
C6    C     C_R   0.332650 0.547402 0.862837 0.167698
C7    C     C_R   0.324526 0.612343 0.926344 0.120049
C8    C     C_R   0.254468 0.699309 0.909606 -0.216494
C9    C     C_R   0.193978 0.723874 0.829699 -0.025904
C10   C     C_R   0.204526 0.658243 0.764651 -0.115531
C11   C     C_R   0.119795 0.812093 0.814838 -0.119006
C12   C     C_R   0.057095 0.835173 0.734664 0.076861
C13   C     C_R   0.070314 0.770606 0.669100 0.054449
C14   C     C_R   0.144496 0.682325 0.683698 -0.165495
C15   C     C_R   0.984004 0.922851 0.717862 -0.146180
C16   C     C_R   0.924569 0.946100 0.638901 -0.114757
C17   C     C_R   0.937991 0.883294 0.574851 -0.112733
C18   C     C_R   0.010578 0.796711 0.589310 -0.147907
H2    H     H_    0.246155 0.747208 0.960335 0.130177
H3    H     H_    0.972775 0.974654 0.765250 0.106874
H4    H     H_    0.868848 0.013438 0.627298 0.118693
H5    H     H_    0.020018 0.750926 0.537026 0.090686
C19   C     C_2   0.979133 0.709164 0.280807 0.225565
C20   C     C_2   0.144757 0.682985 0.319173 -0.287268
H6    H     H_    0.281406 0.712455 0.301991 0.089999
C21   C     C_2   0.972890 0.778302 0.213918 -0.192496
C22   C     C_2   0.127272 0.813828 0.176169 -0.344792
H7    H     H_    0.830236 0.799706 0.194144 0.144703
H8    H     H_    0.271978 0.793338 0.192993 0.127603
C23   C     C_2   0.775370 0.209922 0.783041 -0.187338
C24   C     C_2   0.614240 0.186354 0.823530 -0.336811
H9    H     H_    0.910463 0.176052 0.797266 0.152908
H10   H     H_    0.481393 0.223884 0.814586 0.192555
C25   C     C_2   0.783955 0.286120 0.723653 0.633164
C26   C     C_2   0.638524 0.307942 0.671468 -0.075671
C27   C     C_2   0.779447 0.209152 0.213845 -0.130459
C28   C     C_2   0.614158 0.182009 0.177297 -0.307003
H11   H     H_    0.915372 0.180440 0.192997 0.136710
H12   H     H_    0.476553 0.210089 0.195942 0.126922
C29   C     C_2   0.791858 0.277708 0.281756 -0.133927
C30   C     C_2   0.638326 0.315428 0.319528 -0.302007
H13   H     H_    0.935862 0.297046 0.301489 0.132500
H14   H     H_    0.493176 0.296742 0.301736 0.126996
O11   O     O_R   0.770210 0.079270 0.910680 -0.540744
O12   O     O_R   0.440150 0.091160 0.082270 -0.546784
O13   O     O_R   0.269970 0.914530 0.082860 -0.546399
C31   C     C_R   0.608847 0.113308 0.110468 0.740310
O14   O     O_R   0.440480 0.090100 0.911240 -0.540828
O15   O     O_R   0.270310 0.913460 0.910610 -0.535948
C32   C     C_R   0.609087 0.113159 0.884572 0.759864
O16   O     O_R   0.769870 0.080340 0.082930 -0.539839
O17   O     O_3   0.603660 0.938980 0.996790 -0.370432
V3    V     V_3+5 0.328750 0.007610 0.996740 1.418801
O18   O     O_R   0.940600 0.902510 0.911180 -0.539691
C33   C     C_R   0.109479 0.880631 0.882832 0.690199
O19   O     O_R   0.940270 0.903570 0.082200 -0.540520
C34   C     C_R   0.110028 0.881771 0.110144 0.749436
V4    V     V_3+5 0.828770 0.986010 0.996670 1.425993
O20   O     O_3   0.103730 0.054750 0.996710 -0.373061
F1    F     F_    0.952243 0.333226 0.721359 -0.669523
N1    N     N_3   0.466642 0.253814 0.668266 -0.699156
H15   H     H_    0.348767 0.295744 0.681570 0.318143
H16   H     H_    0.450108 0.229016 0.608153 0.219562
F2    F     F_    0.276136 0.501865 0.726161 -0.650256
N2    N     N_3   0.402597 0.457520 0.877904 -0.589304
H17   H     H_    0.542750 0.462278 0.901361 0.247186
H18   H     H_    0.315455 0.427929 0.922552 0.233972
N3    N     N_3   0.387150 0.589107 0.007851 -0.663577
H19   H     H_    0.284848 0.545006 0.032227 0.228415
H20   H     H_    0.388616 0.646533 0.046176 0.229953
N4    N     N_3   0.798005 0.670748 0.304760 -0.631658
H21   H     H_    0.735259 0.640553 0.252746 0.217594
H22   H     H_    0.707710 0.723589 0.324267 0.210854

loop_
_geom_bond_atom_site_label_1
_geom_bond_atom_site_label_2
_ccdc_geom_bond_type
C6    C7    A    
C1    O6    A    
N3    H19   S    
C21   H7    S    
C29   C30   D    
C12   C15   A    
C13   C14   A    
C16   C17   A    
N1    H16   S    
C9    C11   A    
C8    C9    A    
C15   C16   A    
N4    H22   S    
O13   V3    S    
O5    C3    A    
C17   C18   A    
N2    H18   S    
O12   C31   A    
V2    O10   S    
O19   V4    S    
C5    C6    A    
O16   V4    S    
C3    C20   S    
O14   C32   A    
O8    V2    S    
N4    H21   S    
O12   V3    S    
V3    O20   S    
C27   H11   S    
C28   H12   S    
O1    V2    S    
C10   C14   A    
C4    C14   S    
O7    V1    S    
C22   H8    S    
C13   C18   A    
O9    C4    A    
H1    C17   S    
O14   V3    S    
N3    H20   S    
C24   H10   S    
O11   C32   A    
C29   H13   S    
C24   C32   S    
C8    H2    S    
C30   H14   S    
N1    H15   S    
O15   V3    S    
O18   C33   A    
C26   N1    S    
C11   C12   A    
C25   F1    S    
C21   C22   D    
O4    C2    A    
N2    H17   S    
C12   C13   A    
O17   V4    S    
C16   H4    S    
C5    C10   A    
C6    N2    S    
O2    C1    A    
C23   C24   D    
C20   H6    S    
C25   C26   D    
O11   V4    S    
C23   H9    S    
O3    C4    A    
C22   C34   S    
C15   H3    S    
O17   V3    S    
O6    V2    S    
O9    V2    S    
C18   H5    S    
O2    V1    S    
C1    C26   S    
C19   C20   D    
O1    C2    A    
C19   C21   S    
O5    V1    S    
O8    C3    A    
O15   C33   A    
C31   O16   A    
C28   C31   S    
O7    V2    S    
O4    V1    S    
O3    V1    S    
V1    O10   S    
C19   N4    S    
C5    F2    S    
C27   C29   S    
O18   V4    S    
O19   C34   A    
C11   C33   S    
O13   C34   A    
V4    O20   S    
C7    C8    A    
C27   C28   D    
C9    C10   A    
C2    C30   S    
C7    N3    S    
C23   C25   S    
