data_mof_unit_41730.cif
_audit_creation_date              2012-12-11T17:01:31-0500
_audit_creation_method            fapswitch 2.2
_symmetry_space_group_name_H-M    P1
_symmetry_Int_Tables_number       1
_space_group_crystal_system       triclinic
_cell_length_a                    15.027008
_cell_length_b                    14.772948
_cell_length_c                    14.966774
_cell_angle_alpha                 109.241222
_cell_angle_beta                  109.51692
_cell_angle_gamma                 109.529868
_cell_volume                      2561.62175557

loop_
_atom_site_label
_atom_site_type_symbol
_atom_type_description
_atom_site_fract_x
_atom_site_fract_y
_atom_site_fract_z
_atom_type_partial_charge
C1    C     C_R   0.009661 0.807882 0.101131 0.033680
C2    C     C_R   0.223989 0.750641 0.314649 -0.089075
C3    C     C_R   0.903632 0.409906 0.209193 -0.093569
C4    C     C_R   0.794430 0.195377 0.702247 0.699455
C5    C     C_R   0.295701 0.591002 0.989319 -0.266381
C6    C     C_R   0.933891 0.502808 0.301338 -0.120319
C7    C     C_R   0.292924 0.499352 0.920567 -0.089283
C8    C     C_R   0.325850 0.775605 0.323376 0.055443
C9    C     C_R   0.054551 0.226113 0.052686 -0.099650
C10   C     C_3   0.472433 0.408167 0.825931 -0.551022
C11   C     C_3   0.365389 0.393225 0.824212 0.759011
C12   C     C_R   0.700780 0.129762 0.697441 -0.327003
C13   C     C_3   0.552026 0.489598 0.032602 0.761393
C14   C     C_3   0.575403 0.614105 0.949532 0.658643
C15   C     C_3   0.571124 0.503729 0.940896 -0.049628
C16   C     C_R   0.024876 0.592629 0.778786 0.705496
C17   C     C_3   0.390752 0.499173 0.921091 0.010337
C18   C     C_3   0.456598 0.505777 0.030577 -0.473974
C19   C     C_3   0.461067 0.600260 0.915872 -0.664698
C20   C     C_R   0.620089 0.974003 0.512770 0.051966
C21   C     C_R   0.621932 0.014147 0.612552 0.138018
C22   C     C_R   0.535465 0.946850 0.619898 -0.100878
C23   C     C_R   0.954203 0.503072 0.675380 -0.168189
C24   C     C_R   0.439905 0.857164 0.524552 -0.210886
C25   C     C_R   0.431502 0.834087 0.422264 0.109024
C26   C     C_R   0.526899 0.884777 0.419389 0.022357
C27   C     C_3   0.546741 0.933265 0.349619 -0.666201
C28   C     C_R   0.684981 0.409409 0.939792 0.766787
C29   C     C_3   0.648131 0.031145 0.451661 0.698140
C30   C     C_R   0.971722 0.607877 0.486479 -0.051001
C31   C     C_R   0.906730 0.509456 0.386658 0.147652
C32   C     C_R   0.830763 0.415978 0.378982 -0.155340
C33   C     C_R   0.836053 0.416813 0.474550 -0.129868
C34   C     C_R   0.673279 0.502535 0.956939 -0.421694
C35   C     C_R   0.916923 0.511213 0.576786 0.069580
C36   C     C_R   0.975458 0.610042 0.580101 0.008263
C37   C     C_3   0.095709 0.693495 0.646696 0.592893
C38   C     C_3   0.091319 0.688437 0.543608 0.391137
C39   C     C_R   0.062251 0.037359 0.162759 0.041854
C40   C     C_R   0.938046 0.408922 0.684720 -0.156781
C41   C     C_R   0.113693 0.991335 0.116128 -0.159032
C42   C     C_R   0.176501 0.048236 0.080835 -0.271199
C43   C     C_R   0.172366 0.139129 0.075253 0.781052
C44   C     C_R   0.103143 0.172158 0.103027 -0.173147
C45   C     C_R   0.993684 0.592745 0.296959 0.756978
C46   C     C_R   0.057610 0.127940 0.156743 0.152907
C47   C     C_3   0.093495 0.188480 0.275468 -0.517577
C48   C     C_3   0.098213 0.090563 0.281726 0.630584
C49   C     C_R   0.777170 0.593276 0.029843 0.703020
C50   C     C_R   0.701940 0.193102 0.790438 0.735399
C51   C     C_R   0.102016 0.808866 0.013358 0.076874
C52   C     C_R   0.075737 0.873836 0.077059 0.018255
C53   C     C_R   0.203789 0.408452 0.896967 0.784702
C54   C     C_R   0.312573 0.744941 0.220153 -0.131044
C55   C     C_R   0.975877 0.250030 0.064989 0.757699
C56   C     C_R   0.068500 0.252333 0.975357 -0.127383
F1    F     F_    0.152618 0.305421 0.810585 -0.623346
F2    F     F_    0.605145 0.303832 0.891964 -0.589187
F3    F     F_    0.148939 0.640347 0.513306 -0.720227
F4    F     F_    0.229674 0.188129 0.035262 -0.652621
F5    F     F_    0.019512 0.034301 0.301510 -0.610106
F6    F     F_    0.806447 0.701144 0.077893 -0.625334
F7    F     F_    0.646885 0.151466 0.835749 -0.625099
F8    F     F_    0.005885 0.694681 0.346313 -0.707798
F9    F     F_    0.931160 0.228577 0.125560 -0.711647
F10   F     F_    0.844594 0.157222 0.651921 -0.681972
F11   F     F_    0.321103 0.300477 0.833849 -0.551424
F12   F     F_    0.529984 0.385484 0.018973 -0.586507
F13   F     F_    0.643286 0.701363 0.056031 -0.615212
F14   F     F_    0.049209 0.697922 0.807967 -0.680360
F15   F     F_    0.640348 0.126333 0.479205 -0.700677
F16   F     F_    0.117522 0.796747 0.717130 -0.598332
H1    H     H_    0.991739 0.838063 0.165392 0.220888
H2    H     H_    0.221372 0.017600 0.048675 0.197281
H3    H     H_    0.174788 0.264721 0.323323 0.152473
H4    H     H_    0.028997 0.200541 0.289045 0.279612
H5    H     H_    0.166989 0.838599 0.996193 0.155091
H6    H     H_    0.372770 0.747134 0.195906 0.132321
H7    H     H_    0.350430 0.676965 0.020072 0.160143
H8    H     H_    0.469380 0.327623 0.801696 0.313895
H9    H     H_    0.477712 0.429240 0.762309 0.114973
H10   H     H_    0.306916 0.378864 0.744928 0.042887
H11   H     H_    0.404350 0.442226 0.042526 0.238273
H12   H     H_    0.121611 0.243737 0.943716 0.258095
H13   H     H_    0.604431 0.635955 0.896278 0.085203
H14   H     H_    0.422148 0.586636 0.831445 0.158261
H15   H     H_    0.625792 0.551752 0.114286 0.065952
H16   H     H_    0.535455 0.968818 0.696108 0.222004
H17   H     H_    0.564759 0.884482 0.290920 0.194369
H18   H     H_    0.776093 0.339361 0.301945 0.158234
H19   H     H_    0.785684 0.340634 0.468929 0.174837
H20   H     H_    0.148323 0.664066 0.685265 0.048667
H21   H     H_    0.110874 0.768044 0.543851 0.172951
H22   H     H_    0.181197 0.108371 0.334928 0.027010
H23   H     H_    0.204726 0.762791 0.379528 0.167061
H24   H     H_    0.886840 0.323694 0.619980 0.207871
H25   H     H_    0.841625 0.326501 0.178005 0.210564
H26   H     H_    0.469830 0.678796 0.970022 0.255545
H27   H     H_    0.488099 0.588035 0.100442 0.170643
H28   H     H_    0.369760 0.814711 0.530604 0.177817
H29   H     H_    0.484403 0.954536 0.313605 0.245788
H30   H     H_    0.724233 0.041075 0.450322 0.113137
N1    N     N_R   0.995640 0.706130 0.053910 -0.079365
N2    N     N_R   0.054010 0.556790 0.847890 -0.123705
N3    N     N_R   0.789940 0.443190 0.997130 -0.166083
N4    N     N_R   0.997630 0.443170 0.791110 -0.074349
N5    N     N_R   0.846320 0.556810 0.053910 -0.163999
N6    N     N_R   0.791080 0.293860 0.847890 -0.172820
N7    N     N_R   0.052880 0.706130 0.997130 -0.072311
N8    N     N_R   0.002370 0.556830 0.208890 -0.127526
N9    N     N_R   0.153680 0.443190 0.946090 -0.123615
N10   N     N_R   0.208920 0.706140 0.152110 -0.057998
N11   N     N_R   0.947120 0.293870 0.002870 -0.126888
N12   N     N_R   0.004360 0.293870 0.946090 -0.097099
N13   N     N_R   0.151690 0.706140 0.208890 -0.054107
N14   N     N_R   0.945990 0.443210 0.152110 -0.094609
N15   N     N_R   0.210060 0.556810 0.002870 -0.086970
N16   N     N_R   0.848310 0.293860 0.791110 -0.156310
Ni1   Ni    Ni4+2 0.999010 0.630300 0.130220 0.279024
Ni2   Ni    Ni4+2 0.000990 0.369700 0.869780 0.306176
Ni3   Ni    Ni4+2 0.130280 0.630280 0.000000 0.205691
Ni4   Ni    Ni4+2 0.869720 0.369720 0.000000 0.291088

loop_
_geom_bond_atom_site_label_1
_geom_bond_atom_site_label_2
_ccdc_geom_bond_type
C50   F7    S    
C6    C45   A    
C27   C29   S    
C41   C42   A    
C35   C36   A    
C3    C6    A    
N2    N4    A    
C39   C41   A    
N3    N5    A    
C18   H11   S    
C26   C27   S    
N14   Ni4   S    
C13   C18   S    
C36   C37   S    
C45   F8    S    
C47   H4    S    
C3    N14   A    
C33   H19   S    
C30   C31   A    
C23   C40   A    
C30   C38   S    
N15   Ni3   S    
C17   C19   S    
C16   N2    A    
C32   H18   S    
N11   Ni4   S    
C31   C32   A    
C44   C46   A    
C7    C17   S    
N3    Ni4   S    
C9    C55   A    
C22   H16   S    
C4    C12   A    
C1    N1    A    
C41   C52   S    
C53   N9    A    
C6    C31   S    
C28   C34   A    
C51   N7    A    
N1    N7    A    
C21   C22   A    
C50   N6    A    
C8    C25   S    
C4    N16   A    
C40   H24   S    
N5    Ni1   S    
C55   F9    S    
C19   H26   S    
C11   F11   S    
C56   H12   S    
C20   C29   S    
C11   H10   S    
N1    Ni1   S    
C42   H2    S    
C51   C52   A    
N6    N16   A    
C16   F14   S    
C24   C25   A    
C49   N5    A    
C8    C54   A    
C5    C7    A    
C53   F1    S    
C45   N8    A    
N2    Ni3   S    
C55   N11   A    
C25   C26   A    
C12   C21   S    
C27   H29   S    
C5    N15   A    
N9    Ni2   S    
C43   C44   A    
C51   H5    S    
C37   C38   S    
C2    N13   A    
C3    H25   S    
C47   C48   S    
C28   N3    A    
C13   H15   S    
C17   C18   S    
C54   N10   A    
C9    C56   A    
C48   H22   S    
C43   F4    S    
C39   C46   A    
C16   C23   A    
C23   C35   S    
C13   C15   S    
C14   F13   S    
C22   C24   A    
C5    H7    S    
C42   C43   A    
C7    C53   A    
N8    N14   A    
C40   N4    A    
N11   N12   A    
C46   C47   S    
C11   C17   S    
C9    C44   S    
C10   H8    S    
C49   F6    S    
C15   C34   S    
C37   H20   S    
N4    Ni2   S    
C10   C15   S    
C24   H28   S    
C14   C19   S    
C2    C8    A    
C14   H13   S    
N6    Ni4   S    
C2    H23   S    
N8    Ni1   S    
C12   C50   A    
C28   F2    S    
C10   H9    S    
N13   Ni1   S    
C30   C36   A    
N9    N15   A    
C1    H1    S    
C32   C33   A    
C47   H3    S    
N10   Ni3   S    
C4    F10   S    
N7    Ni3   S    
C48   F5    S    
C20   C26   A    
C38   H21   S    
C33   C35   A    
C29   H30   S    
C27   H17   S    
C1    C52   A    
N16   Ni2   S    
C19   H14   S    
C10   C11   S    
C38   F3    S    
C20   C21   A    
C34   C49   A    
C18   H27   S    
C37   F16   S    
C56   N12   A    
C14   C15   S    
C29   F15   S    
N10   N13   A    
N12   Ni2   S    
C39   C48   S    
C54   H6    S    
C13   F12   S    
