data_mof_unit_6354.cif
_audit_creation_date              2012-12-10T18:05:49-0500
_audit_creation_method            fapswitch 2.2
_symmetry_space_group_name_H-M    P1
_symmetry_Int_Tables_number       1
_space_group_crystal_system       triclinic
_cell_length_a                    12.680029
_cell_length_b                    13.228999
_cell_length_c                    14.935724
_cell_angle_alpha                 92.377461
_cell_angle_beta                  103.195512
_cell_angle_gamma                 81.591985
_cell_volume                      2412.92684633

loop_
_atom_site_label
_atom_site_type_symbol
_atom_type_description
_atom_site_fract_x
_atom_site_fract_y
_atom_site_fract_z
_atom_type_partial_charge
C1    C     C_R   0.439194 0.691146 0.493082 0.844261
C2    C     C_R   0.409380 0.553813 0.799487 0.476241
C3    C     C_R   0.500324 0.501117 0.769657 -0.220809
C4    C     C_R   0.500418 0.501662 0.672972 0.924381
C5    C     C_R   0.583125 0.438214 0.829671 -0.157040
C6    C     C_R   0.723754 0.058669 0.605781 -0.031710
C7    C     C_R   0.601957 0.199233 0.521025 -0.129238
C8    C     C_R   0.314385 0.829590 0.407623 -0.157357
C9    C     C_R   0.305113 0.922520 0.365266 -0.169406
C10   C     C_R   0.382453 0.987680 0.396758 -0.202090
C11   C     C_R   0.465930 0.965074 0.476986 0.098180
C12   C     C_R   0.553450 0.401625 0.101551 -0.120177
C13   C     C_R   0.473621 0.871525 0.522440 0.041078
C14   C     C_R   0.544695 0.031245 0.511075 0.073598
C15   C     C_R   0.639198 0.997380 0.579653 0.084089
C16   C     C_R   0.561887 0.308725 0.509875 0.865335
C17   C     C_R   0.642945 0.907187 0.625967 -0.274828
C18   C     C_R   0.556903 0.850189 0.603809 0.000731
C19   C     C_R   0.527407 0.132860 0.483805 -0.285380
C20   C     C_R   0.705612 0.160188 0.575400 -0.081010
C21   C     C_R   0.402520 0.800457 0.481471 -0.111073
C22   C     C_R   0.101519 0.322064 0.397530 0.488439
C23   C     C_R   0.332690 0.618987 0.020918 -0.208793
C24   C     C_R   0.799390 0.630137 0.610062 0.043357
C25   C     C_R   0.905337 0.652608 0.639706 -0.255635
C26   C     C_R   0.987973 0.599479 0.601953 -0.140797
C27   C     C_R   0.964274 0.525984 0.531567 0.042509
C28   C     C_R   0.498400 0.498225 0.327240 0.934522
C29   C     C_R   0.856891 0.500230 0.509686 0.186757
C30   C     C_R   0.044246 0.472273 0.486718 -0.191117
C31   C     C_R   0.022658 0.379369 0.439485 -0.042447
C32   C     C_R   0.921288 0.345632 0.432632 0.509293
C33   C     C_R   0.835907 0.413109 0.456522 -0.325511
C34   C     C_R   0.327810 0.615361 0.927315 -0.180107
C35   C     C_R   0.144131 0.506971 0.485134 0.100288
C36   C     C_R   0.203113 0.355884 0.407870 -0.159282
C37   C     C_R   0.550051 0.403866 0.195426 0.490566
C38   C     C_R   0.493508 0.489576 0.230722 -0.146905
C39   C     C_R   0.420047 0.560025 0.173273 -0.343611
C40   C     C_R   0.411615 0.552584 0.079495 0.164297
C41   C     C_R   0.484255 0.478678 0.044102 0.015097
C42   C     C_3   0.525529 0.256821 0.255691 -0.395045
C43   C     C_1   0.827384 0.019131 0.666246 0.154500
C44   C     C_1   0.554716 0.777004 0.671956 0.116098
C45   C     C_R   0.407878 0.551436 0.892406 0.045820
C46   C     C_3   0.820080 0.224236 0.354610 -0.150826
C47   C     C_3   0.152406 0.156731 0.350637 -0.250304
C48   C     C_1   0.158238 0.612637 0.502756 0.251669
C49   C     C_3   0.319663 0.701144 0.724529 -0.311936
C50   C     C_1   0.682622 0.395557 0.801427 0.324274
C51   C     C_3   0.633582 0.187633 0.887490 -0.299088
C52   C     C_1   0.682500 0.236154 0.111529 0.325794
C53   C     C_1   0.792008 0.223167 0.603933 0.263880
C54   C     C_R   0.487003 0.482777 0.951256 -0.054983
C55   C     C_R   0.568455 0.418558 0.917422 -0.059794
C56   C     C_R   0.629820 0.335137 0.971247 0.474761
C57   C     C_R   0.621427 0.325960 0.062443 -0.128230
H1    H     H_    0.708964 0.884857 0.684970 0.156079
H2    H     H_    0.923805 0.709244 0.693268 0.160329
H3    H     H_    0.755709 0.392508 0.440014 0.222257
H4    H     H_    0.274405 0.673334 0.047478 0.147009
H5    H     H_    0.264280 0.666423 0.883518 0.176648
H6    H     H_    0.489264 0.229019 0.185602 0.177257
H7    H     H_    0.459606 0.292903 0.289350 0.180670
H8    H     H_    0.568735 0.189018 0.296767 0.194056
H9    H     H_    0.803891 0.275817 0.294617 0.203563
H10   H     H_    0.749659 0.230808 0.387979 0.166962
H11   H     H_    0.832707 0.144503 0.329059 0.193658
H12   H     H_    0.450645 0.164602 0.440040 0.150760
H13   H     H_    0.112430 0.088702 0.325140 0.200425
H14   H     H_    0.192919 0.143477 0.424524 0.163122
H15   H     H_    0.213250 0.163615 0.309151 0.134406
H16   H     H_    0.350738 0.710553 0.662294 0.195199
H17   H     H_    0.368235 0.738875 0.785036 0.154179
H18   H     H_    0.234759 0.741792 0.712041 0.190534
H19   H     H_    0.569169 0.222579 0.829134 0.157716
H20   H     H_    0.595798 0.149122 0.934569 0.157310
H21   H     H_    0.687730 0.128128 0.858325 0.203416
H22   H     H_    0.259999 0.775847 0.375635 0.160302
H23   H     H_    0.378185 0.052963 0.354612 0.116868
H24   H     H_    0.242318 0.940706 0.303457 0.138007
H25   H     H_    0.266603 0.313647 0.378194 0.141647
H26   H     H_    0.369304 0.620243 0.201932 0.159636
H27   H     H_    0.735638 0.669503 0.640500 0.147131
H28   H     H_    0.070419 0.612796 0.632704 0.179734
N1    N     N_R   0.222190 0.444670 0.452360 -0.142548
N2    N     N_R   0.776970 0.554790 0.547140 -0.120374
N3    N     N_1   0.909929 0.987629 0.714360 -0.199713
N4    N     N_1   0.557176 0.719892 0.729117 -0.236466
N5    N     N_1   0.166643 0.698225 0.516176 -0.230226
N6    N     N_1   0.762577 0.362108 0.779631 -0.163927
N7    N     N_1   0.730887 0.162840 0.148554 -0.223883
N8    N     N_1   0.861987 0.272314 0.626968 -0.157272
O1    O     O_R   0.366740 0.627160 0.477250 -0.613877
O2    O     O_3   0.915139 0.241805 0.418960 -0.585786
O3    O     O_3   0.071435 0.243017 0.337195 -0.571054
O4    O     O_3   0.316555 0.596558 0.736770 -0.609092
O5    O     O_3   0.697378 0.260443 0.934979 -0.599023
O6    O     O_R   0.544830 0.662520 0.507680 -0.608639
O7    O     O_R   0.410940 0.482340 0.616930 -0.564756
O8    O     O_R   0.589030 0.517700 0.647360 -0.620651
O9    O     O_R   0.455170 0.337480 0.492320 -0.623342
O10   O     O_R   0.633260 0.372840 0.522750 -0.634524
O11   O     O_R   0.410970 0.482300 0.352640 -0.629818
O12   O     O_R   0.589060 0.517660 0.383070 -0.613544
O13   O     O_3   0.601663 0.324251 0.253511 -0.661685
Zn1   Zn    Zn3+2 0.381090 0.476390 0.479680 0.963751
Zn2   Zn    Zn3+2 0.618910 0.523610 0.520320 0.962281

loop_
_geom_bond_atom_site_label_1
_geom_bond_atom_site_label_2
_ccdc_geom_bond_type
C55   C56   A    
C1    C21   S    
C27   C29   A    
N1    Zn1   S    
C56   O5    S    
C1    O6    A    
O6    Zn2   S    
C26   C27   A    
C37   C38   A    
C13   C18   A    
C43   N3    T    
C46   H9    S    
C30   C31   A    
C35   N1    A    
C23   C40   A    
C29   C33   A    
C34   H5    S    
C56   C57   A    
C12   C37   A    
C6    C15   A    
N2    Zn2   S    
C2    O4    S    
C36   H25   S    
C1    O1    A    
C8    H22   S    
C47   O3    S    
C49   H18   S    
O10   Zn2   S    
C9    C10   A    
C17   H1    S    
C51   O5    S    
C48   N5    T    
C27   C30   A    
C35   C48   S    
C8    C21   A    
C2    C45   A    
C41   C54   A    
O12   Zn2   S    
O1    Zn1   S    
C22   C31   A    
C46   O2    S    
C53   N8    T    
C24   C25   A    
C52   C57   S    
C39   C40   A    
C10   H23   S    
C8    C9    A    
C36   N1    A    
C25   C26   A    
C51   H20   S    
C47   H13   S    
C46   H11   S    
C12   C41   A    
C18   C44   S    
C42   H8    S    
C28   O11   A    
C16   O10   A    
C31   C32   A    
C28   C38   S    
C28   O12   A    
C23   C34   A    
C4    O8    A    
C17   C18   A    
C13   C21   A    
O9    Zn1   S    
C34   C45   A    
C51   H19   S    
C42   O13   S    
C47   H14   S    
C12   C57   A    
C30   C35   A    
C16   O9    A    
C7    C16   S    
C45   C54   A    
C33   H3    S    
C7    C19   A    
C6    C43   S    
C4    O7    A    
C49   H16   S    
C5    C50   S    
C52   N7    T    
C3    C4    S    
C42   H7    S    
C6    C20   A    
C23   H4    S    
C15   C17   A    
C54   C55   A    
C40   C41   A    
O7    Zn1   S    
C49   H17   S    
C22   O3    S    
C14   C19   A    
C5    C55   A    
C20   C53   S    
C3    C5    A    
C22   C36   A    
C32   C33   A    
C2    C3    A    
C24   H27   S    
C51   H21   S    
C39   H26   S    
C46   H10   S    
C11   C13   A    
C38   C39   A    
O8    Zn2   S    
C26   H28   S    
C11   C14   A    
C24   N2    A    
C47   H15   S    
C29   N2    A    
C19   H12   S    
C10   C11   A    
C49   O4    S    
C50   N6    T    
C37   O13   S    
C32   O2    S    
C7    C20   A    
C14   C15   A    
C25   H2    S    
C42   H6    S    
O11   Zn1   S    
C44   N4    T    
C9    H24   S    
