data_mof_unit_25644.cif
_audit_creation_date              2012-12-10T16:45:20-0500
_audit_creation_method            fapswitch 2.2
_symmetry_space_group_name_H-M    P1
_symmetry_Int_Tables_number       1
_space_group_crystal_system       triclinic
_cell_length_a                    7.593575
_cell_length_b                    8.787231
_cell_length_c                    15.654018
_cell_angle_alpha                 98.104775
_cell_angle_beta                  75.292325
_cell_angle_gamma                 104.212366
_cell_volume                      975.937301598

loop_
_atom_site_label
_atom_site_type_symbol
_atom_type_description
_atom_site_fract_x
_atom_site_fract_y
_atom_site_fract_z
_atom_type_partial_charge
C1    C     C_R   0.543758 0.799924 0.504893 0.779305
C2    C     C_R   0.456148 0.200082 0.495237 0.762934
C3    C     C_R   0.354696 0.273933 0.050310 0.417095
C4    C     C_R   0.748798 0.514803 0.902822 0.414641
C5    C     C_R   0.233758 0.213658 0.992451 0.311740
C6    C     C_R   0.874605 0.568096 0.957825 0.402813
C7    C     C_2   0.557224 0.969171 0.516551 0.176631
C8    C     C_2   0.442502 0.030849 0.483760 0.185267
C9    C     C_R   0.384294 0.480971 0.665627 0.831417
C10   C     C_R   0.615042 0.512462 0.333091 0.823537
C11   C     C_R   0.313559 0.435445 0.757717 -0.116603
C12   C     C_R   0.686181 0.521249 0.235140 -0.192661
C13   C     C_R   0.127879 0.243705 0.861237 -0.149130
C14   C     C_R   0.939378 0.591285 0.106179 -0.168382
C15   C     C_R   0.157862 0.309370 0.781460 0.360929
C16   C     C_R   0.878615 0.572927 0.196735 0.316061
C17   C     C_R   0.426452 0.498698 0.818186 0.380915
C18   C     C_R   0.559673 0.483959 0.178839 0.429506
C19   C     C_R   0.416450 0.412602 0.890374 -0.071519
C20   C     C_R   0.627130 0.474632 0.085220 -0.031036
C21   C     C_R   0.258089 0.289366 0.914926 -0.093350
C22   C     C_R   0.814943 0.547275 0.049626 -0.153351
C23   C     C_R   0.558126 0.446092 0.939171 -0.199617
C24   C     C_R   0.509490 0.401045 0.026589 -0.083474
Cu1   Cu    Cu3+1 0.322120 0.483240 0.490330 1.028763
Cu2   Cu    Cu3+1 0.677880 0.516760 0.509670 1.018788
H1    H     H_    0.002663 0.153258 0.879021 0.182168
H2    H     H_    0.087229 0.634829 0.080950 0.171462
N1    N     N_2   0.945180 0.542040 0.524240 0.034662
N2    N     N_2   0.054820 0.457960 0.475760 0.045281
O1    O     O_R   0.384450 0.714270 0.493720 -0.548918
O2    O     O_R   0.615550 0.285730 0.506280 -0.559353
O3    O     O_R   0.684880 0.742590 0.510050 -0.606513
O4    O     O_R   0.315120 0.257410 0.489950 -0.610757
O5    O     O_R   0.265540 0.477900 0.617090 -0.621001
O6    O     O_R   0.734460 0.522100 0.382910 -0.602780
O7    O     O_R   0.565970 0.506210 0.633420 -0.542707
O8    O     O_R   0.434030 0.493790 0.366580 -0.503804
O9    O     O_3   0.093050 0.082365 0.013994 -0.752011
H3    H     H_    0.082214 0.013435 0.958967 0.329794
O10   O     O_3   0.055048 0.639194 0.918487 -0.705095
H4    H     H_    0.102598 0.726176 0.959842 0.320742
O11   O     O_3   0.371669 0.470817 0.216323 -0.669476
H5    H     H_    0.313574 0.503722 0.174035 0.336679
O12   O     O_3   0.540788 0.646500 0.805836 -0.708824
H6    H     H_    0.560855 0.697526 0.864246 0.342847
O13   O     O_3   0.009842 0.617944 0.246827 -0.682836
H7    H     H_    0.013280 0.520680 0.270726 0.363526
O14   O     O_3   0.037201 0.240426 0.727416 -0.728911
H8    H     H_    0.010874 0.324427 0.700103 0.373069
O15   O     O_3   0.339081 0.198650 0.124794 -0.702363
H9    H     H_    0.220301 0.119048 0.136789 0.371560
O16   O     O_3   0.821727 0.521928 0.812869 -0.663479
H10   H     H_    0.748338 0.433047 0.781383 0.342910
O17   O     O_3   0.676149 0.064016 0.566439 -0.728417
H11   H     H_    0.733136 0.997512 0.592618 0.331586
O18   O     O_3   0.323487 0.935980 0.433934 -0.713708
H12   H     H_    0.267118 0.002495 0.407441 0.329397
N3    N     N_2   0.995103 0.628479 0.599001 -0.288685
H13   H     H_    0.131985 0.655454 0.598367 0.291694
C25   C     C_3   0.928399 0.772234 0.625649 -0.448147
H14   H     H_    0.986473 0.836545 0.682348 0.203251
H15   H     H_    0.775607 0.748729 0.649385 0.264658
H16   H     H_    0.976895 0.849960 0.570302 0.215682
N4    N     N_2   0.003904 0.369689 0.401708 -0.298646
H17   H     H_    0.867289 0.343608 0.401881 0.281663
C26   C     C_3   0.071089 0.226184 0.375320 -0.497303
H18   H     H_    0.011729 0.160764 0.319222 0.180604
H19   H     H_    0.024059 0.149349 0.431041 0.225392
H20   H     H_    0.223820 0.250218 0.350651 0.263889

loop_
_geom_bond_atom_site_label_1
_geom_bond_atom_site_label_2
_ccdc_geom_bond_type
C19   C21   A    
Cu1   O1    S    
C25   H16   S    
C19   C23   A    
O11   H5    S    
Cu2   O7    S    
Cu1   N2    S    
N1    N2    D    
Cu1   O8    S    
O10   H4    S    
Cu2   O3    S    
O13   H7    S    
C13   C15   A    
C7    O17   S    
Cu1   O4    S    
C10   O8    A    
C26   H20   S    
C2    O4    A    
O17   H11   S    
C15   O14   S    
C11   C15   A    
O18   H12   S    
C3    C5    A    
C1    O3    A    
N3    H13   S    
Cu1   Cu2   S    
C25   H15   S    
O16   H10   S    
Cu2   O2    S    
C9    C11   S    
C14   C22   A    
C3    C24   A    
C10   C12   S    
Cu1   O5    S    
C12   C16   A    
C16   O13   S    
Cu2   O6    S    
C17   C19   A    
C17   O12   S    
O14   H8    S    
C18   C20   A    
C5    O9    S    
C25   H14   S    
C4    O16   S    
C14   C16   A    
N3    C25   S    
N2    N4    S    
N4    C26   S    
C18   O11   S    
C23   C24   A    
C13   C21   A    
C26   H18   S    
C6    C22   A    
O12   H6    S    
C1    O1    A    
O15   H9    S    
Cu2   N1    S    
C2    O2    A    
N4    H17   S    
C12   C18   A    
O9    H3    S    
C9    O5    A    
C7    C8    D    
C3    O15   S    
C13   H1    S    
C2    C8    S    
C10   O6    A    
C14   H2    S    
C4    C23   A    
C1    C7    S    
C4    C6    A    
C20   C24   A    
C8    O18   S    
C11   C17   A    
C9    O7    A    
N1    N3    S    
C20   C22   A    
C26   H19   S    
C5    C21   A    
C6    O10   S    
