data_mof_unit_30661.cif
_audit_creation_date              2012-12-10T17:25:32-0500
_audit_creation_method            fapswitch 2.2
_symmetry_space_group_name_H-M    P1
_symmetry_Int_Tables_number       1
_space_group_crystal_system       triclinic
_cell_length_a                    10.106566
_cell_length_b                    10.784439
_cell_length_c                    23.466092
_cell_angle_alpha                 89.967173
_cell_angle_beta                  82.188412
_cell_angle_gamma                 95.394826
_cell_volume                      2522.46555911

loop_
_atom_site_label
_atom_site_type_symbol
_atom_type_description
_atom_site_fract_x
_atom_site_fract_y
_atom_site_fract_z
_atom_type_partial_charge
C1    C     C_R   0.556279 0.732766 0.498027 0.943468
C2    C     C_R   0.443930 0.267271 0.505824 0.940802
C3    C     C_R   0.383678 0.436988 0.765694 -0.095319
C4    C     C_R   0.605152 0.545017 0.232191 -0.097329
C5    C     C_R   0.391827 0.438488 0.706284 -0.249639
C6    C     C_R   0.604357 0.545587 0.291287 -0.254606
C7    C     C_R   0.502495 0.502154 0.672328 -0.059217
C8    C     C_R   0.492865 0.490730 0.327853 -0.061279
C9    C     C_R   0.606411 0.566531 0.698641 0.067412
C10   C     C_R   0.381280 0.431234 0.304414 0.070623
C11   C     C_R   0.598470 0.560233 0.758485 -0.138978
C12   C     C_R   0.382193 0.435751 0.244903 -0.136431
C13   C     C_R   0.487615 0.496863 0.791950 0.284603
C14   C     C_R   0.493437 0.491539 0.208967 0.291409
C15   C     C_2   0.588535 0.864942 0.502859 -0.382977
C16   C     C_2   0.412375 0.135137 0.514892 -0.375380
C17   C     C_2   0.489137 0.933751 0.521685 -0.145143
C18   C     C_2   0.513006 0.066382 0.520075 -0.141213
C19   C     C_2   0.927652 0.511645 0.504079 -0.136046
C20   C     C_2   0.070932 0.485531 0.497728 -0.132973
C21   C     C_R   0.501896 0.502510 0.610357 0.855684
C22   C     C_R   0.497465 0.496451 0.389652 0.870684
C23   C     C_R   0.476634 0.380514 0.120783 0.486815
C24   C     C_R   0.491155 0.607711 0.880982 0.485555
C25   C     C_R   0.506500 0.602778 0.119172 0.506114
C26   C     C_R   0.465829 0.385464 0.882367 0.506273
C27   C     C_R   0.507898 0.605233 0.059693 -0.042567
C28   C     C_R   0.460009 0.383311 0.942083 -0.041786
C29   C     C_R   0.484150 0.492724 0.030832 -0.037178
C30   C     C_R   0.482271 0.495891 0.971055 -0.036798
C31   C     C_R   0.461792 0.377587 0.061789 -0.056494
C32   C     C_R   0.504278 0.610985 0.940112 -0.055984
C33   C     C_R   0.534733 0.718160 0.029071 -0.180872
C34   C     C_R   0.431678 0.270536 0.972753 -0.181199
C35   C     C_R   0.539130 0.723339 0.969139 0.095532
C36   C     C_R   0.426051 0.265453 0.032751 0.095830
H1    H     H_    0.555113 0.802222 0.052533 0.186614
H2    H     H_    0.411569 0.186504 0.949232 0.186087
H3    H     H_    0.123978 0.625140 0.547130 0.169673
H4    H     H_    0.878194 0.379734 0.449918 0.164324
H5    H     H_    0.296425 0.389509 0.791351 0.157659
H6    H     H_    0.692254 0.586808 0.204381 0.153849
H7    H     H_    0.310886 0.390142 0.686684 0.164834
H8    H     H_    0.690811 0.589906 0.308573 0.166565
H9    H     H_    0.676833 0.608582 0.779638 0.145426
H10   H     H_    0.297599 0.392957 0.225815 0.138442
H11   H     H_    0.616181 0.107081 0.518474 0.189137
H12   H     H_    0.386515 0.893090 0.534055 0.188506
H13   H     H_    0.309497 0.093994 0.516389 0.153111
H14   H     H_    0.690835 0.906088 0.490414 0.152005
H15   H     H_    0.103916 0.409836 0.470789 0.154912
H16   H     H_    0.893142 0.584466 0.532616 0.169582
N1    N     N_R   0.492916 0.491725 0.148108 -0.341318
N2    N     N_R   0.480123 0.496451 0.853273 -0.340142
N3    N     N_2   0.842710 0.448880 0.476480 -0.195406
N4    N     N_2   0.157290 0.551120 0.523520 -0.195296
O1    O     O_R   0.431060 0.692470 0.504730 -0.608200
O2    O     O_R   0.568940 0.307530 0.495270 -0.611498
O3    O     O_R   0.651120 0.659650 0.489640 -0.616038
O4    O     O_R   0.348880 0.340350 0.510360 -0.611398
O5    O     O_R   0.389950 0.516450 0.591390 -0.610508
O6    O     O_R   0.610050 0.483550 0.408610 -0.609491
O7    O     O_R   0.610020 0.483630 0.576300 -0.614686
O8    O     O_R   0.389980 0.516370 0.423700 -0.610967
O9    O     O_2   0.479410 0.274266 0.150718 -0.589430
O10   O     O_2   0.485393 0.713612 0.851228 -0.588104
O11   O     O_2   0.518598 0.710582 0.148108 -0.577363
O12   O     O_2   0.458136 0.277422 0.853397 -0.580467
Zn1   Zn    Zn3+2 0.353060 0.521920 0.510080 0.939931
Zn2   Zn    Zn3+2 0.646940 0.478080 0.489920 0.939438
C37   C     C_3   0.587449 0.845657 0.936340 -0.339114
C38   C     C_3   0.662964 0.947229 0.969053 -0.443660
C39   C     C_3   0.718425 0.058279 0.929732 -0.813488
H17   H     H_    0.792858 0.029287 0.894175 0.262140
H18   H     H_    0.635936 0.098295 0.911313 0.280927
H19   H     H_    0.768694 0.131404 0.954822 0.253223
H20   H     H_    0.594681 0.982020 0.005257 0.230472
H21   H     H_    0.747785 0.908424 0.986335 0.241101
H22   H     H_    0.659037 0.824018 0.898164 0.237973
H23   H     H_    0.499812 0.884785 0.921644 0.239444
C40   C     C_3   0.377009 0.143222 0.065485 -0.338658
C41   C     C_3   0.301159 0.042082 0.032664 -0.443108
C42   C     C_3   0.245237 0.930990 0.071881 -0.814478
H24   H     H_    0.327599 0.890281 0.090104 0.278816
H25   H     H_    0.171241 0.960142 0.107570 0.262785
H26   H     H_    0.194334 0.858345 0.046758 0.253405
H27   H     H_    0.216591 0.081343 0.015385 0.240897
H28   H     H_    0.369294 0.007132 0.996453 0.230398
H29   H     H_    0.464318 0.103598 0.080228 0.239131
H30   H     H_    0.305433 0.165109 0.103620 0.239000
C43   C     C_3   0.718858 0.652847 0.666458 -0.414170
C44   C     C_3   0.855707 0.602136 0.666791 -0.327829
C45   C     C_3   0.969970 0.703305 0.649147 -0.902834
H31   H     H_    0.962722 0.741539 0.605852 0.248450
H32   H     H_    0.966026 0.780202 0.680630 0.271566
H33   H     H_    0.067644 0.663631 0.648407 0.256547
H34   H     H_    0.866310 0.567567 0.710403 0.224055
H35   H     H_    0.864542 0.522834 0.636742 0.231825
H36   H     H_    0.703122 0.671074 0.621486 0.201900
H37   H     H_    0.718811 0.744851 0.687903 0.214591
C46   C     C_3   0.265114 0.355244 0.340105 -0.430905
C47   C     C_3   0.309563 0.233338 0.361601 -0.299756
C48   C     C_3   0.193425 0.155378 0.397147 -0.891430
H38   H     H_    0.156067 0.206185 0.436278 0.255525
H39   H     H_    0.110135 0.133244 0.371326 0.263187
H40   H     H_    0.228357 0.066722 0.410671 0.254494
H41   H     H_    0.348592 0.178062 0.324080 0.238559
H42   H     H_    0.391300 0.253082 0.388366 0.211484
H43   H     H_    0.220232 0.410450 0.376141 0.221315
H44   H     H_    0.182894 0.331006 0.313820 0.195039

loop_
_geom_bond_atom_site_label_1
_geom_bond_atom_site_label_2
_ccdc_geom_bond_type
C45   H31   S    
C27   C29   A    
C39   H17   S    
C19   C20   S    
C25   O11   S    
C17   H12   S    
C20   N4    D    
C18   H11   S    
C9    C43   S    
C37   H22   S    
C40   C41   S    
C44   H35   S    
C27   C33   A    
C46   C47   S    
C25   N1    A    
C20   H15   S    
C1    O3    A    
C2    O4    A    
C46   H43   S    
C41   H27   S    
O6    Zn2   S    
C7    C9    A    
C15   H14   S    
C38   H21   S    
C38   H20   S    
C19   H16   S    
C42   H24   S    
C8    C22   S    
C47   H42   S    
C1    C15   S    
C43   H37   S    
C2    C16   S    
C21   O5    A    
C3    C13   A    
C24   O10   S    
C40   H29   S    
C5    H7    S    
C35   C37   S    
C45   H32   S    
C6    H8    S    
C39   H18   S    
C26   N2    A    
C37   H23   S    
C44   H34   S    
C23   N1    A    
C32   C35   A    
C16   H13   S    
C12   H10   S    
C43   C44   S    
C5    C7    A    
O2    Zn2   S    
C6    C8    A    
C46   H44   S    
C7    C21   S    
C22   O8    A    
C33   H1    S    
C23   C31   A    
C24   C32   A    
C29   C30   A    
C1    O1    A    
C22   O6    A    
H3    N4    S    
O7    Zn2   S    
C36   C40   S    
H4    N3    S    
C42   H26   S    
C17   C18   S    
C47   H41   S    
C48   H39   S    
C16   C18   D    
O8    Zn1   S    
C9    C11   A    
C10   C12   A    
C40   H30   S    
C4    C6    A    
C42   H25   S    
C12   C14   A    
N4    Zn1   S    
C45   H33   S    
O1    Zn1   S    
C39   H19   S    
C11   H9    S    
C13   N2    S    
O5    Zn1   S    
C15   C17   D    
C3    H5    S    
C34   H2    S    
C10   C46   S    
C38   C39   S    
C3    C5    A    
C2    O2    A    
C19   N3    D    
C25   C27   A    
C26   C28   A    
C26   O12   S    
C23   O9    S    
C28   C30   A    
C37   C38   S    
C29   C31   A    
C30   C32   A    
C11   C13   A    
C4    H6    S    
O4    Zn1   S    
C41   H28   S    
C44   C45   S    
C33   C35   A    
C48   H40   S    
C34   C36   A    
C4    C14   A    
C47   C48   S    
C21   O7    A    
N3    Zn2   S    
O3    Zn2   S    
C28   C34   A    
C14   N1    S    
C8    C10   A    
C41   C42   S    
C48   H38   S    
C31   C36   A    
C43   H36   S    
C24   N2    A    
