data_mof_unit_57396.cif
_audit_creation_date              2012-10-26T19:40:07-0400
_audit_creation_method            fapswitch 2.2
_symmetry_space_group_name_H-M    P1
_symmetry_Int_Tables_number       1
_space_group_crystal_system       triclinic
_cell_length_a                    15.0513
_cell_length_b                    8.68086
_cell_length_c                    7.439119
_cell_angle_alpha                 102.887074
_cell_angle_beta                  94.425375
_cell_angle_gamma                 92.561491
_cell_volume                      942.756621631

loop_
_atom_site_label
_atom_site_type_symbol
_atom_type_description
_atom_site_fract_x
_atom_site_fract_y
_atom_site_fract_z
_atom_type_partial_charge
C1    C     C_R   0.497282 0.199687 0.453259 0.543669
C2    C     C_R   0.176770 0.396173 0.344046 0.223830
C3    C     C_R   0.768266 0.520579 0.497916 -0.010331
C4    C     C_R   0.231734 0.479423 0.502084 -0.010331
C5    C     C_R   0.805815 0.442209 0.340445 -0.168187
C6    C     C_R   0.194185 0.557794 0.659554 -0.168188
C7    C     C_R   0.897643 0.436276 0.339981 -0.033542
C8    C     C_R   0.102357 0.563729 0.660018 -0.033541
C9    C     C_R   0.953543 0.506493 0.500930 -0.004503
C10   C     C_R   0.046458 0.493512 0.499069 -0.004502
C11   C     C_R   0.916626 0.589902 0.662778 0.074041
C12   C     C_R   0.502718 0.800313 0.546741 0.543668
C13   C     C_R   0.083374 0.410104 0.337221 0.074041
C14   C     C_R   0.933480 0.357359 0.180201 -0.084473
C15   C     C_R   0.066521 0.642648 0.819797 -0.084473
C16   C     C_R   0.024887 0.343289 0.175842 0.120821
C17   C     C_R   0.975113 0.656719 0.824156 0.120822
C18   C     C_2   0.495933 0.031833 0.426873 -0.152483
C19   C     C_2   0.504067 0.968166 0.573127 -0.152484
C20   C     C_R   0.328724 0.492170 0.500826 0.540853
C21   C     C_R   0.671276 0.507830 0.499174 0.540854
C22   C     C_R   0.823230 0.603829 0.655954 0.223829
Cu1   Cu    Cu3+1 0.510010 0.517380 0.684380 0.972904
Cu2   Cu    Cu3+1 0.489990 0.482620 0.315620 0.972903
H1    H     H_    0.763066 0.381577 0.218754 0.143220
H2    H     H_    0.263462 0.247105 0.249919 0.333137
H3    H     H_    0.100605 0.337988 0.959444 0.281505
H4    H     H_    0.083463 0.159000 0.019342 0.280944
H5    H     H_    0.899398 0.662029 0.040560 0.281506
H6    H     H_    0.916536 0.841012 0.980646 0.280942
H7    H     H_    0.236934 0.618425 0.781246 0.143220
H8    H     H_    0.889869 0.305318 0.056415 0.142195
H9    H     H_    0.110131 0.694690 0.943583 0.142194
H10   H     H_    0.488244 0.960300 0.285886 0.136299
H11   H     H_    0.511756 0.039699 0.714114 0.136299
H12   H     H_    0.429943 0.377780 0.948191 0.246324
H13   H     H_    0.570057 0.622219 0.051808 0.246324
H14   H     H_    0.736538 0.752896 0.750082 0.333136
N1    N     N_2   0.474890 0.456420 0.038520 -0.254094
N2    N     N_2   0.525110 0.543580 0.961480 -0.254094
N3    N     N_3   0.054822 0.263089 0.003229 -0.613328
N4    N     N_3   0.945179 0.736926 0.996767 -0.613328
O1    O     O_R   0.506510 0.286130 0.619770 -0.506057
O2    O     O_3   0.213266 0.299207 0.198844 -0.723380
O3    O     O_R   0.493490 0.713870 0.380230 -0.506057
O4    O     O_R   0.489600 0.256770 0.308360 -0.502841
O5    O     O_R   0.510400 0.743230 0.691640 -0.502841
O6    O     O_R   0.378710 0.514640 0.655720 -0.512991
O7    O     O_R   0.621290 0.485360 0.344280 -0.512991
O8    O     O_R   0.361800 0.485290 0.344300 -0.473531
O9    O     O_R   0.638200 0.514710 0.655700 -0.473529
O10   O     O_3   0.786733 0.700792 0.801157 -0.723379

loop_
_geom_bond_atom_site_label_1
_geom_bond_atom_site_label_2
_ccdc_geom_bond_type
C2    C4    A    
Cu1   Cu2   S    
C15   C17   A    
H14   O10   S    
H5    N4    S    
C8    C15   A    
C9    C11   A    
C9    C10   A    
H3    N3    S    
C11   C22   A    
Cu1   O9    S    
Cu2   O4    S    
C21   O7    A    
C6    H7    S    
H2    O2    S    
C19   H11   S    
C18   H10   S    
C1    C18   S    
C20   O6    A    
C12   O5    A    
C5    H1    S    
Cu2   O3    S    
C6    C8    A    
C12   C19   S    
C22   O10   S    
C15   H9    S    
H13   N2    S    
H12   N1    S    
Cu2   O8    S    
C8    C10   A    
C14   C16   A    
C1    O4    A    
C3    C21   S    
Cu1   O5    S    
N1    N2    D    
Cu1   N2    S    
C4    C20   S    
C7    C9    A    
H4    N3    S    
C21   O9    A    
Cu2   N1    S    
Cu1   O1    S    
C4    C6    A    
C18   C19   D    
C13   C16   A    
C2    O2    S    
Cu2   O7    S    
C5    C7    A    
C2    C13   A    
C17   N4    S    
C11   C17   A    
C3    C22   A    
C20   O8    A    
Cu1   O6    S    
C16   N3    S    
C1    O1    A    
C7    C14   A    
H6    N4    S    
C14   H8    S    
C12   O3    A    
C3    C5    A    
C10   C13   A    
