data_mof_unit_61135.cif
_audit_creation_date              2012-12-10T19:39:10-0500
_audit_creation_method            fapswitch 2.2
_symmetry_space_group_name_H-M    P1
_symmetry_Int_Tables_number       1
_space_group_crystal_system       triclinic
_cell_length_a                    15.863235
_cell_length_b                    15.895712
_cell_length_c                    17.081165
_cell_angle_alpha                 90.686765
_cell_angle_beta                  95.946544
_cell_angle_gamma                 92.135445
_cell_volume                      4280.4464296

loop_
_atom_site_label
_atom_site_type_symbol
_atom_type_description
_atom_site_fract_x
_atom_site_fract_y
_atom_site_fract_z
_atom_type_partial_charge
C1    C     C_R   0.510123 0.501630 0.651516 0.942597
C2    C     C_R   0.489894 0.498227 0.348377 0.934861
C3    C     C_R   0.446831 0.536421 0.775024 0.592974
C4    C     C_R   0.556808 0.471905 0.224644 0.495088
C5    C     C_R   0.450703 0.540749 0.856918 -0.042330
C6    C     C_R   0.552483 0.466087 0.142552 -0.027767
C7    C     C_R   0.523709 0.513292 0.902888 0.034861
C8    C     C_R   0.476050 0.483387 0.096666 0.105419
C9    C     C_R   0.592656 0.486055 0.865938 0.567542
C10   C     C_R   0.404157 0.501710 0.133565 0.512593
C11   C     C_R   0.588507 0.481803 0.784144 0.479131
C12   C     C_R   0.408343 0.507134 0.215341 0.494062
C13   C     C_R   0.248917 0.543815 0.536612 0.653174
C14   C     C_R   0.750995 0.456507 0.463004 0.659153
C15   C     C_R   0.159737 0.542899 0.535131 -0.145405
C16   C     C_R   0.840169 0.457424 0.464404 -0.144661
C17   C     C_R   0.109533 0.484651 0.484546 0.112469
C18   C     C_R   0.890443 0.515304 0.515328 0.113181
C19   C     C_R   0.151966 0.430618 0.437519 0.430966
C20   C     C_R   0.848083 0.569052 0.562686 0.430968
C21   C     C_R   0.240844 0.434047 0.441156 0.625958
C22   C     C_R   0.759212 0.565660 0.559097 0.620662
C23   C     C_R   0.499618 0.660133 0.500108 0.813317
C24   C     C_R   0.500382 0.339867 0.499900 0.813728
C25   C     C_3   0.513878 0.029584 0.573823 0.713801
C26   C     C_3   0.486122 0.970418 0.426223 0.711649
C27   C     C_3   0.436926 0.970976 0.542486 -0.362254
C28   C     C_3   0.563075 0.029025 0.457559 -0.363890
C29   C     C_1   0.498787 0.749593 0.500231 -0.072476
C30   C     C_1   0.501214 0.250407 0.499793 -0.072648
C31   C     C_3   0.573502 0.974701 0.532125 0.032974
C32   C     C_3   0.426498 0.025300 0.467920 0.032596
C33   C     C_3   0.498262 0.916412 0.500480 -0.070529
C34   C     C_3   0.501738 0.083589 0.499565 -0.070683
C35   C     C_1   0.498356 0.824957 0.500347 0.104167
C36   C     C_1   0.501645 0.175043 0.499690 0.103992
C37   C     C_R   0.515097 0.506039 0.737928 -0.455626
C38   C     C_R   0.485028 0.493132 0.261785 -0.417685
Cu1   Cu    Cu3+1 0.584780 0.504040 0.503820 1.131585
Cu2   Cu    Cu3+1 0.415220 0.495960 0.496180 1.129133
H1    H     H_    0.385069 0.947647 0.576451 0.208732
H2    H     H_    0.614931 0.052354 0.423594 0.207225
N1    N     N_2   0.531229 0.515321 0.986008 -0.100548
N2    N     N_2   0.468818 0.481516 0.013435 -0.138272
N3    N     N_R   0.287870 0.489880 0.490440 -0.333556
N4    N     N_R   0.712130 0.510120 0.509560 -0.331441
N5    N     N_2   0.018220 0.477542 0.477059 -0.059466
N6    N     N_2   0.981755 0.522380 0.522793 -0.059309
O1    O     O_R   0.579470 0.503780 0.617500 -0.500456
O2    O     O_R   0.420530 0.496220 0.382500 -0.503089
O3    O     O_R   0.436280 0.496950 0.611050 -0.515694
O4    O     O_R   0.563720 0.503050 0.388950 -0.506354
O5    O     O_R   0.571580 0.624340 0.503230 -0.554215
O6    O     O_R   0.428420 0.375660 0.496770 -0.554004
O7    O     O_R   0.428390 0.617510 0.496780 -0.532500
O8    O     O_R   0.571610 0.382490 0.503220 -0.532745
F1    F     F_    0.106821 0.374322 0.387815 -0.550192
F2    F     F_    0.893296 0.625042 0.612658 -0.550471
F3    F     F_    0.279926 0.381406 0.394769 -0.553353
F4    F     F_    0.720188 0.618066 0.605748 -0.558127
F5    F     F_    0.530429 0.060742 0.650000 -0.600804
F6    F     F_    0.469572 0.939260 0.350045 -0.604128
N7    N     N_3   0.346149 0.054233 0.430950 -0.477588
H3    H     H_    0.306656 0.000914 0.417062 0.260093
H4    H     H_    0.318469 0.088524 0.473478 0.243358
N8    N     N_3   0.653852 0.945768 0.569095 -0.477170
H5    H     H_    0.693343 0.999088 0.582984 0.260547
H6    H     H_    0.681532 0.911478 0.526567 0.242851
F7    F     F_    0.630985 0.454786 0.267499 -0.585527
F8    F     F_    0.376723 0.564027 0.732018 -0.549254
N9    N     N_3   0.624838 0.440337 0.105864 -0.425100
H7    H     H_    0.675421 0.482945 0.122853 0.282508
H8    H     H_    0.641305 0.381105 0.127110 0.277508
N10   N     N_3   0.381325 0.576319 0.891641 -0.428422
H9    H     H_    0.405224 0.622562 0.932950 0.265970
H10   H     H_    0.349311 0.528932 0.919979 0.293513
F9    F     F_    0.663586 0.461618 0.909803 -0.547492
F10   F     F_    0.330060 0.516622 0.089641 -0.568435
F11   F     F_    0.655700 0.452362 0.750443 -0.551887
F12   F     F_    0.337572 0.527551 0.248639 -0.546423
F13   F     F_    0.703239 0.400787 0.414897 -0.577463
F14   F     F_    0.296576 0.599916 0.584354 -0.570887
N11   N     N_3   0.877970 0.399411 0.414874 -0.437802
H11   H     H_    0.854363 0.409867 0.356498 0.289521
H12   H     H_    0.858985 0.338321 0.429256 0.272060
N12   N     N_3   0.121855 0.601337 0.584184 -0.435420
H13   H     H_    0.140829 0.662291 0.569374 0.273033
H14   H     H_    0.145404 0.591367 0.642664 0.294028

loop_
_geom_bond_atom_site_label_1
_geom_bond_atom_site_label_2
_ccdc_geom_bond_type
C25   C31   S    
C31   N8    S    
N8    H6    S    
N7    H4    S    
C26   C32   S    
C10   F10   S    
C14   N4    A    
C19   F1    S    
N10   H10   S    
C23   C29   S    
C19   C21   A    
C21   F3    S    
C22   F4    S    
N12   H14   S    
C24   O6    A    
C9    F9    S    
C15   C17   A    
C5    N10   S    
C11   C37   A    
C2    C38   S    
C2    O2    A    
C33   C35   S    
N11   H11   S    
C31   C33   S    
C11   F11   S    
C7    N1    S    
Cu1   N4    S    
C1    C37   S    
C25   C34   S    
Cu1   O4    S    
C28   C34   S    
C6    N9    S    
C10   C12   A    
C4    F7    S    
C23   O5    A    
C21   N3    A    
Cu2   N3    S    
N10   H9    S    
N5    N6    D    
C8    N2    S    
C3    F8    S    
C4    C6    A    
Cu1   Cu2   S    
C5    C7    A    
N12   H13   S    
C6    C8    A    
C13   F14   S    
C16   N11   S    
C27   C33   S    
C32   C34   S    
N1    N2    D    
C1    O3    A    
C27   H1    S    
C26   C33   S    
Cu1   O8    S    
Cu2   O7    S    
C25   F5    S    
C9    C11   A    
C2    O4    A    
C15   N12   S    
C8    C10   A    
N11   H12   S    
C4    C38   A    
Cu2   O6    S    
C13   C15   A    
C14   C16   A    
C24   O8    A    
C20   F2    S    
N9    H8    S    
C7    C9    A    
C22   N4    A    
C27   C32   S    
C28   C31   S    
C17   N5    S    
C32   N7    S    
C20   C22   A    
C3    C5    A    
C18   N6    S    
Cu1   O1    S    
C23   O7    A    
C25   C27   S    
Cu2   O3    S    
C29   C35   T    
C26   C28   S    
C30   C36   T    
C26   F6    S    
N9    H7    S    
C13   N3    A    
Cu1   O5    S    
Cu2   O2    S    
C12   F12   S    
C28   H2    S    
C17   C19   A    
C34   C36   S    
N8    H5    S    
C18   C20   A    
C12   C38   A    
C24   C30   S    
N7    H3    S    
C3    C37   A    
C16   C18   A    
C14   F13   S    
C1    O1    A    
