data_mof_unit_56956.cif
_audit_creation_date              2012-12-11T14:29:47-0500
_audit_creation_method            fapswitch 2.2
_symmetry_space_group_name_H-M    P1
_symmetry_Int_Tables_number       1
_space_group_crystal_system       triclinic
_cell_length_a                    6.936035
_cell_length_b                    14.744935
_cell_length_c                    16.26458
_cell_angle_alpha                 90.628281
_cell_angle_beta                  90.334221
_cell_angle_gamma                 89.748815
_cell_volume                      1663.25729962

loop_
_atom_site_label
_atom_site_type_symbol
_atom_type_description
_atom_site_fract_x
_atom_site_fract_y
_atom_site_fract_z
_atom_type_partial_charge
O1    O     O_R   0.494400 0.416610 0.413880 -0.549774
O2    O     O_R   0.823920 0.406790 0.585520 -0.503929
O3    O     O_R   0.994250 0.583390 0.586120 -0.535618
C1    C     C_R   0.656205 0.385779 0.614378 0.786659
O4    O     O_R   0.824110 0.405730 0.414490 -0.546195
O5    O     O_R   0.994440 0.582310 0.413870 -0.525519
C2    C     C_R   0.654779 0.383658 0.386334 0.738793
O6    O     O_R   0.494210 0.417690 0.586130 -0.542897
O7    O     O_3   0.660810 0.557940 0.500000 -0.355821
V1    V     V_3+5 0.935650 0.489250 0.500000 1.545654
O8    O     O_R   0.324160 0.593210 0.414480 -0.523916
C3    C     C_R   0.154272 0.613877 0.385628 0.764017
O9    O     O_R   0.323970 0.594270 0.585510 -0.542709
C4    C     C_R   0.155223 0.616222 0.613838 0.701141
V2    V     V_3+5 0.435660 0.510750 0.500000 1.530517
O10   O     O_3   0.160630 0.442060 0.500000 -0.368401
C5    C     C_R   0.301949 0.576319 0.776683 -0.116344
C6    C     C_R   0.372407 0.554520 0.854396 -0.097840
C7    C     C_R   0.359843 0.617091 0.918643 -0.126773
C8    C     C_R   0.276738 0.701971 0.905693 -0.136613
C9    C     C_R   0.205753 0.726592 0.827218 0.068023
C10   C     C_R   0.218634 0.662373 0.761263 0.059107
C11   C     C_R   0.119430 0.812765 0.814325 -0.161908
C12   C     C_R   0.046305 0.834603 0.735238 0.072266
C13   C     C_R   0.059522 0.770464 0.669237 0.013662
C14   C     C_R   0.145294 0.684176 0.682223 -0.161550
C15   C     C_R   0.963337 0.920690 0.719792 -0.198236
C16   C     C_R   0.894374 0.942823 0.641926 -0.152874
C17   C     C_R   0.907789 0.880469 0.577448 0.340643
C18   C     C_R   0.989866 0.795307 0.590593 -0.156799
H1    H     H_    0.312568 0.524589 0.729260 0.138506
H2    H     H_    0.435919 0.488420 0.864918 0.130147
H3    H     H_    0.413549 0.599558 0.979070 0.119018
H4    H     H_    0.267466 0.747488 0.958133 0.103579
H5    H     H_    0.952208 0.972304 0.767301 0.129627
H6    H     H_    0.831673 0.009148 0.631645 0.156012
H7    H     H_    0.000044 0.749652 0.538280 0.144903
C19   C     C_2   0.986185 0.714611 0.282634 0.344628
C20   C     C_2   0.146596 0.673864 0.313207 -0.306248
H8    H     H_    0.281548 0.681502 0.280671 0.173826
C21   C     C_2   0.990849 0.767963 0.205762 -0.218638
C22   C     C_2   0.124710 0.830662 0.187721 0.104435
H9    H     H_    0.870409 0.758183 0.163612 0.140414
C23   C     C_2   0.779287 0.213031 0.787730 -0.176680
C24   C     C_2   0.612851 0.182164 0.819041 -0.370510
H10   H     H_    0.914285 0.185457 0.810950 0.177784
H11   H     H_    0.475376 0.209971 0.799582 0.163973
C25   C     C_2   0.796045 0.285962 0.725356 0.410385
C26   C     C_2   0.644785 0.316239 0.679562 -0.357324
H12   H     H_    0.502728 0.288050 0.688716 0.147585
C27   C     C_2   0.779440 0.208624 0.214370 -0.103106
C28   C     C_2   0.614210 0.181701 0.177527 -0.284854
H13   H     H_    0.915388 0.179768 0.193744 0.141871
H14   H     H_    0.476565 0.209819 0.196046 0.126780
C29   C     C_2   0.791743 0.277159 0.282293 -0.115963
C30   C     C_2   0.638176 0.315348 0.319588 -0.288404
H15   H     H_    0.935756 0.296146 0.302402 0.134865
H16   H     H_    0.492993 0.297016 0.301437 0.130657
O11   O     O_R   0.770210 0.079270 0.910680 -0.546512
O12   O     O_R   0.440150 0.091160 0.082270 -0.541764
O13   O     O_R   0.269970 0.914530 0.082860 -0.523215
C31   C     C_R   0.608896 0.113183 0.110567 0.772387
O14   O     O_R   0.440480 0.090100 0.911240 -0.544658
O15   O     O_R   0.270310 0.913460 0.910610 -0.539296
C32   C     C_R   0.608526 0.112264 0.883579 0.758897
O16   O     O_R   0.769870 0.080340 0.082930 -0.539423
O17   O     O_3   0.603660 0.938980 0.996790 -0.367881
V3    V     V_3+5 0.328750 0.007610 0.996740 1.466185
O18   O     O_R   0.940600 0.902510 0.911180 -0.543292
C33   C     C_R   0.109372 0.880660 0.882795 0.681003
O19   O     O_R   0.940270 0.903570 0.082200 -0.543202
C34   C     C_R   0.109878 0.884833 0.112164 0.707806
V4    V     V_3+5 0.828770 0.986010 0.996670 1.459976
O20   O     O_3   0.103730 0.054750 0.996710 -0.378364
Br1   Br    Br    0.816319 0.912243 0.470477 -0.414370
Br2   Br    Br    0.325552 0.866324 0.263969 -0.428244
Cl1   Cl    Cl    0.030970 0.330554 0.715373 -0.693596
Br3   Br    Br    0.733622 0.701473 0.329156 -0.456471

loop_
_geom_bond_atom_site_label_1
_geom_bond_atom_site_label_2
_ccdc_geom_bond_type
C29   C30   D    
O14   C32   A    
V4    O20   S    
C7    C8    A    
C12   C15   A    
C1    O6    A    
O15   V3    S    
C16   C17   A    
O5    C3    A    
C19   C20   D    
V3    O20   S    
V2    O10   S    
O12   C31   A    
C6    C7    A    
C21   C22   D    
O8    V2    S    
C23   H10   S    
C11   C12   A    
O18   V4    S    
O17   V4    S    
O15   C33   A    
O7    V1    S    
O11   V4    S    
C8    H4    S    
C9    C10   A    
C21   H9    S    
C11   C33   S    
C2    C30   S    
C28   H14   S    
C24   H11   S    
C31   O16   A    
C27   C28   D    
C12   C13   A    
C19   C21   S    
C7    H3    S    
C20   H8    S    
O19   V4    S    
C19   Br3   S    
C15   H5    S    
C13   C14   A    
O16   V4    S    
O17   V3    S    
C18   H7    S    
C27   H13   S    
C25   Cl1   S    
O2    C1    A    
C17   C18   A    
O9    V2    S    
C22   C34   S    
C5    C6    A    
C4    C14   S    
C16   H6    S    
O3    C4    A    
O1    V2    S    
O13   C34   A    
C25   C26   D    
O6    V2    S    
C9    C11   A    
C24   C32   S    
C5    H1    S    
C6    H2    S    
O2    V1    S    
C23   C24   D    
O4    C2    A    
C13   C18   A    
O14   V3    S    
O1    C2    A    
O5    V1    S    
O8    C3    A    
C17   Br1   S    
C22   Br2   S    
C5    C10   A    
C1    C26   S    
C3    C20   S    
C29   H15   S    
O7    V2    S    
O4    V1    S    
O3    V1    S    
C28   C31   S    
O11   C32   A    
O13   V3    S    
C30   H16   S    
C27   C29   S    
O18   C33   A    
O19   C34   A    
C8    C9    A    
O12   V3    S    
C26   H12   S    
C10   C14   A    
C15   C16   A    
V1    O10   S    
O9    C4    A    
C23   C25   S    
