data_mof_unit_30885.cif
_audit_creation_date              2012-10-26T18:52:40-0400
_audit_creation_method            fapswitch 2.2
_symmetry_space_group_name_H-M    P1
_symmetry_Int_Tables_number       1
_space_group_crystal_system       triclinic
_cell_length_a                    10.724314
_cell_length_b                    14.700351
_cell_length_c                    14.745685
_cell_angle_alpha                 65.085933
_cell_angle_beta                  103.57211
_cell_angle_gamma                 102.993032
_cell_volume                      2028.43589366

loop_
_atom_site_label
_atom_site_type_symbol
_atom_type_description
_atom_site_fract_x
_atom_site_fract_y
_atom_site_fract_z
_atom_type_partial_charge
C1    C     C_R   0.477645 0.119677 0.312329 0.567646
C2    C     C_R   0.457626 0.359869 0.077227 0.030876
C3    C     C_R   0.433137 0.320314 0.001084 0.050368
C4    C     C_R   0.259901 0.000411 0.499525 0.545147
C5    C     C_R   0.468601 0.466262 0.049577 0.031957
C6    C     C_R   0.468992 0.532403 0.946137 0.031141
C7    C     C_R   0.442395 0.489678 0.872371 -0.140760
C8    C     C_R   0.423624 0.385642 0.899624 -0.135471
C9    C     C_R   0.476805 0.508539 0.121556 -0.137600
C10   C     C_R   0.493140 0.612536 0.094136 -0.134840
C11   C     C_R   0.503401 0.678329 0.994579 0.049920
C12   C     C_3   0.877341 0.999982 0.498499 0.057235
C13   C     C_R   0.492997 0.639098 0.919762 0.031690
C14   C     C_R   0.523125 0.783376 0.968837 -0.137791
C15   C     C_R   0.531740 0.850312 0.869209 -0.143073
C16   C     C_R   0.520798 0.880338 0.687651 0.538223
C17   C     C_R   0.508416 0.708297 0.821081 -0.135605
C18   C     C_R   0.717699 0.285780 0.667232 -0.159845
C19   C     C_R   0.683374 0.203727 0.638208 0.037754
C20   C     C_R   0.518546 0.285118 0.509080 0.035715
C21   C     C_R   0.549103 0.371655 0.534502 0.002360
C22   C     C_R   0.650712 0.369650 0.616117 0.039896
C23   C     C_3   0.957049 0.984798 0.605182 -0.291828
C24   C     C_R   0.482652 0.458847 0.483123 0.022088
C25   C     C_R   0.518645 0.541907 0.515602 0.021091
C26   C     C_R   0.619748 0.534945 0.598185 -0.145784
C27   C     C_R   0.684430 0.450821 0.646809 -0.129677
C28   C     C_R   0.739846 0.999633 0.499963 0.593678
C29   C     C_R   0.381746 0.465921 0.400385 -0.146723
C30   C     C_R   0.316892 0.549968 0.351899 -0.133066
C31   C     C_R   0.350112 0.630873 0.383000 0.038840
C32   C     C_R   0.451873 0.628927 0.464500 0.001577
C33   C     C_R   0.282405 0.714382 0.332494 -0.161194
C34   C     C_3   0.934505 0.103788 0.420991 0.175585
C35   C     C_R   0.316146 0.796107 0.362037 0.036599
C36   C     C_R   0.482123 0.715277 0.490219 0.032288
C37   C     C_3   0.035098 0.912848 0.471100 -0.239993
C38   C     C_3   0.892511 0.910968 0.473296 -0.234553
C39   C     C_3   0.101471 0.987279 0.604402 -0.253292
C40   C     C_3   0.079006 0.102744 0.418214 -0.215787
C41   C     C_3   0.121738 0.000979 0.498347 0.016557
C42   C     C_3   0.873583 0.118905 0.247987 -0.113926
C43   C     C_R   0.461169 0.187184 0.204801 0.003829
C44   C     C_R   0.523310 0.812802 0.794743 -0.005690
C45   C     C_R   0.419166 0.215468 0.027263 -0.140172
C46   C     C_R   0.432198 0.149164 0.128583 -0.145003
C47   C     C_R   0.474407 0.291609 0.178750 -0.130354
Cu1   Cu    Cu3+1 0.465900 0.918260 0.475680 0.921963
Cu2   Cu    Cu3+1 0.534100 0.081740 0.524320 0.933306
H1    H     H_    0.065572 0.838828 0.526102 0.139561
H2    H     H_    0.421405 0.068530 0.147181 0.123618
H3    H     H_    0.501636 0.318207 0.239321 0.122752
H4    H     H_    0.046038 0.921429 0.394561 0.114925
H5    H     H_    0.431482 0.534326 0.792139 0.106168
H6    H     H_    0.466842 0.463298 0.199642 0.101252
H7    H     H_    0.761641 0.449146 0.709695 0.108751
H8    H     H_    0.559619 0.721520 0.549531 0.113186
H9    H     H_    0.264626 0.860926 0.322649 0.116767
H10   H     H_    0.239799 0.551709 0.288923 0.111052
H11   H     H_    0.795747 0.283444 0.729699 0.088317
H12   H     H_    0.939116 0.160405 0.453906 0.142722
H13   H     H_    0.734364 0.138646 0.678036 0.117478
H14   H     H_    0.441308 0.279017 0.449549 0.112603
H15   H     H_    0.832186 0.913342 0.400221 0.139633
H16   H     H_    0.651536 0.593468 0.627664 0.087982
H17   H     H_    0.350194 0.407507 0.370743 0.087042
H18   H     H_    0.204196 0.716665 0.270145 0.089576
H19   H     H_    0.857296 0.837505 0.532052 0.114830
H20   H     H_    0.134641 0.915543 0.662732 0.125019
H21   H     H_    0.919766 0.911032 0.662368 0.116534
H22   H     H_    0.140522 0.166890 0.436006 0.096634
H23   H     H_    0.160245 0.050570 0.624954 0.131949
H24   H     H_    0.098571 0.113900 0.343472 0.102849
H25   H     H_    0.530126 0.813704 0.025601 0.102604
H26   H     H_    0.907034 0.044862 0.273394 0.094970
H27   H     H_    0.944824 0.180988 0.205955 0.121121
H28   H     H_    0.782171 0.118166 0.194028 0.142546
H29   H     H_    0.947312 0.045150 0.628843 0.113566
H30   H     H_    0.403325 0.356197 0.840678 0.110756
H31   H     H_    0.510487 0.682875 0.762968 0.115637
H32   H     H_    0.543269 0.931044 0.850308 0.125468
H33   H     H_    0.498494 0.641629 0.151621 0.113596
H34   H     H_    0.399060 0.184833 0.969269 0.102482
N1    N     N_R   0.585360 0.204570 0.560800 -0.232257
N2    N     N_R   0.414550 0.795430 0.439160 -0.232780
O1    O     O_R   0.455060 0.022100 0.338110 -0.506068
O2    O     O_R   0.512640 0.160150 0.379180 -0.501758
O3    O     O_R   0.288900 0.930980 0.479450 -0.509828
O4    O     O_R   0.346480 0.069030 0.520520 -0.512053
O5    O     O_R   0.487360 0.839850 0.620820 -0.513028
O6    O     O_R   0.544940 0.977900 0.661890 -0.510705
O7    O     O_R   0.653520 0.930970 0.479480 -0.509799
O8    O     O_R   0.711100 0.069020 0.520550 -0.499877
O9    O     O_3   0.848693 0.138994 0.327082 -0.561096

loop_
_geom_bond_atom_site_label_1
_geom_bond_atom_site_label_2
_ccdc_geom_bond_type
C1    O2    A    
C16   O5    A    
C40   H22   S    
C11   C13   A    
Cu2   O2    S    
C7    C8    A    
C39   C41   S    
C45   C46   A    
C12   C23   S    
C26   C27   A    
C29   C30   A    
C12   C28   S    
C35   H9    S    
C34   C40   S    
C32   C36   A    
Cu2   N1    S    
C15   C44   A    
C5    C6    A    
C11   C14   A    
C4    C41   S    
C19   H13   S    
C40   H24   S    
C18   C19   A    
C24   C29   A    
C1    C43   S    
C8    H30   S    
C39   H23   S    
C31   C33   A    
C9    H6    S    
C9    C10   A    
C16   C44   S    
C37   H4    S    
C25   C32   A    
Cu1   O5    S    
C21   C22   A    
C37   C41   S    
C23   H21   S    
C45   H34   S    
Cu2   O6    S    
C38   H15   S    
C24   C25   A    
C15   H32   S    
C3    C8    A    
C27   H7    S    
C25   C26   A    
C46   H2    S    
C10   H33   S    
C17   H31   S    
C28   O8    A    
C5    C9    A    
C37   C38   S    
C31   C32   A    
C14   C15   A    
C30   H10   S    
Cu1   O3    S    
C39   H20   S    
C28   O7    A    
C47   H3    S    
C42   H28   S    
C18   H11   S    
C40   C41   S    
C38   H19   S    
C36   H8    S    
C22   C27   A    
C20   N1    A    
C36   N2    A    
Cu1   O1    S    
C2    C5    A    
C12   C34   S    
C19   N1    A    
C14   H25   S    
C42   H26   S    
C33   H18   S    
C4    O4    A    
C1    O1    A    
Cu1   Cu2   S    
C42   O9    S    
C26   H16   S    
C34   O9    S    
Cu2   O4    S    
C6    C7    A    
C4    O3    A    
C2    C47   A    
C42   H27   S    
C13   C17   A    
C20   H14   S    
C18   C22   A    
C2    C3    A    
C17   C44   A    
C6    C13   A    
C37   H1    S    
C35   N2    A    
C30   C31   A    
C23   C39   S    
C33   C35   A    
C3    C45   A    
C34   H12   S    
C23   H29   S    
C12   C38   S    
C43   C46   A    
C10   C11   A    
C29   H17   S    
C20   C21   A    
C16   O6    A    
Cu1   O7    S    
C21   C24   A    
Cu1   N2    S    
C7    H5    S    
Cu2   O8    S    
C43   C47   A    
