data_mof_unit_46964.cif
_audit_creation_date              2012-12-10T18:09:37-0500
_audit_creation_method            fapswitch 2.2
_symmetry_space_group_name_H-M    P1
_symmetry_Int_Tables_number       1
_space_group_crystal_system       triclinic
_cell_length_a                    15.735283
_cell_length_b                    15.338519
_cell_length_c                    9.871798
_cell_angle_alpha                 90.412234
_cell_angle_beta                  89.720412
_cell_angle_gamma                 89.868875
_cell_volume                      2382.52059107

loop_
_atom_site_label
_atom_site_type_symbol
_atom_type_description
_atom_site_fract_x
_atom_site_fract_y
_atom_site_fract_z
_atom_type_partial_charge
C1    C     C_R   0.117735 0.378625 0.499203 0.907453
C2    C     C_R   0.117567 0.621432 0.500977 0.901170
C3    C     C_R   0.619969 0.881040 0.499071 0.911020
C4    C     C_R   0.615597 0.123326 0.500140 0.909232
C5    C     C_3   0.089365 0.516626 0.082267 0.575137
C6    C     C_3   0.090803 0.497530 0.917985 0.576475
C7    C     C_3   0.588654 0.018685 0.079497 0.576566
C8    C     C_3   0.583076 0.036394 0.915560 0.566971
C9    C     C_R   0.879993 0.380931 0.500334 0.939941
C10   C     C_R   0.883113 0.622096 0.500536 0.930705
C11   C     C_R   0.380082 0.880915 0.499683 0.920002
C12   C     C_R   0.379698 0.118478 0.501136 0.934943
C13   C     C_3   0.753693 0.318107 0.633474 0.203283
C14   C     C_3   0.846718 0.218233 0.496294 0.142036
C15   C     C_3   0.725573 0.649998 0.524111 0.153860
C16   C     C_3   0.829042 0.764271 0.611036 0.153059
C17   C     C_3   0.347527 0.718006 0.496949 0.174696
C18   C     C_3   0.251426 0.819280 0.372324 0.173209
C19   C     C_3   0.242835 0.170691 0.618496 0.158740
C20   C     C_3   0.346695 0.279897 0.525944 0.155300
C21   C     C_3   0.275531 0.647925 0.499205 0.128874
C22   C     C_3   0.178578 0.750803 0.376011 0.112548
C23   C     C_3   0.171844 0.242160 0.616985 0.128719
C24   C     C_3   0.275071 0.350867 0.519875 0.115069
C25   C     C_3   0.687622 0.242449 0.641117 0.145793
C26   C     C_3   0.772613 0.151053 0.479671 0.093597
C27   C     C_3   0.653031 0.719923 0.519303 0.111767
C28   C     C_3   0.753110 0.829152 0.617290 0.122565
C29   C     C_3   0.750973 0.321239 0.376818 -0.400158
C30   C     C_3   0.812319 0.740610 0.363302 -0.385899
C31   C     C_3   0.250435 0.824907 0.623861 -0.403609
C32   C     C_3   0.261725 0.186257 0.368181 -0.406115
C33   C     C_3   0.809490 0.312091 0.501664 -0.290381
C34   C     C_3   0.814274 0.692547 0.500530 -0.281382
C35   C     C_3   0.309460 0.812390 0.499389 -0.285019
C36   C     C_3   0.309285 0.187157 0.504083 -0.282419
C37   C     C_3   0.185966 0.692010 0.504424 -0.224456
C38   C     C_3   0.186200 0.307844 0.497525 -0.219053
C39   C     C_3   0.682904 0.195130 0.500661 -0.216521
C40   C     C_3   0.690794 0.813017 0.496678 -0.202643
C41   C     C_3   0.181831 0.752735 0.634543 0.767212
C42   C     C_3   0.189472 0.254322 0.360767 0.763799
C43   C     C_3   0.667873 0.269240 0.392052 0.730171
C44   C     C_3   0.743756 0.813461 0.360307 0.738568
C45   C     C_3   0.945104 0.570565 0.085169 0.526055
C46   C     C_3   0.956653 0.579884 0.922193 0.527236
C47   C     C_3   0.973057 0.413097 0.075524 0.541291
C48   C     C_3   0.956998 0.421467 0.914937 0.527015
C49   C     C_3   0.440072 0.066644 0.081791 0.521061
C50   C     C_3   0.431143 0.056381 0.918308 0.534334
C51   C     C_3   0.475007 0.912784 0.081268 0.526821
C52   C     C_3   0.495564 0.908134 0.921443 0.533605
Cu1   Cu    Cu3+1 0.000100 0.500000 0.642410 1.179478
Cu2   Cu    Cu3+1 0.000100 0.500000 0.357590 1.189659
Cu3   Cu    Cu3+1 0.500100 1.000000 0.642410 1.169071
Cu4   Cu    Cu3+1 0.500100 1.000000 0.357590 1.206730
H1    H     H_    0.796044 0.307016 0.720029 0.175094
H2    H     H_    0.879189 0.205366 0.594051 0.167013
H3    H     H_    0.725242 0.620605 0.626790 0.189487
H4    H     H_    0.833126 0.735066 0.711137 0.198834
H5    H     H_    0.382923 0.709802 0.399790 0.157299
H6    H     H_    0.290297 0.799828 0.284711 0.169702
H7    H     H_    0.274877 0.175552 0.717858 0.186151
H8    H     H_    0.376516 0.283016 0.627747 0.178175
H9    H     H_    0.280041 0.610797 0.402422 0.140958
H10   H     H_    0.186544 0.708425 0.285068 0.144719
H11   H     H_    0.176341 0.279063 0.714149 0.160638
H12   H     H_    0.273790 0.385060 0.619553 0.147926
H13   H     H_    0.711394 0.194624 0.716154 0.084459
H14   H     H_    0.781014 0.102808 0.560902 0.178207
H15   H     H_    0.620106 0.719540 0.619351 0.174028
H16   H     H_    0.718480 0.815466 0.712798 0.175148
H17   H     H_    0.738931 0.390287 0.351103 0.256216
H18   H     H_    0.782655 0.290356 0.290114 0.283542
H19   H     H_    0.799472 0.693298 0.281069 0.279451
H20   H     H_    0.875579 0.769054 0.341711 0.265941
H21   H     H_    0.286927 0.826746 0.717985 0.272850
H22   H     H_    0.219523 0.889466 0.618207 0.263828
H23   H     H_    0.235991 0.120008 0.349418 0.275705
H24   H     H_    0.308330 0.201879 0.287847 0.277545
N1    N     N_3   0.001260 0.500000 0.143650 -0.328816
N2    N     N_3   0.001260 0.500000 0.856350 -0.325638
N3    N     N_3   0.501260 0.000000 0.143650 -0.330300
N4    N     N_3   0.501260 0.000000 0.856350 -0.325224
O1    O     O_R   0.091250 0.408820 0.620260 -0.540489
O2    O     O_R   0.091250 0.408820 0.379740 -0.444687
O3    O     O_R   0.091250 0.591180 0.620260 -0.446589
O4    O     O_R   0.091250 0.591180 0.379740 -0.539025
O5    O     O_R   0.591250 0.908820 0.620260 -0.522999
O6    O     O_R   0.591250 0.908820 0.379740 -0.461758
O7    O     O_R   0.591250 0.091180 0.620260 -0.524335
O8    O     O_R   0.591250 0.091180 0.379740 -0.441115
O9    O     O_R   0.908940 0.408800 0.620260 -0.533592
O10   O     O_R   0.908940 0.408800 0.379740 -0.502598
O11   O     O_R   0.908940 0.591200 0.620260 -0.534179
O12   O     O_R   0.908940 0.591200 0.379740 -0.516176
O13   O     O_R   0.408940 0.908800 0.620260 -0.511930
O14   O     O_R   0.408940 0.908800 0.379740 -0.531006
O15   O     O_R   0.408940 0.091200 0.620260 -0.532196
O16   O     O_R   0.408940 0.091200 0.379740 -0.515482
Cl1   Cl    Cl    0.706116 0.424581 0.651193 -0.324731
Cl2   Cl    Cl    0.928012 0.205919 0.369232 -0.292923
Cl3   Cl    Cl    0.708777 0.560996 0.407483 -0.396896
Cl4   Cl    Cl    0.928787 0.817437 0.588895 -0.315026
Cl5   Cl    Cl    0.426843 0.700039 0.623058 -0.331302
Cl6   Cl    Cl    0.215522 0.929097 0.342474 -0.335128
Cl7   Cl    Cl    0.202455 0.061491 0.610287 -0.390519
Cl8   Cl    Cl    0.430792 0.299189 0.407787 -0.350928
Cl9   Cl    Cl    0.288789 0.568222 0.631544 -0.394583
Cl10  Cl    Cl    0.074770 0.797719 0.355950 -0.289181
Cl11  Cl    Cl    0.066588 0.196751 0.618071 -0.317082
Cl12  Cl    Cl    0.295946 0.434128 0.395521 -0.399872
Cl13  Cl    Cl    0.585485 0.276931 0.707319 -0.291988
Cl14  Cl    Cl    0.779010 0.089115 0.325271 -0.391388
Cl15  Cl    Cl    0.570955 0.693371 0.400218 -0.318684
Cl16  Cl    Cl    0.784518 0.940859 0.637245 -0.423446
O17   O     O_3   0.197010 0.704097 0.752164 -0.591853
H25   H     H_    0.190903 0.743120 0.832394 0.364750
O18   O     O_3   0.101107 0.791071 0.644812 -0.590922
H26   H     H_    0.100341 0.830492 0.725116 0.379684
O19   O     O_3   0.111579 0.211788 0.340084 -0.574408
H27   H     H_    0.115618 0.177403 0.254625 0.385522
O20   O     O_3   0.205510 0.309971 0.250755 -0.588910
H28   H     H_    0.210420 0.274004 0.166923 0.363702
O21   O     O_3   0.603467 0.326581 0.435528 -0.570395
H29   H     H_    0.596202 0.372681 0.366311 0.389460
O22   O     O_3   0.645125 0.233766 0.266124 -0.604423
H30   H     H_    0.639342 0.282104 0.200314 0.369815
O23   O     O_3   0.690365 0.797995 0.248984 -0.566139
H31   H     H_    0.725371 0.799137 0.164990 0.364417
O24   O     O_3   0.782702 0.895436 0.345718 -0.604393
H32   H     H_    0.814592 0.895543 0.258676 0.359125
Cl17  Cl    Cl    0.962895 0.676456 0.159349 -0.404787
Cl18  Cl    Cl    0.011016 0.677940 0.870736 -0.362644
Cl19  Cl    Cl    0.044258 0.325620 0.114763 -0.345946
Cl20  Cl    Cl    0.985533 0.321596 0.830460 -0.377443
Cl21  Cl    Cl    0.471289 0.174928 0.137196 -0.327084
Cl22  Cl    Cl    0.423970 0.166745 0.853780 -0.404097
Cl23  Cl    Cl    0.518879 0.821302 0.165598 -0.286759
Cl24  Cl    Cl    0.588214 0.840748 0.887096 -0.405162
Cl25  Cl    Cl    0.835893 0.550032 0.136838 -0.378255
Cl26  Cl    Cl    0.852208 0.609600 0.863304 -0.436713
Cl27  Cl    Cl    0.881667 0.360248 0.137672 -0.410594
Cl28  Cl    Cl    0.845054 0.423547 0.877327 -0.398230
Cl29  Cl    Cl    0.333036 0.066193 0.145117 -0.440196
Cl30  Cl    Cl    0.330630 0.012621 0.861545 -0.407716
Cl31  Cl    Cl    0.365722 0.884988 0.111421 -0.428549
Cl32  Cl    Cl    0.423427 0.833303 0.850204 -0.370445
O25   O     O_3   0.113520 0.604077 0.106679 -0.643544
H33   H     H_    0.175663 0.611146 0.094121 0.325739
O26   O     O_3   0.142067 0.559634 0.854264 -0.581204
H34   H     H_    0.200693 0.555273 0.890187 0.341127
O27   O     O_3   0.149427 0.463907 0.148403 -0.590673
H35   H     H_    0.206842 0.475760 0.111009 0.329634
O28   O     O_3   0.128078 0.415011 0.891174 -0.660838
H36   H     H_    0.190388 0.417040 0.905137 0.333063
O29   O     O_3   0.624578 0.092223 0.139838 -0.570967
H37   H     H_    0.682455 0.100911 0.102198 0.340116
O30   O     O_3   0.586637 0.126956 0.892344 -0.607973
H38   H     H_    0.644902 0.149102 0.907260 0.336235
O31   O     O_3   0.643285 0.947819 0.107037 -0.626822
H39   H     H_    0.702907 0.963132 0.085038 0.344134
O32   O     O_3   0.653015 0.999237 0.846236 -0.623461
H40   H     H_    0.706248 0.024927 0.881965 0.316736

loop_
_geom_bond_atom_site_label_1
_geom_bond_atom_site_label_2
_ccdc_geom_bond_type
C16   C28   S    
C7    N3    S    
Cu3   Cu4   S    
O29   H37   S    
C6    N2    S    
C49   Cl21  S    
Cu1   O11   S    
O32   H40   S    
C24   Cl12  S    
Cu4   O14   S    
C13   C25   S    
C43   O21   S    
C14   C33   S    
C18   Cl6   S    
O31   H39   S    
C50   N4    S    
C7    C8    S    
C46   Cl26  S    
C45   C46   S    
C44   O24   S    
C7    O31   S    
C31   H22   S    
C11   O14   A    
C32   C36   S    
C38   C42   S    
C17   Cl5   S    
C19   C36   S    
O30   H38   S    
C5    C6    S    
C26   C39   S    
C14   Cl2   S    
C13   H1    S    
C28   C40   S    
C47   Cl27  S    
C5    O25   S    
C48   Cl28  S    
C21   C37   S    
C4    O8    A    
C16   H4    S    
C23   H11   S    
C52   N4    S    
C22   H10   S    
C12   O15   A    
Cu3   O7    S    
C28   Cl16  S    
C17   H5    S    
C46   N2    S    
C16   Cl4   S    
C27   Cl15  S    
C20   C24   S    
C29   C33   S    
C19   H7    S    
C22   Cl10  S    
C24   C38   S    
O26   H34   S    
C2    O4    A    
C51   Cl31  S    
C12   C36   S    
C18   C35   S    
C15   C34   S    
Cu2   O12   S    
C6    O28   S    
C4    O7    A    
C16   C34   S    
C50   Cl30  S    
Cu4   O6    S    
C52   Cl32  S    
C8    N4    S    
C29   C43   S    
C9    C33   S    
C30   C44   S    
C28   H16   S    
C42   O20   S    
C31   H21   S    
C1    O1    A    
C14   H2    S    
Cu2   O10   S    
C30   C34   S    
Cu1   O9    S    
C51   C52   S    
O20   H28   S    
Cu1   O3    S    
C43   O22   S    
Cu2   O2    S    
C18   H6    S    
C39   C43   S    
C29   H18   S    
C44   O23   S    
Cu1   Cu2   S    
C22   C37   S    
C17   C21   S    
Cu1   N2    S    
C20   H8    S    
C51   N3    S    
C19   C23   S    
C14   C26   S    
C26   Cl14  S    
C13   C33   S    
C25   Cl13  S    
C32   H24   S    
C5    N1    S    
C15   C27   S    
C47   C48   S    
C4    C39   S    
C10   O12   A    
C27   C40   S    
Cu3   O13   S    
C49   Cl29  S    
C2    O3    A    
C10   C34   S    
C41   O18   S    
O19   H27   S    
C1    C38   S    
C45   Cl25  S    
C7    O29   S    
C6    O26   S    
C3    C40   S    
C3    O6    A    
O21   H29   S    
C26   H14   S    
C31   C35   S    
C25   H13   S    
C30   H20   S    
Cu4   O16   S    
C13   Cl1   S    
O22   H30   S    
C9    O9    A    
C27   H15   S    
Cu4   N3    S    
O23   H31   S    
C1    O2    A    
C31   C41   S    
C21   H9    S    
C18   C22   S    
C15   H3    S    
C48   Cl20  S    
C45   N1    S    
C8    O32   S    
C21   Cl9   S    
O18   H26   S    
C50   Cl22  S    
C46   Cl18  S    
C23   C38   S    
C23   Cl11  S    
C45   Cl17  S    
C11   O13   A    
C3    O5    A    
C41   O17   S    
C49   N3    S    
C11   C35   S    
Cu3   N4    S    
Cu3   O5    S    
O17   H25   S    
C25   C39   S    
C32   H23   S    
Cu2   O4    S    
C30   H19   S    
C8    O30   S    
C2    C37   S    
C10   O11   A    
C5    O27   S    
C52   Cl24  S    
C48   N2    S    
C47   Cl19  S    
C47   N1    S    
C37   C41   S    
C12   O16   A    
C24   H12   S    
C20   C36   S    
C40   C44   S    
C29   H17   S    
C49   C50   S    
Cu3   O15   S    
O28   H36   S    
C32   C42   S    
Cu1   O1    S    
C17   C35   S    
C15   Cl3   S    
O27   H35   S    
O25   H33   S    
Cu4   O8    S    
C9    O10   A    
Cu2   N1    S    
O24   H32   S    
C42   O19   S    
C51   Cl23  S    
C20   Cl8   S    
C19   Cl7   S    
