data_mof_unit_8925.cif
_audit_creation_date              2012-10-26T21:24:48-0400
_audit_creation_method            fapswitch 2.2
_symmetry_space_group_name_H-M    P1
_symmetry_Int_Tables_number       1
_space_group_crystal_system       triclinic
_cell_length_a                    9.550973
_cell_length_b                    10.837447
_cell_length_c                    15.553519
_cell_angle_alpha                 89.715063
_cell_angle_beta                  73.84069
_cell_angle_gamma                 90.542451
_cell_volume                      1546.19312695

loop_
_atom_site_label
_atom_site_type_symbol
_atom_type_description
_atom_site_fract_x
_atom_site_fract_y
_atom_site_fract_z
_atom_type_partial_charge
C1    C     C_R   0.998494 0.262425 0.501888 0.544003
C2    C     C_R   0.217682 0.469755 0.043148 0.036711
C3    C     C_R   0.322693 0.474625 0.091645 0.052934
C4    C     C_R   0.917531 0.501551 0.671930 0.547659
C5    C     C_R   0.069130 0.468855 0.088901 -0.148944
C6    C     C_R   0.025251 0.480467 0.181580 -0.153246
C7    C     C_R   0.275569 0.449240 0.184782 0.000415
C8    C     C_R   0.115854 0.065436 0.516918 0.024498
C9    C     C_R   0.992942 0.129475 0.511126 0.007056
C10   C     C_R   0.863172 0.063130 0.517801 -0.162667
C11   C     C_R   0.864234 0.934417 0.517355 -0.161363
C12   C     C_R   0.666807 0.510749 0.905624 0.033974
C13   C     C_R   0.995053 0.871081 0.510260 0.006743
C14   C     C_R   0.117086 0.938408 0.516706 0.024612
C15   C     C_3   0.271537 0.936215 0.459971 -0.277454
C16   C     C_R   0.999692 0.737812 0.501444 0.552655
C17   C     C_3   0.269734 0.076040 0.460374 -0.264506
C18   C     C_R   0.608598 0.529102 0.423982 0.155835
C19   C     C_R   0.541056 0.458222 0.572012 -0.014951
C20   C     C_R   0.392375 0.458426 0.572066 -0.018430
C21   C     C_R   0.461248 0.529058 0.424029 0.151105
C22   C     C_3   0.480126 0.647927 0.373647 -0.280079
C23   C     C_R   0.762994 0.556141 0.953377 0.049188
C24   C     C_3   0.639296 0.647573 0.372897 -0.276521
C25   C     C_R   0.082328 0.491057 0.328299 0.538111
C26   C     C_R   0.869840 0.512717 0.769536 0.000736
C27   C     C_R   0.128313 0.473772 0.230485 -0.002115
C28   C     C_R   0.909425 0.582094 0.908423 -0.144615
C29   C     C_R   0.962702 0.560402 0.816962 -0.142597
C30   C     C_R   0.724311 0.485571 0.814290 -0.129364
C31   C     C_3   0.365980 0.366962 0.229234 -0.261551
C32   C     C_3   0.434220 0.257257 0.171441 -0.447640
C33   C     C_R   0.516460 0.493122 0.950610 0.027414
C34   C     C_R   0.469782 0.502305 0.045225 0.031160
C35   C     C_R   0.567269 0.550032 0.090308 -0.139887
C36   C     C_R   0.711148 0.577704 0.044976 -0.145780
C37   C     C_R   0.409954 0.473865 0.904218 -0.139765
C38   C     C_R   0.262558 0.466663 0.949913 -0.140279
Cu1   Cu    Cu3+1 0.140670 0.499980 0.500000 0.926037
Cu2   Cu    Cu3+1 0.859330 0.500020 0.500000 0.932131
H1    H     H_    0.781974 0.616267 0.081880 0.102138
H2    H     H_    0.310057 0.426301 0.630920 0.115727
H3    H     H_    0.462977 0.638049 0.306428 0.116938
H4    H     H_    0.417736 0.722595 0.414467 0.145892
H5    H     H_    0.714682 0.635489 0.304846 0.116809
H6    H     H_    0.669005 0.723944 0.412176 0.147492
H7    H     H_    0.910357 0.490723 0.215024 0.125255
H8    H     H_    0.183490 0.458608 0.911986 0.110190
H9    H     H_    0.982197 0.621186 0.943728 0.107571
H10   H     H_    0.075143 0.583682 0.783058 0.123725
H11   H     H_    0.658064 0.443136 0.776503 0.107732
H12   H     H_    0.987339 0.464752 0.052954 0.114820
H13   H     H_    0.530767 0.574116 0.159948 0.104485
H14   H     H_    0.435916 0.473083 0.832184 0.096475
H15   H     H_    0.350654 0.207594 0.146979 0.158837
H16   H     H_    0.525255 0.287371 0.113589 0.165917
H17   H     H_    0.479046 0.192059 0.212082 0.130303
H18   H     H_    0.451125 0.419882 0.249357 0.138948
H19   H     H_    0.295102 0.324171 0.291316 0.167002
H20   H     H_    0.763084 0.109961 0.518732 0.134659
H21   H     H_    0.764560 0.885356 0.518146 0.131723
H22   H     H_    0.345719 0.898091 0.497018 0.132428
H23   H     H_    0.282370 0.896812 0.392567 0.131781
H24   H     H_    0.342565 0.117539 0.497344 0.140209
H25   H     H_    0.279189 0.117499 0.393394 0.133013
H26   H     H_    0.568792 0.425493 0.630841 0.111114
N1    N     N_R   0.648210 0.500930 0.499430 -0.229146
N2    N     N_R   0.352300 0.500890 0.499430 -0.230960
O1    O     O_R   0.118810 0.319640 0.500000 -0.504407
O2    O     O_R   0.881230 0.319680 0.499990 -0.506262
O3    O     O_R   0.055580 0.499970 0.629840 -0.509566
O4    O     O_R   0.818000 0.500010 0.629830 -0.511825
O5    O     O_R   0.118770 0.680320 0.500010 -0.494401
O6    O     O_R   0.881190 0.680360 0.500000 -0.505153
O7    O     O_R   0.182000 0.499990 0.370170 -0.510124
O8    O     O_R   0.944420 0.500030 0.370160 -0.500562

loop_
_geom_bond_atom_site_label_1
_geom_bond_atom_site_label_2
_ccdc_geom_bond_type
C30   H11   S    
C35   H13   S    
C18   C21   A    
Cu1   N2    S    
C19   C20   A    
C12   C23   A    
Cu2   O2    S    
C16   O6    A    
C24   H5    S    
C31   H18   S    
C28   C29   A    
C3    C7    A    
C17   H24   S    
C5    C6    A    
C7    C27   A    
C19   H26   S    
C34   C35   A    
C31   H19   S    
C22   H4    S    
C31   C32   S    
C8    C9    A    
Cu2   N1    S    
C8    C14   A    
C5    H12   S    
C19   N1    A    
C18   C24   S    
Cu1   O7    S    
C9    C10   A    
C32   H15   S    
C38   H8    S    
C13   C14   A    
C36   H1    S    
C32   H17   S    
C29   H10   S    
C7    C31   S    
C6    H7    S    
C16   O5    A    
C1    C9    S    
Cu1   Cu2   S    
C3    C34   A    
C18   N1    A    
C1    O1    A    
Cu2   O8    S    
C25   O7    A    
C35   C36   A    
C10   H20   S    
C37   C38   A    
C28   H9    S    
C2    C38   A    
C4    C26   S    
C6    C27   A    
C33   C34   A    
Cu1   O1    S    
C23   C28   A    
C37   H14   S    
C26   C30   A    
C21   N2    A    
C22   C24   S    
C2    C5    A    
C4    O4    A    
C15   C17   S    
C15   H23   S    
Cu2   O4    S    
C12   C30   A    
C20   N2    A    
C8    C17   S    
C11   H21   S    
C20   H2    S    
C25   C27   S    
C17   H25   S    
C1    O2    A    
C25   O8    A    
C24   H6    S    
C2    C3    A    
C4    O3    A    
C11   C13   A    
C15   H22   S    
Cu2   O6    S    
Cu1   O5    S    
C33   C37   A    
C10   C11   A    
C26   C29   A    
C23   C36   A    
C13   C16   S    
Cu1   O3    S    
C14   C15   S    
C12   C33   A    
C21   C22   S    
C32   H16   S    
C22   H3    S    
