data_mof_unit_21684.cif
_audit_creation_date              2012-12-10T19:42:01-0500
_audit_creation_method            fapswitch 2.2
_symmetry_space_group_name_H-M    P1
_symmetry_Int_Tables_number       1
_space_group_crystal_system       triclinic
_cell_length_a                    18.264839
_cell_length_b                    18.232958
_cell_length_c                    18.519538
_cell_angle_alpha                 120.339937
_cell_angle_beta                  90.098057
_cell_angle_gamma                 119.46116
_cell_volume                      4370.12964446

loop_
_atom_site_label
_atom_site_type_symbol
_atom_type_description
_atom_site_fract_x
_atom_site_fract_y
_atom_site_fract_z
_atom_type_partial_charge
C1    C     C_R   0.139798 0.780281 0.140295 0.540726
C2    C     C_R   0.800679 0.108680 0.806219 0.002606
C3    C     C_R   0.712976 0.055260 0.808090 0.108627
C4    C     C_R   0.858917 0.220434 0.860392 0.547302
C5    C     C_R   0.659227 0.945216 0.754344 0.253748
C6    C     C_R   0.693140 0.891118 0.698392 -0.012173
C7    C     C_R   0.783159 0.946109 0.709170 -0.079170
C8    C     C_3   0.834818 0.934009 0.646187 0.199188
C9    C     C_3   0.889096 0.053484 0.698070 0.304407
C10   C     C_R   0.769422 0.559853 0.219325 0.073663
C11   C     C_R   0.796654 0.493001 0.187956 -0.014387
C12   C     C_R   0.791598 0.693086 0.794088 -0.090462
C13   C     C_R   0.760410 0.415814 0.203169 -0.183317
C14   C     C_R   0.708413 0.415064 0.258923 0.094308
C15   C     C_R   0.691388 0.492544 0.299439 0.043896
C16   C     C_R   0.139775 0.501413 0.859747 0.515625
C17   C     C_R   0.721387 0.561339 0.276089 -0.051022
C18   C     C_3   0.765006 0.675339 0.326876 0.035484
C19   C     C_3   0.814564 0.672692 0.257923 0.546154
C20   C     C_R   0.163636 0.949014 0.202936 -0.028863
C21   C     C_R   0.194962 0.892201 0.201643 0.039015
C22   C     C_R   0.278848 0.945251 0.263326 0.238498
C23   C     C_R   0.764174 0.596324 0.775157 -0.085932
C24   C     C_R   0.333798 0.053660 0.315996 -0.139155
C25   C     C_R   0.304324 0.108735 0.309638 -0.016465
C26   C     C_R   0.217874 0.055723 0.256460 -0.017348
C27   C     C_3   0.188672 0.065741 0.188633 -0.228795
C28   C     C_R   0.859099 0.499663 0.139237 0.527009
C29   C     C_3   0.128320 0.948332 0.128918 0.007647
C30   C     C_R   0.283870 0.546719 0.211646 -0.108741
C31   C     C_R   0.194749 0.506872 0.202745 -0.028449
C32   C     C_R   0.160648 0.474182 0.257702 0.268251
C33   C     C_R   0.215706 0.476251 0.313698 0.264442
C34   C     C_R   0.798619 0.592212 0.840065 -0.002277
C35   C     C_R   0.304030 0.508295 0.313278 -0.029899
C36   C     C_R   0.335486 0.546704 0.263747 0.035263
C37   C     C_3   0.416656 0.597811 0.242428 0.426513
C38   C     C_3   0.356617 0.595964 0.181221 -0.208788
C39   C     C_R   0.285104 0.582048 0.837555 -0.057731
C40   C     C_R   0.139838 0.501197 0.141039 0.516459
C41   C     C_R   0.193231 0.508147 0.801858 -0.033144
C42   C     C_R   0.153246 0.441438 0.707848 0.253925
C43   C     C_R   0.207469 0.433311 0.654262 0.252779
C44   C     C_R   0.301593 0.502571 0.693639 0.010247
C45   C     C_R   0.798454 0.502238 0.809680 -0.033526
C46   C     C_R   0.338055 0.580569 0.784652 -0.053887
C47   C     C_3   0.414854 0.619188 0.854808 0.182774
C48   C     C_3   0.355403 0.619056 0.913023 0.058879
C49   C     C_R   0.640195 0.499197 0.359918 0.520842
C50   C     C_R   0.359489 0.498805 0.639585 0.549822
C51   C     C_R   0.638793 0.779454 0.639982 0.525990
C52   C     C_R   0.858527 0.500672 0.861285 0.506537
C53   C     C_R   0.360345 0.219989 0.360543 0.507415
C54   C     C_R   0.360013 0.502139 0.362429 0.517613
C55   C     C_R   0.641617 0.500614 0.638937 0.509099
C56   C     C_R   0.745928 0.413625 0.722894 -0.146356
C57   C     C_R   0.832291 0.679451 0.930014 0.119973
C58   C     C_R   0.857937 0.775163 0.948167 -0.079608
C59   C     C_R   0.840292 0.782991 0.880292 0.253619
C60   C     C_3   0.041365 0.108327 0.692026 -0.260461
C61   C     C_3   0.787774 0.052829 0.603575 -0.315279
C62   C     C_3   0.742118 0.369215 0.349096 -0.268460
C63   C     C_3   0.874985 0.705217 0.440304 -0.273084
C64   C     C_3   0.759308 0.747862 0.221353 -0.171749
C65   C     C_3   0.953697 0.831033 0.324155 -0.091956
C66   C     C_3   0.289011 0.877589 0.333888 -0.110542
C67   C     C_R   0.692721 0.411149 0.666769 0.247772
C68   C     C_3   0.895124 0.739563 0.080005 -0.224701
C69   C     C_3   0.114669 0.892308 0.975676 -0.304529
C70   C     C_3   0.067639 0.521057 0.311541 -0.080882
C71   C     C_3   0.220452 0.542773 0.457631 -0.117130
C72   C     C_3   0.554529 0.755296 0.301305 -0.116641
C73   C     C_3   0.389900 0.423271 0.139112 -0.314631
C74   C     C_3   0.029256 0.428032 0.661578 -0.095794
C75   C     C_3   0.128507 0.357550 0.511912 -0.041681
C76   C     C_3   0.513412 0.588116 0.888047 -0.118482
C77   C     C_3   0.392559 0.798452 0.985404 -0.281354
C78   C     C_R   0.702409 0.503318 0.692801 0.028151
C79   C     C_3   0.796335 0.884611 0.891736 -0.117161
C80   C     C_3   0.558383 0.256000 0.592703 -0.109223
C81   C     C_3   0.700318 0.161900 0.949581 -0.283657
C82   C     C_3   0.567226 0.878985 0.818770 -0.114825
C83   C     C_3   0.830792 0.797961 0.631988 -0.117252
C84   C     C_R   0.834220 0.051803 0.758566 -0.030442
H1    H     H_    0.743689 0.344435 0.699137 0.146448
H2    H     H_    0.886535 0.842960 0.015969 0.123525
H3    H     H_    0.342919 0.543262 0.109143 0.105787
H4    H     H_    0.473861 0.696569 0.876368 0.098691
H5    H     H_    0.335787 0.561028 0.927676 0.157065
H6    H     H_    0.776394 0.699358 0.741863 0.115487
H7    H     H_    0.994910 0.095207 0.790518 0.275566
H8    H     H_    0.110771 0.153591 0.735532 0.129368
H9    H     H_    0.041003 0.145236 0.659434 0.177308
H10   H     H_    0.020542 0.028162 0.640742 0.177113
H11   H     H_    0.920892 0.169293 0.679943 0.303577
H12   H     H_    0.795641 0.888991 0.575471 0.115332
H13   H     H_    0.792047 0.078163 0.559474 0.149492
H14   H     H_    0.758685 0.085502 0.652649 0.162357
H15   H     H_    0.742555 0.967304 0.561785 0.136580
H16   H     H_    0.653666 0.266586 0.221067 0.238440
H17   H     H_    0.801685 0.374482 0.331012 0.117355
H18   H     H_    0.711245 0.310218 0.363259 0.161199
H19   H     H_    0.763261 0.445086 0.410222 0.159439
H20   H     H_    0.852419 0.813761 0.453583 0.248271
H21   H     H_    0.933152 0.773823 0.501452 0.144804
H22   H     H_    0.900214 0.672098 0.386978 0.181115
H23   H     H_    0.775957 0.358864 0.175702 0.140935
H24   H     H_    0.833522 0.647290 0.453680 0.120973
H25   H     H_    0.770754 0.778274 0.180646 0.145319
H26   H     H_    0.797395 0.815428 0.291809 0.086559
H27   H     H_    0.686801 0.705292 0.210611 0.105017
H28   H     H_    0.931353 0.870825 0.377128 0.099743
H29   H     H_    0.946945 0.841321 0.270983 0.132782
H30   H     H_    0.025777 0.869535 0.354305 0.124371
H31   H     H_    0.312828 0.832950 0.335854 0.146534
H32   H     H_    0.215525 0.831988 0.319434 0.101983
H33   H     H_    0.322638 0.952963 0.400372 0.096235
H34   H     H_    0.714468 0.692055 0.325517 0.114318
H35   H     H_    0.774137 0.594332 0.983896 0.280784
H36   H     H_    0.892227 0.703136 0.113683 0.244395
H37   H     H_    0.897077 0.810287 0.125324 0.099402
H38   H     H_    0.956798 0.760094 0.062813 0.176295
H39   H     H_    0.219409 0.930616 0.064108 0.256534
H40   H     H_    0.133120 0.851647 0.918722 0.134974
H41   H     H_    0.140342 0.969901 0.991559 0.151272
H42   H     H_    0.040815 0.845944 0.956042 0.167254
H43   H     H_    0.996633 0.490691 0.305417 0.137830
H44   H     H_    0.091685 0.575894 0.292612 0.093473
H45   H     H_    0.399687 0.094144 0.360108 0.147550
H46   H     H_    0.104976 0.562976 0.382096 0.099990
H47   H     H_    0.271751 0.550938 0.498980 0.138933
H48   H     H_    0.166964 0.536630 0.487476 0.109110
H49   H     H_    0.250895 0.615336 0.461355 0.080436
H50   H     H_    0.534969 0.742870 0.237110 0.080939
H51   H     H_    0.603648 0.736693 0.302669 0.120012
H52   H     H_    0.587895 0.838804 0.354538 0.134940
H53   H     H_    0.496408 0.563143 0.168979 0.226218
H54   H     H_    0.427264 0.388904 0.109559 0.138827
H55   H     H_    0.338496 0.398905 0.084576 0.127756
H56   H     H_    0.151311 0.101896 0.209463 0.133960
H57   H     H_    0.357450 0.392807 0.177185 0.151845
H58   H     H_    0.955891 0.373937 0.628479 0.145850
H59   H     H_    0.058009 0.457128 0.621502 0.065915
H60   H     H_    0.042889 0.494269 0.728004 0.126457
H61   H     H_    0.139097 0.322815 0.447147 0.178639
H62   H     H_    0.156122 0.439394 0.538843 0.073240
H63   H     H_    0.055516 0.313743 0.498935 0.142748
H64   H     H_    0.514272 0.625108 0.957985 0.090328
H65   H     H_    0.569798 0.645288 0.881309 0.125519
H66   H     H_    0.523125 0.526463 0.870775 0.147671
H67   H     H_    0.243526 0.101011 0.165807 0.132098
H68   H     H_    0.445867 0.751108 0.038978 0.235100
H69   H     H_    0.418760 0.870407 0.052749 0.151472
H70   H     H_    0.324554 0.770421 0.952571 0.166128
H71   H     H_    0.436968 0.817227 0.947735 0.099604
H72   H     H_    0.757724 0.868115 0.934270 0.099684
H73   H     H_    0.752080 0.831644 0.821651 0.134594
H74   H     H_    0.821466 0.964462 0.914416 0.146962
H75   H     H_    0.524360 0.294795 0.623878 0.113961
H76   H     H_    0.573107 0.231003 0.631247 0.103849
H77   H     H_    0.511411 0.185380 0.525625 0.138527
H78   H     H_    0.056907 0.918947 0.113831 0.125201
H79   H     H_    0.608519 0.073264 0.823849 0.278316
H80   H     H_    0.640146 0.131295 0.968355 0.105186
H81   H     H_    0.732122 0.245891 0.983307 0.175370
H82   H     H_    0.747263 0.150754 0.973687 0.162443
H83   H     H_    0.606221 0.849260 0.823735 0.122798
H84   H     H_    0.496739 0.821891 0.806190 0.128846
H85   H     H_    0.590596 0.952904 0.883089 0.110611
H86   H     H_    0.779199 0.746213 0.565663 0.135299
H87   H     H_    0.798663 0.794357 0.681921 0.127499
H88   H     H_    0.872369 0.768555 0.627895 0.125434
H89   H     H_    0.374464 0.673755 0.204032 0.154369
N1    N     N_2   0.983088 0.108309 0.745050 -0.478600
N2    N     N_2   0.876714 0.090486 0.647857 -0.513095
N3    N     N_2   0.678017 0.339617 0.276871 -0.476816
N4    N     N_2   0.823115 0.735250 0.417549 -0.515935
N5    N     N_2   0.818846 0.667668 0.000121 -0.505299
N6    N     N_2   0.152686 0.902531 0.051381 -0.517821
N7    N     N_2   0.451295 0.535200 0.196984 -0.476572
N8    N     N_2   0.389585 0.721636 0.992931 -0.506463
N9    N     N_2   0.675327 0.110569 0.854375 -0.517129
O1    O     O_3   0.000000 0.500000 0.000000 -0.452348
O2    O     O_R   0.323450 0.268330 0.384170 -0.531023
O3    O     O_R   0.444860 0.560620 0.384150 -0.493809
O4    O     O_R   0.055050 0.731580 0.115780 -0.579424
O5    O     O_R   0.615780 0.439200 0.555040 -0.500745
O6    O     O_R   0.323420 0.439190 0.384160 -0.524978
O7    O     O_R   0.615760 0.560630 0.676470 -0.562751
O8    O     O_R   0.615740 0.731500 0.676460 -0.566721
O9    O     O_R   0.444900 0.268330 0.384170 -0.539229
O10   O     O_R   0.615750 0.560630 0.384150 -0.538123
O11   O     O_R   0.323430 0.439200 0.555040 -0.515414
O12   O     O_R   0.055090 0.439280 0.823480 -0.506663
O13   O     O_R   0.884220 0.268410 0.823490 -0.543292
O14   O     O_R   0.176520 0.560720 0.944920 -0.530618
O15   O     O_R   0.884200 0.439290 0.115800 -0.568376
O16   O     O_R   0.176530 0.560720 0.115800 -0.545921
O17   O     O_R   0.884180 0.560710 0.944910 -0.548173
O18   O     O_R   0.055100 0.439290 0.115810 -0.497177
O19   O     O_R   0.884190 0.439280 0.823480 -0.551322
O20   O     O_3   0.784686 0.678389 0.190954 -0.580146
O21   O     O_3   0.908541 0.725448 0.289544 -0.559849
O22   O     O_3   0.310859 0.892177 0.267168 -0.536987
O23   O     O_R   0.884180 0.560710 0.115790 -0.514294
O24   O     O_3   0.073218 0.436752 0.255494 -0.506823
O25   O     O_3   0.182911 0.450905 0.370758 -0.527437
O26   O     O_3   0.481444 0.697846 0.319949 -0.525675
O27   O     O_3   0.061612 0.374181 0.667403 -0.525312
O28   O     O_3   0.169371 0.346646 0.567109 -0.525913
O29   O     O_3   0.431310 0.542844 0.829202 -0.555951
O30   O     O_3   0.869909 0.878858 0.899585 -0.564980
O31   O     O_3   0.636352 0.320340 0.583669 -0.542063
O32   O     O_3   0.571026 0.890770 0.748876 -0.564171
O33   O     O_3   0.886577 0.901273 0.659240 -0.575601
O34   O     O_R   0.176500 0.731590 0.115790 -0.485779
O35   O     O_R   0.884220 0.268420 0.944930 -0.543773
O36   O     O_3   0.499960 0.499910 0.499960 -0.458676
O37   O     O_R   0.615770 0.439200 0.384160 -0.520379
O38   O     O_R   0.444870 0.560630 0.676470 -0.524387
O39   O     O_R   0.615730 0.731500 0.555020 -0.544802
Zn1   Zn    Zn3+2 0.956630 0.413250 0.869870 0.935401
Zn2   Zn    Zn3+2 0.130130 0.586750 0.043370 0.959394
Zn3   Zn    Zn3+2 0.956630 0.413250 0.043380 0.936088
Zn4   Zn    Zn3+2 0.956610 0.586750 0.043370 0.915349
Zn5   Zn    Zn3+2 0.543330 0.586660 0.630080 0.909051
Zn6   Zn    Zn3+2 0.543320 0.586660 0.456570 0.949294
Zn7   Zn    Zn3+2 0.369830 0.413160 0.456580 0.950563
Zn8   Zn    Zn3+2 0.543350 0.413170 0.456590 0.945303

loop_
_geom_bond_atom_site_label_1
_geom_bond_atom_site_label_2
_ccdc_geom_bond_type
C70   H43   S    
C4    O13   A    
C74   H59   S    
C75   O28   S    
C1    C21   S    
C47   O29   S    
C27   C29   S    
C60   N1    S    
C65   H30   S    
C2    C84   A    
C35   C36   A    
C61   N2    S    
C13   H23   S    
O15   Zn3   S    
O1    Zn4   S    
C79   H74   S    
C64   H25   S    
C7    C8    S    
C72   O26   S    
C49   O10   A    
C82   H84   S    
C1    O4    A    
C75   H61   S    
C42   O27   S    
H53   N7    S    
C12   C23   A    
C26   C27   S    
C66   H32   S    
C20   C29   S    
C49   O37   A    
C55   O7    A    
C12   H6    S    
C36   C37   S    
C25   C53   S    
C18   C19   S    
C9    N2    S    
C5    C6    A    
C50   O11   A    
C72   H52   S    
C73   H54   S    
C10   C17   A    
C70   H44   S    
O3    Zn6   S    
C83   H86   S    
C70   H46   S    
C31   C40   S    
C30   C38   S    
C52   O19   A    
C41   C42   A    
C68   N5    S    
C43   O28   S    
H11   N2    S    
C14   N3    S    
C8    H12   S    
C77   H69   S    
C71   H48   S    
C82   O32   S    
C73   N7    S    
C72   H50   S    
C24   H45   S    
O10   Zn6   S    
H20   N4    S    
C18   N4    S    
C8    C9    S    
C66   H33   S    
C83   H87   S    
H16   N3    S    
C34   C57   A    
C77   N8    S    
C81   H82   S    
O23   Zn4   S    
C77   H71   S    
H35   N5    S    
C55   O5    A    
C6    C51   S    
C63   H21   S    
C18   H34   S    
C35   C54   S    
O12   Zn1   S    
C62   H17   S    
C66   O22   S    
C60   H9    S    
C8    O33   S    
O35   Zn3   S    
C71   O25   S    
C7    C84   A    
C74   H58   S    
C82   H85   S    
C69   H41   S    
C54   O6    A    
C13   C14   A    
H79   N9    S    
C28   O23   A    
C12   C59   A    
C61   H15   S    
C67   C78   A    
C76   H65   S    
O19   Zn1   S    
O37   Zn8   S    
C58   H2    S    
O36   Zn7   S    
C44   C46   A    
C69   N6    S    
C74   H60   S    
C82   H83   S    
C60   H8    S    
C75   H62   S    
C79   O30   S    
C66   H31   S    
C74   O27   S    
O18   Zn3   S    
C16   O12   A    
C24   C25   A    
C45   C56   A    
C39   C41   A    
C53   O2    A    
C68   H38   S    
C52   O17   A    
C55   C78   S    
O1    Zn3   S    
C72   H51   S    
C73   H57   S    
C40   O18   A    
C45   C52   S    
C3    C5    A    
C25   C26   A    
C54   O3    A    
C19   O20   S    
C57   N5    S    
H7    N1    S    
C2    C4    S    
C43   C44   A    
O36   Zn8   S    
C71   H49   S    
C37   C38   S    
C16   O14   A    
C77   H70   S    
C53   O9    A    
C64   H26   S    
C47   C48   S    
C65   O21   S    
C76   H66   S    
C10   C19   S    
O9    Zn8   S    
C23   C34   A    
C62   N3    S    
C83   H88   S    
C1    O34   A    
C19   O21   S    
C17   C18   S    
O38   Zn5   S    
C9    N1    S    
C34   C45   A    
C63   H22   S    
O17   Zn4   S    
C6    C7    A    
C51   O8    A    
C39   C46   A    
C76   O29   S    
H39   N6    S    
C69   H42   S    
C30   C31   A    
C48   H5    S    
C37   O26   S    
C22   C24   A    
C67   O31   S    
C42   C43   A    
O2    Zn7   S    
C65   H28   S    
C32   O24   S    
C79   H72   S    
O36   Zn6   S    
C59   O30   S    
C62   H19   S    
C44   C50   S    
C15   C17   A    
C37   N7    S    
C64   O20   S    
C46   C47   S    
C33   O25   S    
C27   H67   S    
O8    Zn5   S    
C65   H29   S    
C29   H78   S    
H68   N8    S    
C31   C32   A    
C61   H13   S    
C28   O15   A    
O11   Zn7   S    
C64   H27   S    
C63   N4    S    
C68   H37   S    
C79   H73   S    
O13   Zn1   S    
C83   O33   S    
C80   O31   S    
C30   C36   A    
C81   H80   S    
C70   O24   S    
C56   C67   A    
C73   H55   S    
O39   Zn6   S    
C56   H1    S    
C27   H56   S    
C69   H40   S    
C22   O22   S    
C38   H3    S    
C75   H63   S    
C47   H4    S    
O16   Zn2   S    
C58   C59   A    
O34   Zn2   S    
C38   H89   S    
C11   C13   A    
C61   H14   S    
C57   C58   A    
C48   N8    S    
O4    Zn4   S    
C20   C26   A    
C11   C28   S    
C51   O39   A    
O1    Zn1   S    
C5    O32   S    
C80   H75   S    
C40   O16   A    
C50   O38   A    
C33   C35   A    
C2    C3    A    
C15   C49   S    
C23   C78   A    
O6    Zn7   S    
C32   C33   A    
C3    N9    S    
C80   H77   S    
O14   Zn2   S    
C80   H76   S    
C10   C11   A    
C9    C84   S    
C71   H47   S    
O5    Zn8   S    
O7    Zn5   S    
C20   C21   A    
C76   H64   S    
O1    Zn2   S    
C4    O35   A    
C29   N6    S    
C81   H81   S    
C14   C15   A    
C63   H24   S    
C21   C22   A    
C81   N9    S    
C16   C41   S    
O36   Zn5   S    
C68   H36   S    
C39   C48   S    
C62   H18   S    
C60   H10   S    
