data_mof_unit_14930.cif
_audit_creation_date              2013-03-05T16:35:51-0500
_audit_creation_method            fapswitch 2.2
_symmetry_space_group_name_H-M    P1
_symmetry_Int_Tables_number       1
_space_group_crystal_system       triclinic
_cell_length_a                    23.530345
_cell_length_b                    9.277478
_cell_length_c                    7.770419
_cell_angle_alpha                 90.010268
_cell_angle_beta                  89.999977
_cell_angle_gamma                 89.999815
_cell_volume                      1696.2999866

loop_
_atom_site_label
_atom_site_type_symbol
_atom_site_description
_atom_site_fract_x
_atom_site_fract_y
_atom_site_fract_z
_atom_type_partial_charge
O1    O     O_R   0.500000 0.288390 0.642760 -0.574597
O2    O     O_R   0.500000 0.711610 0.357240 -0.574597
O3    O     O_R   0.500000 0.711610 0.642760 -0.574460
O4    O     O_R   0.500000 0.288390 0.357240 -0.574460
C1    C     C_R   0.500000 0.219677 0.499991 0.844824
C2    C     C_R   0.500000 0.780323 0.500009 0.844824
O5    O     O_R   0.417880 0.500000 0.642820 -0.585640
O6    O     O_R   0.582120 0.500000 0.357180 -0.585599
O7    O     O_R   0.582120 0.500000 0.642820 -0.585599
O8    O     O_R   0.417880 0.500000 0.357180 -0.585640
C3    C     C_R   0.208868 0.500000 0.500001 0.327313
C4    C     C_R   0.791126 0.499997 0.500000 0.326451
C5    C     C_R   0.390573 0.500000 0.500000 0.800504
C6    C     C_R   0.609423 0.500000 0.500000 0.800436
Cu1   Cu    Cu3+1 0.500000 0.500000 0.669080 1.016142
Cu2   Cu    Cu3+1 0.500000 0.500000 0.330920 1.016142
H1    H     H_    0.215645 0.484497 0.223665 0.145077
H2    H     H_    0.784330 0.476746 0.775478 0.145760
H3    H     H_    0.215645 0.515504 0.776337 0.145077
H4    H     H_    0.784331 0.523249 0.224523 0.145760
C7    C     C_R   0.297817 0.491502 0.344071 -0.196489
C8    C     C_R   0.702166 0.487222 0.655457 -0.196892
C9    C     C_R   0.297817 0.508499 0.655930 -0.196489
C10   C     C_R   0.702166 0.512775 0.344543 -0.196892
H5    H     H_    0.319934 0.484770 0.222061 0.161045
H6    H     H_    0.680040 0.477049 0.777069 0.161247
H7    H     H_    0.319934 0.515231 0.777939 0.161045
H8    H     H_    0.680040 0.522949 0.222931 0.161247
C11   C     C_R   0.327996 0.500000 0.500000 -0.041261
C12   C     C_R   0.671993 0.499999 0.500000 -0.041248
C13   C     C_R   0.880278 0.628128 0.488611 0.616459
C14   C     C_R   0.119735 0.371858 0.488762 0.616618
C15   C     C_R   0.880278 0.371868 0.511391 0.616459
C16   C     C_R   0.119734 0.628141 0.511241 0.616619
N1    N     N_R   0.851979 0.499998 0.500000 -0.493284
N2    N     N_R   0.148026 0.500000 0.500001 -0.493478
C17   C     C_R   0.940131 0.369377 0.513095 -0.140144
C18   C     C_R   0.059883 0.630634 0.512959 -0.140275
C19   C     C_R   0.940130 0.630621 0.486910 -0.140143
C20   C     C_R   0.059883 0.369365 0.487047 -0.140275
C21   C     C_R   0.969955 0.499999 0.500003 -0.122230
C22   C     C_R   0.030057 0.499999 0.500003 -0.122236
C23   C     C_R   0.971124 0.240580 0.522936 0.405733
C24   C     C_R   0.028892 0.759432 0.522756 0.405748
C25   C     C_R   0.971123 0.759419 0.477074 0.405728
C26   C     C_R   0.028893 0.240567 0.477253 0.405745
C27   C     C_1   0.500000 0.064989 0.499988 -0.156143
C28   C     C_1   0.500000 0.935011 0.500012 -0.156143
C29   C     C_R   0.238558 0.491206 0.344312 -0.084664
C30   C     C_R   0.761425 0.486847 0.655198 -0.084420
C31   C     C_R   0.238558 0.508795 0.655690 -0.084665
C32   C     C_R   0.761425 0.513149 0.344802 -0.084420
N3    N     N_1   0.500000 0.500000 0.076820 -0.049924
N4    N     N_1   0.500000 0.500000 0.923180 -0.049924
O9    O     O_2   0.850429 0.752254 0.485903 -0.427335
O10   O     O_2   0.149591 0.247743 0.486088 -0.427123
O11   O     O_2   0.850430 0.247742 0.514099 -0.427333
O12   O     O_2   0.149590 0.752257 0.513915 -0.427122
Cl1   Cl    Cl    0.945195 0.101899 0.656410 -0.382747
Cl2   Cl    Cl    0.054809 0.898098 0.656331 -0.382684
Cl3   Cl    Cl    0.945192 0.898108 0.343614 -0.382745
Cl4   Cl    Cl    0.054811 0.101895 0.343687 -0.382684

loop_
_geom_bond_atom_site_label_1
_geom_bond_atom_site_label_2
_geom_bond_distance
_ccdc_geom_bond_type
C10   C32   1.394405 A    
C4    C30   1.399168 A    
O7    C6    1.282315 A    
C9    C11   1.406591 A    
C18   C24   1.401912 A    
O1    Cu1   1.973796 S    
C9    H7    1.083298 S    
C19   C21   1.404092 A    
O2    Cu2   1.973795 S    
C21   C22   1.414218 A    
C9    C31   1.394410 A    
C27   C28   1.205860 T    
C23   Cl1   1.761755 S    
C19   C25   1.401982 A    
O3    C2    1.279467 A    
C13   O9    1.349022 S    
O5    Cu1   1.943058 S    
O7    Cu1   1.943056 S    
O6    Cu2   1.943056 S    
O8    Cu2   1.943058 S    
N3    N4    1.193848 T    
C4    N1    1.431894 S    
C20   C26   1.401914 A    
O4    C1    1.279467 A    
C1    C27   1.435117 S    
O2    C2    1.279395 A    
C2    C28   1.435117 S    
C26   Cl4   1.761749 S    
O1    C1    1.279395 A    
C7    C29   1.394410 A    
C14   N2    1.365307 A    
C13   N1    1.365408 A    
C25   Cl3   1.761755 S    
O4    Cu2   1.973869 S    
C4    C32   1.399169 A    
C24   Cl2   1.761746 S    
C18   C22   1.404092 A    
C16   N2    1.365306 A    
C14   C20   1.408587 A    
C17   C21   1.404090 A    
C23   C26   1.404909 A    
O6    C6    1.282315 A    
C17   C23   1.401979 A    
C10   C12   1.406178 A    
C3    C31   1.399360 A    
C5    C11   1.472470 S    
C3    C29   1.399361 A    
Cu1   Cu2   2.627646 S    
Cu1   N4    1.974463 S    
H3    C31   1.083226 S    
C8    C30   1.394405 A    
O5    C5    1.282359 A    
O3    Cu1   1.973868 S    
C24   C25   1.404908 A    
H2    C30   1.082965 S    
H4    C32   1.082965 S    
C8    H6    1.083037 S    
H1    C29   1.083226 S    
C16   O12   1.349022 S    
C7    H5    1.083299 S    
Cu2   N3    1.974463 S    
C3    N2    1.431636 S    
C15   O11   1.349024 S    
C8    C12   1.406178 A    
C15   N1    1.365409 A    
C6    C12   1.472301 S    
C7    C11   1.406591 A    
C14   O10   1.349022 S    
C15   C17   1.408597 A    
C10   H8    1.083037 S    
C13   C19   1.408600 A    
C20   C22   1.404095 A    
O8    C5    1.282360 A    
C16   C18   1.408586 A    
