data_mof_unit_53751.cif
_audit_creation_date              2012-10-26T20:06:16-0400
_audit_creation_method            fapswitch 2.2
_symmetry_space_group_name_H-M    P1
_symmetry_Int_Tables_number       1
_space_group_crystal_system       triclinic
_cell_length_a                    9.55899
_cell_length_b                    10.830953
_cell_length_c                    13.407265
_cell_angle_alpha                 90.319495
_cell_angle_beta                  73.132955
_cell_angle_gamma                 89.872715
_cell_volume                      1328.3477111

loop_
_atom_site_label
_atom_site_type_symbol
_atom_type_description
_atom_site_fract_x
_atom_site_fract_y
_atom_site_fract_z
_atom_type_partial_charge
C1    C     C_R   0.499879 0.737808 0.500162 0.559716
C2    C     C_R   0.382846 0.448598 0.810455 -0.008043
C3    C     C_R   0.624451 0.935930 0.505960 -0.138492
C4    C     C_R   0.423579 0.484076 0.698816 0.543458
C5    C     C_R   0.624597 0.063683 0.505843 -0.140035
C6    C     C_R   0.500079 0.128296 0.500109 0.022120
C7    C     C_R   0.375421 0.064115 0.494505 -0.138871
C8    C     C_R   0.375346 0.936383 0.494498 -0.135438
C9    C     C_R   0.499823 0.871740 0.500255 0.021021
C10   C     C_R   0.900017 0.580511 0.561508 0.003395
C11   C     C_R   0.048826 0.580948 0.561725 0.207243
C12   C     C_R   0.444882 0.429830 0.974764 0.027493
C13   C     C_R   0.099599 0.419785 0.438133 -0.018696
C14   C     C_R   0.951089 0.419821 0.438178 -0.009067
C15   C     C_R   0.500085 0.262194 0.499953 0.541157
C16   C     C_R   0.577739 0.499541 0.299969 0.547843
C17   C     C_R   0.807010 0.483154 0.019814 -0.117529
C18   C     C_R   0.621570 0.490190 0.186021 -0.001075
C19   C     C_R   0.235000 0.433166 0.865271 -0.133194
C20   C     C_R   0.193772 0.406425 0.971300 -0.139904
C21   C     C_R   0.295640 0.410992 0.026783 -0.114643
C22   C     C_R   0.489419 0.429751 0.864431 0.007899
C23   C     C_R   0.552015 0.447317 0.027932 0.002312
C24   C     C_R   0.701952 0.450201 0.970311 0.093277
C25   C     C_R   0.744020 0.418102 0.864536 0.075904
C26   C     C_R   0.637992 0.406132 0.812861 -0.113978
C27   C     C_R   0.514359 0.467902 0.135866 -0.135709
C28   C     C_R   0.767963 0.500691 0.127206 -0.154958
Cu1   Cu    Cu3+1 0.359340 0.499980 0.500000 0.968658
Cu2   Cu    Cu3+1 0.640660 0.500020 0.500000 0.923754
H1    H     H_    0.851960 0.522627 0.163972 0.128918
H2    H     H_    0.255375 0.394220 0.109396 0.095449
H3    H     H_    0.082154 0.384028 0.012246 0.119948
H4    H     H_    0.674407 0.373151 0.733389 0.155687
H5    H     H_    0.721741 0.887731 0.510650 0.126036
H6    H     H_    0.033097 0.651568 0.704224 0.201969
H7    H     H_    0.071803 0.755517 0.606898 0.194268
H8    H     H_    0.902450 0.302613 0.782676 0.233872
H9    H     H_    0.923997 0.451265 0.745076 0.230393
H10   H     H_    0.401695 0.468497 0.182411 0.123795
H11   H     H_    0.721950 0.111552 0.510419 0.124711
H12   H     H_    0.278131 0.112303 0.489804 0.124905
H13   H     H_    0.278160 0.888582 0.489603 0.130908
H14   H     H_    0.823250 0.644613 0.611023 0.114599
H15   H     H_    0.175623 0.355386 0.388420 0.104721
H16   H     H_    0.915759 0.355454 0.388495 0.113549
H17   H     H_    0.918674 0.498317 0.974618 0.140229
H18   H     H_    0.151879 0.439066 0.825561 0.165718
N1    N     N_R   0.147940 0.499970 0.499970 -0.192970
N2    N     N_R   0.852060 0.500060 0.499990 -0.241429
N3    N     N_3   0.095292 0.666400 0.627164 -0.559972
N4    N     N_3   0.894042 0.393781 0.809879 -0.671524
O1    O     O_R   0.381250 0.680340 0.500010 -0.468079
O2    O     O_R   0.618820 0.680370 0.500010 -0.509258
O3    O     O_R   0.323240 0.499950 0.650980 -0.469256
O4    O     O_R   0.560810 0.499980 0.650980 -0.517555
O5    O     O_R   0.381180 0.319630 0.499990 -0.515349
O6    O     O_R   0.618750 0.319660 0.499990 -0.518075
O7    O     O_R   0.439190 0.500020 0.349020 -0.511380
O8    O     O_R   0.676760 0.500050 0.349020 -0.500447

loop_
_geom_bond_atom_site_label_1
_geom_bond_atom_site_label_2
_ccdc_geom_bond_type
C2    C22   A    
C2    C4    S    
C23   C24   A    
C24   C25   A    
C6    C7    A    
C3    C9    A    
C23   C27   A    
Cu2   O2    S    
Cu1   O7    S    
C19   C20   A    
C8    H13   S    
C3    H5    S    
C27   H10   S    
C1    O2    A    
H9    N4    S    
Cu2   N2    S    
C25   N4    S    
C1    C9    S    
C7    C8    A    
C14   H16   S    
C25   C26   A    
Cu1   N1    S    
C13   C14   A    
C4    O4    A    
C13   H15   S    
C15   O5    A    
C12   C23   A    
Cu1   Cu2   S    
H6    N3    S    
Cu1   O1    S    
C11   N1    A    
C20   H3    S    
Cu2   O6    S    
H8    N4    S    
C15   O6    A    
Cu1   O5    S    
C4    O3    A    
C16   O8    A    
C5    C6    A    
H7    N3    S    
C21   H2    S    
C13   N1    A    
C17   C24   A    
C11   N3    S    
C10   C11   A    
C14   N2    A    
C10   H14   S    
C10   N2    A    
C12   C22   A    
C18   C28   A    
C20   C21   A    
C16   C18   S    
C22   C26   A    
C7    H12   S    
C5    H11   S    
C19   H18   S    
C1    O1    A    
Cu1   O3    S    
C6    C15   S    
C2    C19   A    
C17   C28   A    
Cu2   O4    S    
C12   C21   A    
C26   H4    S    
C28   H1    S    
C18   C27   A    
C17   H17   S    
C8    C9    A    
C3    C5    A    
C16   O7    A    
Cu2   O8    S    
