data_mof_unit_43160.cif
_audit_creation_date              2012-10-26T19:52:44-0400
_audit_creation_method            fapswitch 2.2
_symmetry_space_group_name_H-M    P1
_symmetry_Int_Tables_number       1
_space_group_crystal_system       triclinic
_cell_length_a                    15.046183
_cell_length_b                    10.865321
_cell_length_c                    9.575638
_cell_angle_alpha                 91.193369
_cell_angle_beta                  90.150945
_cell_angle_gamma                 89.775503
_cell_volume                      1565.08403941

loop_
_atom_site_label
_atom_site_type_symbol
_atom_type_description
_atom_site_fract_x
_atom_site_fract_y
_atom_site_fract_z
_atom_type_partial_charge
C1    C     C_R   0.497575 0.262655 0.498954 0.550906
C2    C     C_R   0.189048 0.386760 0.505985 0.079172
C3    C     C_R   0.233013 0.499537 0.497884 -0.008951
C4    C     C_R   0.329360 0.500746 0.499723 0.531532
C5    C     C_R   0.186729 0.610278 0.481355 0.077002
C6    C     C_R   0.512773 0.067968 0.620622 0.048845
C7    C     C_R   0.490366 0.129779 0.499541 -0.005270
C8    C     C_R   0.459635 0.061885 0.383137 -0.153968
C9    C     C_R   0.460677 0.933194 0.385069 -0.146068
C10   C     C_R   0.493646 0.871470 0.502611 0.028221
C11   C     C_R   0.515997 0.940733 0.622350 0.025594
C12   C     C_R   0.905150 0.605685 0.469919 0.004672
C13   C     C_3   0.600475 0.943542 0.707279 -0.051419
C14   C     C_3   0.595013 0.082980 0.706008 0.006679
C15   C     C_R   0.564727 0.560202 0.075448 0.139984
C16   C     C_R   0.499596 0.737790 0.501046 0.529003
C17   C     C_R   0.442644 0.427748 0.073132 0.205517
C18   C     C_R   0.442595 0.427774 0.923069 0.224684
C19   C     C_R   0.564572 0.560037 0.928246 0.111263
C20   C     C_3   0.583290 0.693602 0.924613 -0.242696
C21   C     C_3   0.583872 0.695051 0.083009 -0.048487
C22   C     C_R   0.670804 0.500881 0.499978 0.571237
C23   C     C_R   0.955350 0.268730 0.500324 0.090721
C24   C     C_R   0.812449 0.604303 0.471220 -0.175830
C25   C     C_R   0.767134 0.497149 0.498383 0.039201
C26   C     C_R   0.811939 0.386171 0.517853 0.097203
C27   C     C_R   0.906033 0.380777 0.502135 0.021055
C28   C     C_R   0.952837 0.493785 0.486060 -0.023094
C29   C     C_R   0.048384 0.270692 0.501915 0.162510
C30   C     C_R   0.095170 0.383370 0.499477 0.054914
C31   C     C_R   0.046989 0.495517 0.486395 -0.073600
C32   C     C_R   0.092810 0.609634 0.474337 0.058284
C33   C     C_R   0.043459 0.719623 0.455294 0.167252
C34   C     C_R   0.950610 0.717333 0.452408 0.092757
Cu1   Cu    Cu3+1 0.500000 0.499980 0.640670 0.988540
Cu2   Cu    Cu3+1 0.500000 0.500020 0.359330 0.963903
H1    H     H_    0.773871 0.687148 0.455542 0.102946
H2    H     H_    0.649532 0.128476 0.649990 0.182844
H3    H     H_    0.316931 0.377814 0.120250 0.208265
H4    H     H_    0.391811 0.260551 0.115627 0.193774
H5    H     H_    0.392495 0.260337 0.870452 0.213159
H6    H     H_    0.316752 0.376760 0.874454 0.200016
H7    H     H_    0.525390 0.744133 0.881663 0.123189
H8    H     H_    0.667097 0.717236 0.250445 0.258153
H9    H     H_    0.718154 0.657116 0.108395 0.237783
H10   H     H_    0.753054 0.217689 0.486509 0.228571
H11   H     H_    0.785708 0.252299 0.658131 0.230137
H12   H     H_    0.648826 0.712004 0.876053 0.143472
H13   H     H_    0.529722 0.752039 0.129852 0.157848
H14   H     H_    0.882493 0.123194 0.573178 0.235876
H15   H     H_    0.874681 0.147562 0.393733 0.246456
H16   H     H_    0.078349 0.104421 0.413048 0.254676
H17   H     H_    0.075653 0.107184 0.591193 0.242527
H18   H     H_    0.283404 0.266132 0.434915 0.242277
H19   H     H_    0.278371 0.282406 0.611897 0.250107
H20   H     H_    0.274210 0.734471 0.564056 0.232691
H21   H     H_    0.278186 0.718178 0.387070 0.238985
H22   H     H_    0.066374 0.894799 0.520158 0.249825
H23   H     H_    0.437529 0.107643 0.289895 0.132176
H24   H     H_    0.067735 0.872676 0.343814 0.248005
H25   H     H_    0.863960 0.849702 0.520374 0.238944
H26   H     H_    0.864259 0.823907 0.343632 0.243679
H27   H     H_    0.438223 0.882350 0.293246 0.121890
H28   H     H_    0.595328 0.907607 0.813674 0.130096
H29   H     H_    0.734022 0.918369 0.686263 0.221219
H30   H     H_    0.672936 0.799904 0.627485 0.233104
H31   H     H_    0.633526 0.130036 0.904709 0.230360
H32   H     H_    0.525033 0.093547 0.892550 0.218499
N1    N     N_R   0.500570 0.500930 0.147930 -0.226451
N2    N     N_3   0.095184 0.155320 0.503049 -0.563468
N3    N     N_3   0.240598 0.275879 0.520345 -0.580517
N4    N     N_3   0.235870 0.723241 0.473458 -0.579941
N5    N     N_3   0.087080 0.835602 0.439165 -0.564105
N6    N     N_3   0.903919 0.831482 0.433193 -0.646038
N7    N     N_R   0.500570 0.500890 0.852020 -0.214925
N8    N     N_3   0.676872 0.895938 0.628995 -0.656353
N9    N     N_3   0.576626 0.139900 0.842996 -0.616524
N10   N     N_3   0.381704 0.352201 0.146904 -0.565111
N11   N     N_3   0.381473 0.352312 0.845520 -0.561587
N12   N     N_3   0.671585 0.723147 0.141912 -0.635982
N13   N     N_3   0.759797 0.285209 0.564675 -0.643814
N14   N     N_3   0.914946 0.149892 0.482757 -0.654745
O1    O     O_R   0.500000 0.319640 0.618810 -0.445355
O2    O     O_R   0.500010 0.319680 0.381230 -0.481039
O3    O     O_R   0.370250 0.499950 0.618800 -0.482181
O4    O     O_R   0.370260 0.499990 0.381220 -0.480322
O5    O     O_R   0.499990 0.680320 0.618770 -0.518851
O6    O     O_R   0.500000 0.680360 0.381190 -0.526541
O7    O     O_R   0.629740 0.500010 0.618780 -0.483065
O8    O     O_R   0.629750 0.500050 0.381200 -0.505897

loop_
_geom_bond_atom_site_label_1
_geom_bond_atom_site_label_2
_ccdc_geom_bond_type
C17   N1    A    
C18   N7    A    
C23   N14   S    
C11   C13   S    
Cu1   Cu2   S    
H31   N9    S    
C21   H13   S    
C7    C8    A    
Cu2   O6    S    
C1    O2    A    
C15   C19   A    
Cu1   N7    S    
C26   C27   A    
H29   N8    S    
C12   C28   A    
C23   C29   A    
C5    N4    S    
C8    H23   S    
C30   C31   A    
C6    C14   S    
H24   N5    S    
C14   N9    S    
Cu1   O5    S    
H18   N3    S    
C19   C20   S    
C8    C9    A    
H20   N4    S    
C22   C25   S    
C16   O5    A    
C23   C27   A    
C9    C10   A    
C5    C32   A    
H6    N11   S    
C9    H27   S    
C13   C14   S    
H17   N2    S    
C33   C34   A    
C15   N1    A    
H3    N10   S    
H8    N12   S    
C24   C25   A    
C24   H1    S    
C6    C11   A    
Cu1   O1    S    
C18   N11   S    
C4    O3    A    
Cu2   O4    S    
C25   C26   A    
C29   C30   A    
C14   H2    S    
H10   N13   S    
C31   C32   A    
C13   N8    S    
H30   N8    S    
C17   C18   A    
C22   O8    A    
H15   N14   S    
C20   H12   S    
C34   N6    S    
Cu1   O7    S    
C33   N5    S    
C26   N13   S    
H4    N10   S    
C12   C34   A    
C2    N3    S    
C20   H7    S    
Cu2   N1    S    
H14   N14   S    
C29   N2    S    
Cu2   O8    S    
H32   N9    S    
C1    C7    S    
C28   C31   A    
C3    C5    A    
H5    N11   S    
C6    C7    A    
H25   N6    S    
C1    O1    A    
C12   C24   A    
C2    C30   A    
C32   C33   A    
C19   N7    A    
C2    C3    A    
C10   C16   S    
Cu1   O3    S    
C13   H28   S    
Cu2   O2    S    
C21   N12   S    
C17   N10   S    
C22   O7    A    
H9    N12   S    
H11   N13   S    
H21   N4    S    
H16   N2    S    
C10   C11   A    
C15   C21   S    
C4    O4    A    
C20   C21   S    
C27   C28   A    
C16   O6    A    
H26   N6    S    
H19   N3    S    
C3    C4    S    
H22   N5    S    
