data_mof_unit_30763.cif
_audit_creation_date              2012-12-10T20:27:59-0500
_audit_creation_method            fapswitch 2.2
_symmetry_space_group_name_H-M    P1
_symmetry_Int_Tables_number       1
_space_group_crystal_system       triclinic
_cell_length_a                    12.834755
_cell_length_b                    10.691321
_cell_length_c                    9.927701
_cell_angle_alpha                 89.814437
_cell_angle_beta                  97.17624
_cell_angle_gamma                 91.526797
_cell_volume                      1351.13275984

loop_
_atom_site_label
_atom_site_type_symbol
_atom_type_description
_atom_site_fract_x
_atom_site_fract_y
_atom_site_fract_z
_atom_type_partial_charge
C1    C     C_R   0.501368 0.259987 0.500417 0.905086
C2    C     C_R   0.533639 0.936663 0.382586 -0.188675
C3    C     C_R   0.523561 0.871449 0.503220 -0.090360
C4    C     C_R   0.298429 0.503057 0.473092 0.947378
C5    C     C_R   0.531830 0.936010 0.625815 -0.019055
C6    C     C_3   0.470376 0.921661 0.743901 0.180489
C7    C     C_3   0.460526 0.063804 0.742093 0.233014
C8    C     C_R   0.426037 0.431703 0.059568 0.087406
C9    C     C_R   0.577757 0.560340 0.083431 0.446800
C10   C     C_R   0.578155 0.559604 0.941021 0.463479
C11   C     C_R   0.425695 0.432248 0.917270 0.120955
C12   C     C_R   0.027132 0.472502 0.553589 0.185654
C13   C     C_3   0.310163 0.451483 0.894705 -0.472281
C14   C     C_3   0.310659 0.449719 0.047185 -0.434246
C15   C     C_R   0.504959 0.739779 0.500579 0.878913
C16   C     C_R   0.701542 0.500592 0.526824 0.862961
C17   C     C_R   0.813561 0.498811 0.543546 -0.042530
C18   C     C_R   0.186336 0.512874 0.456510 -0.097868
C19   C     C_R   0.025397 0.598389 0.347490 -0.311955
C20   C     C_R   0.133758 0.585348 0.351977 0.436471
C21   C     C_R   0.133084 0.456462 0.555214 -0.367446
C22   C     C_3   0.299286 0.092952 0.814122 0.104669
C23   C     C_R   0.972658 0.542872 0.448024 0.129035
C24   C     C_3   0.182947 0.106565 0.765957 -0.830557
C25   C     C_R   0.865883 0.555841 0.444128 -0.234317
C26   C     C_R   0.867600 0.433213 0.651471 -0.177882
C27   C     C_R   0.974907 0.419464 0.656174 -0.194570
C28   C     C_R   0.524379 0.063298 0.625099 -0.022947
C29   C     C_R   0.515893 0.128547 0.502580 -0.040446
C30   C     C_R   0.530385 0.065817 0.382469 -0.215110
H1    H     H_    0.823067 0.608460 0.362530 0.189991
H2    H     H_    0.174854 0.401221 0.634629 0.166861
H3    H     H_    0.532072 0.114878 0.287081 0.172076
H4    H     H_    0.536056 0.888646 0.287135 0.184239
H5    H     H_    0.395103 0.867805 0.718832 0.164366
H6    H     H_    0.599244 0.923393 0.874040 0.344797
H7    H     H_    0.326157 0.168837 0.887524 0.141847
H8    H     H_    0.308622 0.001509 0.867870 0.148839
H9    H     H_    0.153742 0.026575 0.699365 0.262116
H10   H     H_    0.138151 0.108029 0.854645 0.208369
H11   H     H_    0.169758 0.194603 0.708004 0.248481
H12   H     H_    0.501671 0.115093 0.831874 0.085791
H13   H     H_    0.627591 0.659364 0.240168 0.362903
H14   H     H_    0.631766 0.651173 0.796747 0.385854
H15   H     H_    0.140671 0.693389 0.194911 0.330857
H16   H     H_    0.289703 0.543854 0.848308 0.223168
H17   H     H_    0.266366 0.370428 0.844252 0.199601
H18   H     H_    0.290696 0.541219 0.088201 0.261869
H19   H     H_    0.267992 0.367170 0.084142 0.200107
H20   H     H_    0.826383 0.388871 0.728460 0.165780
H21   H     H_    0.982881 0.653362 0.267752 0.157800
H22   H     H_    0.016566 0.366301 0.738129 0.140960
N1    N     N_R   0.499290 0.499140 0.142710 -0.195802
N2    N     N_R   0.499290 0.499180 0.857070 -0.200900
O1    O     O_R   0.500010 0.316790 0.614690 -0.601529
O2    O     O_3   0.356247 0.099898 0.701190 -0.595400
O3    O     O_3   0.655526 0.630328 0.158371 -0.730707
O4    O     O_3   0.657160 0.627300 0.890451 -0.703343
O5    O     O_3   0.189816 0.646562 0.260407 -0.780884
O6    O     O_R   0.500000 0.316760 0.385350 -0.632396
O7    O     O_R   0.346360 0.499990 0.595720 -0.626643
O8    O     O_R   0.346350 0.499960 0.366370 -0.570944
O9    O     O_R   0.500000 0.683240 0.614650 -0.629531
O10   O     O_R   0.499990 0.683210 0.385310 -0.640375
O11   O     O_R   0.653650 0.500040 0.633630 -0.632934
O12   O     O_R   0.653640 0.500010 0.404280 -0.620245
O13   O     O_3   0.530579 0.877051 0.861707 -0.757979
Zn1   Zn    Zn3+2 0.500010 0.500020 0.653130 0.964149
Zn2   Zn    Zn3+2 0.499990 0.499980 0.346870 0.966725

loop_
_geom_bond_atom_site_label_1
_geom_bond_atom_site_label_2
_ccdc_geom_bond_type
C8    N1    A    
C25   H1    S    
C19   C23   A    
C15   O10   A    
C5    C28   A    
C6    C7    S    
C19   H21   S    
C18   C21   A    
O10   Zn2   S    
C9    C10   A    
C9    O3    S    
C19   C20   A    
C12   C23   A    
C2    C30   A    
O11   Zn1   S    
C4    C18   S    
C2    H4    S    
C1    C29   S    
C2    C3    A    
C1    O1    A    
H6    O13   S    
C17   C25   A    
C13   C14   S    
C6    H5    S    
C20   O5    S    
C24   H9    S    
C24   H11   S    
C11   C13   S    
O7    Zn1   S    
C26   C27   A    
C29   C30   A    
C11   N2    A    
C12   C21   A    
C7    O2    S    
C8    C11   A    
C17   C26   A    
O6    Zn2   S    
N2    Zn1   S    
C6    O13   S    
C24   H10   S    
O1    Zn1   S    
C18   C20   A    
C26   H20   S    
C5    C6    S    
C10   N2    A    
C21   H2    S    
C22   C24   S    
C7    H12   S    
O12   Zn2   S    
C9    N1    A    
H13   O3    S    
C12   C27   A    
C22   H8    S    
C4    O8    A    
C23   C25   A    
C16   O12   A    
C27   H22   S    
C14   H19   S    
C1    O6    A    
C13   H17   S    
C14   H18   S    
C15   O9    A    
C13   H16   S    
C28   C29   A    
C3    C15   S    
C22   O2    S    
C16   O11   A    
C8    C14   S    
C30   H3    S    
C10   O4    S    
N1    Zn2   S    
O9    Zn1   S    
C22   H7    S    
C4    O7    A    
H15   O5    S    
C7    C28   S    
O8    Zn2   S    
H14   O4    S    
C16   C17   S    
C3    C5    A    
