data_mof_unit_6654.cif
_audit_creation_date              2012-10-26T21:20:11-0400
_audit_creation_method            fapswitch 2.2
_symmetry_space_group_name_H-M    P1
_symmetry_Int_Tables_number       1
_space_group_crystal_system       triclinic
_cell_length_a                    13.003694
_cell_length_b                    10.81193
_cell_length_c                    9.561023
_cell_angle_alpha                 89.367634
_cell_angle_beta                  95.618471
_cell_angle_gamma                 91.12439
_cell_volume                      1337.46074982

loop_
_atom_site_label
_atom_site_type_symbol
_atom_type_description
_atom_site_fract_x
_atom_site_fract_y
_atom_site_fract_z
_atom_type_partial_charge
C1    C     C_R   0.499839 0.262233 0.500411 0.550520
C2    C     C_R   0.699260 0.500391 0.525895 0.550926
C3    C     C_R   0.811783 0.503426 0.541081 -0.031224
C4    C     C_R   0.188204 0.495737 0.459223 -0.017142
C5    C     C_R   0.026536 0.451013 0.318941 -0.009140
C6    C     C_R   0.973458 0.545458 0.682717 0.056563
C7    C     C_R   0.134145 0.457887 0.333081 -0.157836
C8    C     C_R   0.865798 0.540752 0.667476 -0.110532
C9    C     C_R   0.135192 0.528293 0.572720 -0.096003
C10   C     C_R   0.864861 0.469874 0.428070 -0.100911
C11   C     C_R   0.027663 0.517307 0.565370 0.001537
C12   C     C_R   0.500173 0.737767 0.499587 0.550760
C13   C     C_R   0.972467 0.479578 0.436155 0.005677
C14   C     C_R   0.469329 0.064648 0.376006 -0.125035
C15   C     C_R   0.530725 0.935352 0.623974 -0.122050
C16   C     C_R   0.469432 0.936651 0.375497 -0.097653
C17   C     C_R   0.530644 0.063348 0.624474 -0.094578
C18   C     C_2   0.974274 0.416540 0.178909 0.592216
C19   C     C_2   0.024696 0.578287 0.823507 0.594650
C20   C     C_2   0.368641 0.328102 0.844362 0.607197
C21   C     C_2   0.632016 0.671164 0.155762 0.611305
C22   C     C_R   0.500321 0.871670 0.499384 0.023530
C23   C     C_R   0.499720 0.128330 0.500602 0.023085
C24   C     C_R   0.437582 0.420295 0.068510 0.008134
C25   C     C_R   0.562434 0.579687 0.931496 0.009575
C26   C     C_R   0.437302 0.419482 0.920364 0.176771
C27   C     C_R   0.562799 0.580403 0.079655 0.175599
C28   C     C_R   0.300733 0.499587 0.474126 0.548587
Cu1   Cu    Cu3+1 0.500000 0.500020 0.640660 1.008715
Cu2   Cu    Cu3+1 0.500000 0.499980 0.359340 1.004764
H1    H     H_    0.821068 0.435380 0.334206 0.197585
H2    H     H_    0.612199 0.643296 0.879843 0.130306
H3    H     H_    0.059557 0.263591 0.163837 0.298783
H4    H     H_    0.024710 0.685484 0.994920 0.355887
H5    H     H_    0.226361 0.287320 0.751484 0.343929
H6    H     H_    0.774811 0.710933 0.247614 0.342891
H7    H     H_    0.179039 0.563828 0.665929 0.195362
H8    H     H_    0.823799 0.564656 0.755650 0.182266
H9    H     H_    0.175978 0.435007 0.244411 0.153334
H10   H     H_    0.444530 0.113594 0.279446 0.142249
H11   H     H_    0.555525 0.886406 0.720534 0.145033
H12   H     H_    0.444145 0.888732 0.278965 0.173736
H13   H     H_    0.555978 0.111266 0.720988 0.177671
H14   H     H_    0.387879 0.356619 0.120175 0.124728
N1    N     N_R   0.500030 0.500030 0.852080 -0.273707
N2    N     N_R   0.499970 0.499970 0.147920 -0.273803
O1    O     O_R   0.499990 0.319660 0.618740 -0.476984
O2    O     O_R   0.005012 0.313776 0.106952 -0.627800
O3    O     O_2   0.098241 0.519424 0.876012 -0.469438
O4    O     O_R   0.984796 0.672977 0.899440 -0.670333
O5    O     O_2   0.397831 0.222343 0.832644 -0.538197
O6    O     O_R   0.266989 0.358793 0.799063 -0.656986
O7    O     O_2   0.603201 0.776946 0.168600 -0.535441
O8    O     O_R   0.733752 0.639867 0.199852 -0.657144
O9    O     O_R   0.500010 0.680340 0.381260 -0.478256
O10   O     O_R   0.499990 0.319630 0.381170 -0.519823
O11   O     O_R   0.500010 0.680370 0.618830 -0.520784
O12   O     O_R   0.349000 0.499990 0.599490 -0.473583
O13   O     O_R   0.651000 0.500010 0.400510 -0.471886
O14   O     O_R   0.348990 0.499960 0.361920 -0.515686
O15   O     O_R   0.651010 0.500040 0.638080 -0.512869
O16   O     O_2   0.905751 0.480937 0.122724 -0.429046

loop_
_geom_bond_atom_site_label_1
_geom_bond_atom_site_label_2
_ccdc_geom_bond_type
C14   C23   A    
C6    C8    A    
C17   H13   S    
Cu1   Cu2   S    
C28   O12   A    
C25   C27   A    
C11   C13   A    
Cu2   O9    S    
C19   O3    D    
C5    C13   A    
C2    O15   A    
C24   N2    A    
Cu2   O13   S    
C25   H2    S    
C9    H7    S    
C2    C3    S    
C21   C27   S    
C20   O6    S    
C3    C10   A    
C21   O7    D    
C6    C19   S    
C9    C11   A    
C19   O4    S    
C17   C23   A    
C8    H8    S    
Cu1   O1    S    
C4    C7    A    
C12   O11   A    
C27   N2    A    
C4    C28   S    
C1    O10   A    
Cu1   O11   S    
C1    C23   S    
C20   O5    D    
C14   C16   A    
C28   O14   A    
C21   O8    S    
C24   H14   S    
Cu1   O15   S    
H4    O4    S    
C12   O9    A    
H6    O8    S    
C25   N1    A    
C14   H10   S    
C12   C22   S    
H5    O6    S    
Cu2   O14   S    
Cu1   O12   S    
C15   H11   S    
C15   C17   A    
C3    C8    A    
Cu1   N1    S    
C6    C11   A    
C5    C7    A    
H3    O2    S    
C7    H9    S    
C2    O13   A    
C18   O16   D    
C16   C22   A    
C5    C18   S    
C26   N1    A    
C4    C9    A    
C16   H12   S    
Cu2   O10   S    
C10   H1    S    
Cu2   N2    S    
C15   C22   A    
C1    O1    A    
C24   C26   A    
C20   C26   S    
C10   C13   A    
C18   O2    S    
