data_mof_unit_23135.cif
_audit_creation_date              2012-12-11T14:58:30-0500
_audit_creation_method            fapswitch 2.2
_symmetry_space_group_name_H-M    P1
_symmetry_Int_Tables_number       1
_space_group_crystal_system       triclinic
_cell_length_a                    10.894832
_cell_length_b                    10.971856
_cell_length_c                    18.856655
_cell_angle_alpha                 90.491357
_cell_angle_beta                  90.787064
_cell_angle_gamma                 59.595239
_cell_volume                      1943.87510206

loop_
_atom_site_label
_atom_site_type_symbol
_atom_type_description
_atom_site_fract_x
_atom_site_fract_y
_atom_site_fract_z
_atom_type_partial_charge
C1    C     C_R   0.358749 0.771539 0.396988 0.540595
C2    C     C_R   0.206749 0.390777 0.211406 -0.157352
C3    C     C_R   0.217742 0.419113 0.282531 -0.032205
C4    C     C_R   0.380937 0.350811 0.390216 0.540031
C5    C     C_R   0.888324 0.819560 0.361562 -0.099934
C6    C     C_R   0.929101 0.696548 0.400975 0.003940
C7    C     C_R   0.034544 0.565056 0.374506 -0.049944
C8    C     C_R   0.104604 0.557064 0.311136 0.037942
C9    C     C_R   0.340570 0.320460 0.321080 0.003826
C10   C     C_R   0.860237 0.225892 0.296855 -0.144199
C11   C     C_R   0.881982 0.215377 0.224259 -0.151432
C12   C     C_R   0.578623 0.075026 0.181353 0.055337
C13   C     C_R   0.874960 0.329134 0.186808 0.018920
C14   C     C_R   0.852096 0.449780 0.222896 -0.148652
C15   C     C_R   0.831088 0.460335 0.294481 -0.140940
C16   C     C_R   0.777330 0.379140 0.403020 0.539311
C17   C     C_R   0.833053 0.349578 0.332017 0.022978
C18   C     C_R   0.439261 0.700768 0.275352 -0.117725
C19   C     C_R   0.430848 0.729223 0.203140 -0.163767
C20   C     C_R   0.341420 0.867088 0.179686 0.027722
C21   C     C_R   0.263128 0.976715 0.228296 -0.121225
C22   C     C_R   0.269549 0.947828 0.300288 -0.149612
C23   C     C_R   0.320386 0.277563 0.176450 -0.002602
C24   C     C_R   0.356430 0.809496 0.323581 0.040505
C25   C     C_R   0.413853 0.199084 0.695485 -0.104611
C26   C     C_R   0.425626 0.192645 0.768541 0.004473
C27   C     C_R   0.312367 0.305269 0.808593 0.028386
C28   C     C_R   0.344646 0.768723 0.605015 0.549338
C29   C     C_R   0.205213 0.424771 0.773335 -0.148346
C30   C     C_R   0.212725 0.437571 0.700440 -0.137345
C31   C     C_R   0.320674 0.325493 0.661993 0.010149
C32   C     C_R   0.757130 0.472002 0.730309 -0.124103
C33   C     C_R   0.763891 0.460790 0.802954 -0.129422
C34   C     C_R   0.446377 0.197872 0.287260 -0.147076
C35   C     C_R   0.816775 0.328703 0.834777 0.028481
C36   C     C_R   0.846926 0.210495 0.792655 -0.133069
C37   C     C_R   0.833031 0.223561 0.718922 -0.135352
C38   C     C_R   0.791543 0.354147 0.687420 0.037326
C39   C     C_R   0.197554 0.838674 0.712328 -0.133773
C40   C     C_R   0.367111 0.349214 0.594392 0.543973
C41   C     C_R   0.188630 0.849220 0.785392 -0.134976
C42   C     C_R   0.301894 0.840417 0.825560 0.035760
C43   C     C_R   0.426612 0.814624 0.791876 -0.135275
C44   C     C_R   0.434356 0.807386 0.718568 -0.135420
C45   C     C_R   0.444104 0.182087 0.214949 -0.034395
C46   C     C_R   0.321218 0.816412 0.678370 0.035192
C47   C     C_R   0.916386 0.313225 0.113317 0.530885
C48   C     C_R   0.302511 0.256564 0.101438 0.564716
C49   C     C_R   0.308681 0.898721 0.105323 0.536381
C50   C     C_R   0.879348 0.310346 0.905473 0.548271
C51   C     C_R   0.295781 0.285360 0.883984 0.554039
C52   C     C_R   0.759527 0.379077 0.611835 0.546440
C53   C     C_R   0.276151 0.892653 0.898068 0.549889
C54   C     C_R   0.811457 0.879102 0.101328 -0.115729
C55   C     C_R   0.775116 0.020563 0.102838 -0.121149
C56   C     C_R   0.063783 0.682030 0.273116 -0.090554
C57   C     C_R   0.659944 0.118411 0.143233 -0.067854
C58   C     C_3   0.861809 0.706357 0.471545 -0.252105
C59   C     C_3   0.908785 0.779062 0.526188 -0.304191
C60   C     C_3   0.843335 0.788044 0.598171 -0.457828
C61   C     C_3   0.560505 0.069014 0.802377 -0.229360
C62   C     C_3   0.684689 0.972544 0.753742 -0.338593
C63   C     C_3   0.811567 0.861505 0.796918 -0.466207
C64   C     C_R   0.955353 0.811951 0.297860 -0.113961
C65   C     C_R   0.620231 0.931666 0.182476 -0.081462
C66   C     C_R   0.733565 0.835122 0.140822 -0.106069
Cr1   Cr    Cr6+3 0.601770 0.606860 0.505860 0.980361
Cr2   Cr    Cr6+3 0.291380 0.601660 0.495070 1.003213
Cr3   Cr    Cr6+3 0.606880 0.291510 0.499120 0.999591
Cr4   Cr    Cr6+3 0.062440 0.063090 0.008210 0.983881
Cr5   Cr    Cr6+3 0.062880 0.375170 0.998920 1.001949
Cr6   Cr    Cr6+3 0.374700 0.061720 0.992470 1.009006
H1    H     H_    0.541598 0.120856 0.315393 0.139789
H2    H     H_    0.192826 0.083691 0.209916 0.121075
H3    H     H_    0.758271 0.727289 0.137148 0.110484
H4    H     H_    0.205391 0.031837 0.337234 0.109671
H5    H     H_    0.489804 0.111515 0.663765 0.129854
H6    H     H_    0.118961 0.510001 0.802405 0.125761
H7    H     H_    0.138632 0.536489 0.674874 0.126333
H8    H     H_    0.724398 0.574294 0.707865 0.127822
H9    H     H_    0.739650 0.553831 0.833959 0.121086
H10   H     H_    0.889453 0.107208 0.816197 0.124329
H11   H     H_    0.858463 0.131924 0.686568 0.109050
H12   H     H_    0.805367 0.921457 0.380479 0.104371
H13   H     H_    0.109040 0.843969 0.682734 0.121515
H14   H     H_    0.923864 0.906957 0.267720 0.112806
H15   H     H_    0.091065 0.869360 0.810077 0.120624
H16   H     H_    0.516558 0.803626 0.822214 0.103983
H17   H     H_    0.530399 0.789968 0.693393 0.110841
H18   H     H_    0.898789 0.803941 0.068929 0.109336
H19   H     H_    0.833820 0.054709 0.071097 0.145738
H20   H     H_    0.629692 0.228861 0.142090 0.116334
H21   H     H_    0.116058 0.678971 0.224120 0.120520
H22   H     H_    0.562362 0.895836 0.213621 0.118582
H23   H     H_    0.063851 0.469203 0.403621 0.098327
H24   H     H_    0.110832 0.462653 0.182242 0.141122
H25   H     H_    0.725359 0.849327 0.593903 0.150034
H26   H     H_    0.878035 0.680683 0.618759 0.157165
H27   H     H_    0.878901 0.842426 0.635803 0.133446
H28   H     H_    0.026583 0.718360 0.531889 0.201131
H29   H     H_    0.875894 0.887876 0.508462 0.155470
H30   H     H_    0.744010 0.766263 0.465157 0.155087
H31   H     H_    0.893563 0.599106 0.491374 0.166764
H32   H     H_    0.846030 0.912775 0.837149 0.150338
H33   H     H_    0.782453 0.790558 0.824303 0.149073
H34   H     H_    0.860909 0.139888 0.324958 0.123326
H35   H     H_    0.902280 0.796341 0.761398 0.134358
H36   H     H_    0.651452 0.915352 0.716724 0.148314
H37   H     H_    0.717884 0.036519 0.723048 0.171283
H38   H     H_    0.603164 0.114647 0.841786 0.170511
H39   H     H_    0.531334 0.998470 0.829415 0.185634
H40   H     H_    0.907413 0.117516 0.198004 0.137118
H41   H     H_    0.854046 0.535065 0.196457 0.122589
H42   H     H_    0.805631 0.559479 0.319345 0.150959
H43   H     H_    0.505941 0.592940 0.293525 0.130365
H44   H     H_    0.489602 0.644069 0.165823 0.111832
O1    O     O_R   0.748800 0.497470 0.428000 -0.545679
O2    O     O_R   0.417600 0.174890 0.067840 -0.500444
O3    O     O_R   0.375320 0.946260 0.070860 -0.512582
O4    O     O_R   0.476420 0.724060 0.429470 -0.509298
O5    O     O_R   0.160600 0.919630 0.926660 -0.526301
O6    O     O_R   0.933060 0.190520 0.936020 -0.508683
O7    O     O_R   0.908880 0.403460 0.925020 -0.521143
O8    O     O_R   0.179600 0.361450 0.918490 -0.492294
O9    O     O_R   0.391510 0.170860 0.907530 -0.542103
O10   O     O_R   0.351130 0.942530 0.922260 -0.511440
O11   O     O_3   0.166667 0.166667 0.999870 -0.261558
O12   O     O_R   0.300070 0.471040 0.567100 -0.514002
O13   O     O_R   0.264580 0.744340 0.416750 -0.503888
O14   O     O_R   0.309380 0.472470 0.418200 -0.496284
O15   O     O_R   0.501710 0.260430 0.414300 -0.534736
O16   O     O_R   0.728090 0.305600 0.428960 -0.502732
O17   O     O_R   0.738760 0.495930 0.588610 -0.539093
O18   O     O_R   0.467110 0.722640 0.578360 -0.509329
O19   O     O_R   0.254530 0.742800 0.577360 -0.538283
O20   O     O_R   0.491670 0.258900 0.574910 -0.527078
O21   O     O_R   0.718780 0.304180 0.577850 -0.499608
O22   O     O_3   0.500010 0.500010 0.500020 -0.236493
O23   O     O_R   0.186690 0.923650 0.086970 -0.519254
O24   O     O_R   0.957250 0.194250 0.084630 -0.526929
O25   O     O_R   0.934970 0.407490 0.085330 -0.540175
O26   O     O_R   0.203780 0.365190 0.067090 -0.509736

loop_
_geom_bond_atom_site_label_1
_geom_bond_atom_site_label_2
_ccdc_geom_bond_type
Cr4   O11   S    
C25   C31   A    
C4    C9    S    
Cr4   O24   S    
C23   C45   A    
C57   H20   S    
C27   C29   A    
C28   O19   A    
C41   C42   A    
C6    C58   S    
Cr2   O22   S    
C35   C36   A    
C50   O6    A    
C22   H4    S    
C60   H27   S    
C8    C56   A    
C7    C8    A    
C39   C41   A    
C49   O3    A    
C40   O20   A    
C28   C46   S    
C26   C27   A    
C37   C38   A    
C28   O18   A    
C43   H16   S    
Cr5   O7    S    
C36   C37   A    
Cr1   O17   S    
C26   C61   S    
C54   H18   S    
C1    O13   A    
C42   C53   S    
C30   C31   A    
C38   C52   S    
C10   C17   A    
C40   O12   A    
C31   C40   S    
C18   C19   A    
Cr1   O22   S    
C25   H5    S    
C55   H19   S    
C33   C35   A    
C29   H6    S    
C19   C20   A    
C36   H10   S    
C16   C17   S    
C47   O24   A    
C56   C64   A    
C58   H30   S    
C32   C38   A    
C63   H33   S    
C29   C30   A    
Cr1   O4    S    
Cr2   O12   S    
C51   O8    A    
Cr5   O25   S    
C59   C60   S    
C13   C14   A    
C52   O17   A    
Cr5   O11   S    
C61   C62   S    
C61   H38   S    
C63   H35   S    
C64   H14   S    
C44   C46   A    
C4    O15   A    
Cr3   O21   S    
C56   H21   S    
C41   H15   S    
Cr6   O11   S    
C51   O9    A    
Cr5   O8    S    
Cr1   O18   S    
C3    C8    S    
C53   O10   A    
C13   C47   S    
C5    H12   S    
C63   H32   S    
C48   O2    A    
C25   C26   A    
C21   H2    S    
C5    C64   A    
Cr6   O10   S    
C1    O4    A    
C59   H29   S    
C43   C44   A    
C20   C49   S    
C3    C9    A    
C32   H8    S    
Cr4   O6    S    
Cr3   O15   S    
C35   C50   S    
C52   O21   A    
C15   H42   S    
C48   O26   A    
C34   C45   A    
Cr2   O14   S    
Cr1   O1    S    
C39   C46   A    
C12   C57   A    
C65   H22   S    
C60   H25   S    
Cr3   O20   S    
C49   O23   A    
C9    C34   A    
C18   C24   A    
C10   H34   S    
C42   C43   A    
C30   H7    S    
Cr5   O26   S    
C61   H39   S    
Cr3   O22   S    
C15   C17   A    
C54   C55   A    
C23   C48   S    
C11   H40   S    
Cr2   O19   S    
C50   O7    A    
C12   C45   S    
C18   H43   S    
C4    O14   A    
C6    C7    A    
C54   C66   A    
C14   H41   S    
C7    H23   S    
C12   C65   A    
C47   O25   A    
C60   H26   S    
Cr6   O9    S    
C32   C33   A    
C55   C57   A    
C2    C3    A    
C58   C59   S    
C53   O5    A    
C16   O1    A    
C11   C13   A    
Cr4   O5    S    
C5    C6    A    
C62   H37   S    
C19   H44   S    
Cr3   O16   S    
C59   H28   S    
C66   H3    S    
Cr6   O3    S    
C2    H24   S    
C27   C51   S    
C22   C24   A    
Cr2   O13   S    
C16   O16   A    
C10   C11   A    
C34   H1    S    
Cr4   O23   S    
C62   H36   S    
C20   C21   A    
C1    C24   S    
C65   C66   A    
Cr6   O2    S    
C2    C23   A    
C39   H13   S    
C14   C15   A    
C37   H11   S    
C58   H31   S    
C62   C63   S    
C21   C22   A    
C33   H9    S    
C44   H17   S    
