data_mof_unit_45023.cif
_audit_creation_date              2012-12-11T17:23:06-0500
_audit_creation_method            fapswitch 2.2
_symmetry_space_group_name_H-M    P1
_symmetry_Int_Tables_number       1
_space_group_crystal_system       triclinic
_cell_length_a                    22.546669
_cell_length_b                    7.076232
_cell_length_c                    19.386257
_cell_angle_alpha                 89.964119
_cell_angle_beta                  99.062352
_cell_angle_gamma                 89.961448
_cell_volume                      3054.37958423

loop_
_atom_site_label
_atom_site_type_symbol
_atom_type_description
_atom_site_fract_x
_atom_site_fract_y
_atom_site_fract_z
_atom_type_partial_charge
O1    O     O_R   0.443980 0.494320 0.557430 -0.540682
O2    O     O_R   0.556020 0.994320 0.442570 -0.537461
O3    O     O_R   0.441210 0.822520 0.414610 -0.540292
O4    O     O_R   0.558790 0.322520 0.585390 -0.540824
C1    C     C_R   0.425737 0.654908 0.389666 0.804050
C2    C     C_R   0.574148 0.154608 0.610433 0.801206
O5    O     O_R   0.436920 0.823940 0.555180 -0.532690
O6    O     O_R   0.563080 0.323940 0.444820 -0.533822
O7    O     O_R   0.551700 0.995760 0.584140 -0.532021
O8    O     O_R   0.448300 0.495760 0.415860 -0.534537
C3    C     C_R   0.422247 0.655313 0.575788 0.691413
C4    C     C_R   0.577789 0.155238 0.424267 0.688511
O9    O     O_3   0.537660 0.661290 0.509340 -0.373039
O10   O     O_3   0.462340 0.161290 0.490660 -0.374982
V1    V     V_3+5 0.493010 0.935560 0.498270 1.455072
V2    V     V_3+5 0.506990 0.435560 0.501730 1.450774
C5    C     C_R   0.746852 0.954250 0.200582 0.417614
C6    C     C_R   0.252956 0.457316 0.799653 0.418243
C7    C     C_R   0.795499 0.082661 0.207341 -0.097318
C8    C     C_R   0.204467 0.585572 0.792634 -0.099411
C9    C     C_R   0.801144 0.218279 0.260680 -0.342868
C10   C     C_R   0.198414 0.719309 0.738628 -0.350394
H1    H     H_    0.838346 0.316901 0.266320 0.157709
H2    H     H_    0.161102 0.817733 0.732687 0.158485
C11   C     C_R   0.758737 0.230262 0.306701 0.407783
C12   C     C_R   0.240685 0.729856 0.692398 0.414194
C13   C     C_R   0.708372 0.110109 0.297710 -0.135317
C14   C     C_R   0.290986 0.609014 0.701391 -0.137249
C15   C     C_R   0.703349 0.968854 0.245622 0.333428
C16   C     C_R   0.295904 0.467846 0.753839 0.337433
C17   C     C_1   0.839628 0.077616 0.159897 0.038054
C18   C     C_1   0.160330 0.578957 0.840055 0.047464
C19   C     C_1   0.662275 0.130011 0.342468 0.086562
C20   C     C_1   0.337271 0.630081 0.656932 0.081188
C21   C     C_1   0.623855 0.144004 0.379756 -0.186377
C22   C     C_1   0.375929 0.644341 0.619964 -0.192594
C23   C     C_1   0.876880 0.071205 0.120957 -0.185933
C24   C     C_1   0.123113 0.571398 0.879009 -0.175369
C25   C     C_R   0.629170 0.041756 0.798779 0.416863
C26   C     C_R   0.371238 0.556986 0.200090 0.415305
C27   C     C_R   0.616586 0.138880 0.677053 -0.294145
C28   C     C_R   0.383270 0.640883 0.323035 -0.293983
C29   C     C_R   0.911048 0.089443 0.762026 0.350194
C30   C     C_R   0.089098 0.582552 0.238084 0.349266
C31   C     C_R   0.875060 0.103691 0.696754 0.402069
C32   C     C_R   0.125142 0.593086 0.303428 0.401800
C33   C     C_R   0.812667 0.094725 0.691552 -0.229896
C34   C     C_R   0.187544 0.585981 0.308448 -0.228076
C35   C     C_R   0.783537 0.092904 0.750836 0.028503
C36   C     C_R   0.216587 0.590290 0.249101 0.028183
C37   C     C_R   0.820245 0.064183 0.817340 -0.161507
C38   C     C_R   0.179901 0.564925 0.182445 -0.161572
C39   C     C_R   0.718959 0.103031 0.744828 -0.078725
C40   C     C_R   0.281104 0.603638 0.255050 -0.078088
C41   C     C_R   0.692325 0.060211 0.804891 -0.265173
C42   C     C_R   0.307884 0.568400 0.194459 -0.264138
C43   C     C_R   0.729058 0.035701 0.870361 0.412016
C44   C     C_R   0.271078 0.545195 0.128936 0.412376
C45   C     C_R   0.791669 0.023140 0.875566 0.322057
C46   C     C_R   0.208546 0.528794 0.123905 0.321493
C47   C     C_R   0.680198 0.157426 0.681561 0.374995
C48   C     C_R   0.319585 0.654892 0.318814 0.373779
C49   C     C_R   0.592055 0.085682 0.736127 0.285540
C50   C     C_R   0.408106 0.598627 0.263148 0.285528
C51   C     C_R   0.884476 0.071622 0.822672 -0.239265
C52   C     C_R   0.115645 0.570227 0.177258 -0.238159
H3    H     H_    0.788394 0.077727 0.639938 0.181428
H4    H     H_    0.211928 0.565934 0.359881 0.181743
O11   O     O_R   0.051730 0.724670 0.084120 -0.537949
O12   O     O_R   0.948270 0.224670 0.915880 -0.537930
O13   O     O_R   0.063080 0.393540 0.944820 -0.530541
O14   O     O_R   0.936920 0.893540 0.055180 -0.532157
C53   C     C_R   0.077993 0.562150 0.924632 0.765871
C54   C     C_R   0.921995 0.062155 0.075341 0.765784
O15   O     O_R   0.058800 0.395030 0.085390 -0.542950
O16   O     O_R   0.941200 0.895030 0.914610 -0.542161
O17   O     O_R   0.943980 0.223310 0.057440 -0.544979
O18   O     O_R   0.056020 0.723310 0.942560 -0.545163
C55   C     C_R   0.074011 0.563566 0.110120 0.875135
C56   C     C_R   0.926042 0.063797 0.889844 0.874808
O19   O     O_3   0.962360 0.556290 0.990650 -0.388642
O20   O     O_3   0.037640 0.056290 0.009350 -0.387512
V3    V     V_3+5 0.006980 0.281990 0.001730 1.428327
V4    V     V_3+5 0.993020 0.781990 0.998270 1.426357
O21   O     O_3   0.653966 0.850469 0.235786 -0.541482
C57   C     C_3   0.667680 0.687848 0.277388 -0.154628
H5    H     H_    0.677525 0.723833 0.333918 0.134635
H6    H     H_    0.705729 0.608259 0.261453 0.167581
H7    H     H_    0.628262 0.592188 0.269811 0.165401
O22   O     O_3   0.343704 0.342657 0.763236 -0.537048
C58   C     C_3   0.335835 0.206314 0.709210 -0.211172
H8    H     H_    0.360693 0.249287 0.666703 0.145290
H9    H     H_    0.287950 0.179300 0.686878 0.155254
H10   H     H_    0.355172 0.070289 0.730644 0.178185
O23   O     O_3   0.901689 0.111082 0.637224 -0.547916
C59   C     C_3   0.892982 0.293051 0.607612 -0.216819
H11   H     H_    0.911513 0.404448 0.645541 0.145613
H12   H     H_    0.844734 0.320754 0.587863 0.129862
H13   H     H_    0.917431 0.301768 0.562334 0.155511
O24   O     O_3   0.098646 0.595283 0.363094 -0.548312
C60   C     C_3   0.106347 0.776100 0.393743 -0.217411
H14   H     H_    0.086674 0.888168 0.356658 0.146825
H15   H     H_    0.154501 0.806392 0.413022 0.130363
H16   H     H_    0.082356 0.780323 0.439475 0.155134
O25   O     O_3   0.824197 0.964310 0.938444 -0.564272
C61   C     C_3   0.818223 0.765863 0.943500 -0.144922
H17   H     H_    0.836064 0.692278 0.900325 0.111972
H18   H     H_    0.770931 0.722510 0.944181 0.144105
H19   H     H_    0.844500 0.717014 0.993429 0.158748
O26   O     O_3   0.176204 0.470780 0.060865 -0.564413
C62   C     C_3   0.183076 0.272826 0.055147 -0.143701
H20   H     H_    0.165059 0.196955 0.097717 0.110750
H21   H     H_    0.230647 0.231495 0.054994 0.143122
H22   H     H_    0.157491 0.224688 0.004758 0.162645
O27   O     O_3   0.738009 0.822542 0.147041 -0.522346
C63   C     C_3   0.781264 0.676588 0.159855 -0.195502
H23   H     H_    0.799326 0.654562 0.216261 0.107650
H24   H     H_    0.818871 0.704202 0.130599 0.146333
H25   H     H_    0.759947 0.542005 0.139814 0.157874
O28   O     O_3   0.261460 0.330657 0.854754 -0.521429
C64   C     C_3   0.228960 0.164242 0.834477 -0.174398
H26   H     H_    0.247059 0.091342 0.791541 0.149890
H27   H     H_    0.180133 0.192645 0.818887 0.117883
H28   H     H_    0.233903 0.066240 0.879724 0.150376
O29   O     O_3   0.764136 0.369126 0.357442 -0.555919
C65   C     C_3   0.808416 0.313050 0.413346 -0.250029
H29   H     H_    0.853665 0.308271 0.397357 0.143080
H30   H     H_    0.797358 0.174061 0.435154 0.134434
H31   H     H_    0.810100 0.419109 0.455715 0.156963
O30   O     O_3   0.234911 0.867068 0.641016 -0.556530
C66   C     C_3   0.191186 0.807714 0.585137 -0.253267
H32   H     H_    0.145883 0.800497 0.600903 0.143124
H33   H     H_    0.203224 0.669053 0.563924 0.134717
H34   H     H_    0.188987 0.913066 0.542422 0.157916
O31   O     O_3   0.530433 0.072052 0.732566 -0.546219
C67   C     C_3   0.509002 0.246649 0.753728 -0.169525
H35   H     H_    0.515593 0.361294 0.716356 0.111243
H36   H     H_    0.530459 0.285696 0.807540 0.151441
H37   H     H_    0.460238 0.233765 0.754455 0.193665
O32   O     O_3   0.469837 0.596011 0.266177 -0.546878
C68   C     C_3   0.488109 0.777254 0.247509 -0.170278
H38   H     H_    0.475147 0.888681 0.282851 0.108152
H39   H     H_    0.469642 0.811392 0.192244 0.156467
H40   H     H_    0.537653 0.779258 0.252562 0.191350
O33   O     O_3   0.703973 0.014202 0.930650 -0.518596
C69   C     C_3   0.705690 0.190287 0.964977 -0.075952
H41   H     H_    0.680139 0.299779 0.931207 0.098260
H42   H     H_    0.752694 0.237936 0.982422 0.112920
H43   H     H_    0.684133 0.174424 0.012293 0.172123
O34   O     O_3   0.296048 0.528437 0.068385 -0.518029
C70   C     C_3   0.292656 0.705699 0.034639 -0.074647
H44   H     H_    0.317233 0.816171 0.068728 0.098726
H45   H     H_    0.245225 0.749660 0.017426 0.111936
H46   H     H_    0.314271 0.693811 0.987225 0.171094
O35   O     O_3   0.602359 0.981360 0.854390 -0.513816
C71   C     C_3   0.595900 0.783108 0.850184 -0.080873
H47   H     H_    0.575679 0.733781 0.895574 0.159069
H48   H     H_    0.640164 0.711346 0.852633 0.102238
H49   H     H_    0.565266 0.740254 0.801999 0.121392
O36   O     O_3   0.398439 0.507098 0.143534 -0.514892
C72   C     C_3   0.408102 0.309930 0.145617 -0.080514
H50   H     H_    0.428436 0.268774 0.099323 0.160881
H51   H     H_    0.365117 0.230875 0.143132 0.102997
H52   H     H_    0.439941 0.267636 0.192953 0.120932
O37   O     O_3   0.703998 0.266997 0.632936 -0.549007
C73   C     C_3   0.692147 0.190376 0.564864 -0.270909
H53   H     H_    0.657405 0.276848 0.533047 0.165646
H54   H     H_    0.679485 0.037913 0.563026 0.108033
H55   H     H_    0.733001 0.204471 0.540026 0.146501
O38   O     O_3   0.295205 0.759445 0.368295 -0.549330
C74   C     C_3   0.307785 0.679461 0.435794 -0.271544
H56   H     H_    0.342136 0.766339 0.467898 0.163272
H57   H     H_    0.321333 0.527764 0.436543 0.109630
H58   H     H_    0.266993 0.689396 0.460948 0.147348
O39   O     O_3   0.972888 0.101547 0.766958 -0.549853
C75   C     C_3   0.995892 0.920010 0.756601 -0.206525
H59   H     H_    0.980653 0.869143 0.702452 0.166909
H60   H     H_    0.983489 0.815834 0.794921 0.114458
H61   H     H_    0.045642 0.928272 0.764433 0.145736
O40   O     O_3   0.027226 0.592805 0.233301 -0.550547
C76   C     C_3   0.004754 0.410147 0.242872 -0.205815
H62   H     H_    0.019785 0.358194 0.296943 0.168069
H63   H     H_    0.017810 0.307507 0.204447 0.115150
H64   H     H_    0.954970 0.416913 0.234576 0.145677

loop_
_geom_bond_atom_site_label_1
_geom_bond_atom_site_label_2
_ccdc_geom_bond_type
C74   H56   S    
O37   C73   S    
C43   O33   S    
C13   C15   A    
C5    C15   A    
C30   C52   A    
C62   H20   S    
O1    C3    A    
C27   C47   A    
C16   O22   S    
C66   H34   S    
C7    C17   S    
C30   O40   S    
C23   C54   S    
C72   H50   S    
O3    V1    S    
O31   C67   S    
C33   C35   A    
O21   C57   S    
C13   C19   S    
O5    C3    A    
C52   C55   S    
C74   H57   S    
C45   O25   S    
C71   H47   S    
C7    C9    A    
C47   O37   S    
C68   H39   S    
C50   O32   S    
C57   H6    S    
C43   C45   A    
C61   H17   S    
O17   V3    S    
C44   C46   A    
O27   C63   S    
C59   H13   S    
C63   H23   S    
C37   C51   A    
C70   H46   S    
C11   O29   S    
O26   C62   S    
C64   H28   S    
C9    C11   A    
C38   C46   A    
C72   H51   S    
C39   C47   A    
C75   H61   S    
C25   C41   A    
O23   C59   S    
C42   C44   A    
C26   C42   A    
C54   O17   A    
C59   H12   S    
C36   C38   A    
C70   H44   S    
C6    C16   A    
C18   C24   T    
C28   C48   A    
C6    C8    A    
C12   O30   S    
C29   C51   A    
O3    C1    A    
C34   C36   A    
O2    C4    A    
C60   H15   S    
C51   C56   S    
C73   H54   S    
O16   V4    S    
C29   O39   S    
C2    O7    A    
C67   H37   S    
C33   H3    S    
C72   H52   S    
O19   V3    S    
C30   C32   A    
O33   C69   S    
C69   H42   S    
C39   C41   A    
C48   O38   S    
C74   H58   S    
C40   C42   A    
O12   C56   A    
C60   H14   S    
O32   C68   S    
O14   C54   A    
C68   H40   S    
C58   H8    S    
O13   C53   A    
C57   H5    S    
C5    C7    A    
O5    V1    S    
C40   C48   A    
C65   H31   S    
C35   C37   A    
C76   H62   S    
C53   O18   A    
C2    C27   S    
C17   C23   T    
C25   O35   S    
C49   O31   S    
O4    V2    S    
C41   C43   A    
O12   V3    S    
C58   H9    S    
C69   H43   S    
O39   C75   S    
O10   V1    S    
O6    C4    A    
C59   H11   S    
C62   H21   S    
O1    V2    S    
C36   C40   A    
C34   H4    S    
C4    C21   S    
O2    V1    S    
C29   C31   A    
C64   H26   S    
O14   V4    S    
C67   H36   S    
C75   H59   S    
C8    C10   A    
C60   H16   S    
O20   V4    S    
C9    H1    S    
C10   C12   A    
O29   C65   S    
C10   H2    S    
O11   C55   A    
O4    C2    A    
C37   C45   A    
C27   C49   A    
C66   H32   S    
C31   O23   S    
C6    O28   S    
O19   V4    S    
C38   C52   A    
O40   C76   S    
C5    O27   S    
C1    C28   S    
C69   H41   S    
C8    C18   S    
C76   H64   S    
C32   O24   S    
C3    C22   S    
C65   H30   S    
O34   C70   S    
C15   O21   S    
C26   O36   S    
C71   H49   S    
O16   C56   A    
C67   H35   S    
C66   H33   S    
C57   H7    S    
C28   C50   A    
C11   C13   A    
C25   C49   A    
O25   C61   S    
C12   C14   A    
C26   C50   A    
C63   H25   S    
O36   C72   S    
C71   H48   S    
O30   C66   S    
O7    V1    S    
C14   C16   A    
O11   V4    S    
O8    V2    S    
C68   H38   S    
C58   H10   S    
O15   V3    S    
O22   C58   S    
C73   H53   S    
C61   H18   S    
C65   H29   S    
C35   C39   A    
C75   H60   S    
O24   C60   S    
C19   C21   T    
C63   H24   S    
C62   H22   S    
C20   C22   T    
C70   H45   S    
C64   H27   S    
C46   O26   S    
C14   C20   S    
C32   C34   A    
O18   V4    S    
C1    O8    A    
C31   C33   A    
C73   H55   S    
O6    V2    S    
O20   V3    S    
O38   C74   S    
O9    V2    S    
O35   C71   S    
O28   C64   S    
O13   V3    S    
O15   C55   A    
C61   H19   S    
C44   O34   S    
C76   H63   S    
C24   C53   S    
