data_mof_unit_55450.cif
_audit_creation_date              2012-12-10T17:46:15-0500
_audit_creation_method            fapswitch 2.2
_symmetry_space_group_name_H-M    P1
_symmetry_Int_Tables_number       1
_space_group_crystal_system       triclinic
_cell_length_a                    14.14594
_cell_length_b                    10.63317
_cell_length_c                    9.944089
_cell_angle_alpha                 90.104302
_cell_angle_beta                  90.153785
_cell_angle_gamma                 91.510323
_cell_volume                      1495.22423183

loop_
_atom_site_label
_atom_site_type_symbol
_atom_type_description
_atom_site_fract_x
_atom_site_fract_y
_atom_site_fract_z
_atom_type_partial_charge
C1    C     C_R   0.500645 0.260849 0.499969 0.854976
C2    C     C_R   0.419438 0.063504 0.480001 -0.231552
C3    C     C_R   0.417784 0.934383 0.480152 -0.014811
C4    C     C_R   0.329328 0.499558 0.499878 0.874920
C5    C     C_R   0.502863 0.872005 0.499205 -0.139714
C6    C     C_R   0.376335 0.335209 0.138938 -0.248938
C7    C     C_R   0.315650 0.253590 0.068620 0.652646
C8    C     C_R   0.315580 0.253617 0.929424 -0.274818
C9    C     C_R   0.376183 0.335134 0.859665 -0.241741
C10   C     C_R   0.439018 0.418913 0.927391 0.156066
C11   C     C_R   0.439085 0.418929 0.071801 0.088850
C12   C     C_1   0.772189 0.501531 0.500387 -0.201792
C13   C     C_R   0.558611 0.577105 0.072378 -0.122604
C14   C     C_R   0.558938 0.577105 0.929538 0.016802
C15   C     C_R   0.499949 0.739201 0.499911 0.870725
C16   C     C_R   0.670673 0.500774 0.500120 0.858077
C17   C     C_1   0.227826 0.499740 0.499623 -0.165287
C18   C     C_1   0.142557 0.500359 0.499630 0.024466
C19   C     C_1   0.042656 0.501325 0.499805 0.037609
C20   C     C_1   0.957387 0.501937 0.500027 0.037294
C21   C     C_1   0.857467 0.501985 0.500308 0.008690
C22   C     C_1   0.624310 0.660501 0.861388 0.244095
C23   C     C_R   0.677555 0.136135 0.536879 -0.205198
C24   C     C_1   0.849929 0.141927 0.571756 0.168644
C25   C     C_1   0.328178 0.867822 0.461053 0.206006
C26   C     C_R   0.762205 0.072577 0.551871 0.057561
C27   C     C_R   0.761618 0.941491 0.547170 -0.154604
C28   C     C_R   0.676702 0.874037 0.528910 -0.165683
C29   C     C_R   0.590328 0.936978 0.515846 0.076360
C30   C     C_R   0.591018 0.068636 0.518082 0.082951
C31   C     C_R   0.504586 0.128885 0.499888 -0.091102
F1    F     F_    0.256439 0.173953 0.136342 -0.657126
H1    H     H_    0.354300 0.113728 0.465527 0.157461
H2    H     H_    0.268218 0.190108 0.874809 0.186809
H3    H     H_    0.371571 0.329378 0.753021 0.224425
H4    H     H_    0.679883 0.237844 0.539806 0.130839
H5    H     H_    0.826851 0.891188 0.557756 0.151974
H6    H     H_    0.679399 0.772580 0.525102 0.134467
H7    H     H_    0.606368 0.639856 0.127316 0.148594
H8    H     H_    0.371936 0.329787 0.245554 0.217312
N1    N     N_R   0.499190 0.498800 0.142780 -0.100338
N2    N     N_R   0.499160 0.498720 0.857170 -0.122843
N3    N     N_1   0.677474 0.727841 0.807732 -0.208563
N4    N     N_1   0.920542 0.197380 0.587883 -0.184406
N5    N     N_1   0.256464 0.814798 0.445699 -0.185694
O1    O     O_R   0.500000 0.316780 0.614690 -0.627558
O2    O     O_R   0.499990 0.316750 0.385360 -0.619518
O3    O     O_R   0.373720 0.500010 0.614690 -0.614679
O4    O     O_R   0.373710 0.499990 0.385360 -0.606023
O5    O     O_R   0.500010 0.683250 0.614640 -0.600863
O6    O     O_R   0.500000 0.683220 0.385310 -0.602977
O7    O     O_R   0.626290 0.500010 0.614640 -0.592613
O8    O     O_R   0.626280 0.499990 0.385310 -0.592424
Zn1   Zn    Zn3+2 0.500010 0.500020 0.653130 0.951966
Zn2   Zn    Zn3+2 0.499990 0.499980 0.346870 0.952884

loop_
_geom_bond_atom_site_label_1
_geom_bond_atom_site_label_2
_ccdc_geom_bond_type
C8    C9    A    
C16   O7    A    
C6    C7    A    
C15   O6    A    
C10   N2    A    
C29   C30   A    
C9    C10   A    
C5    C29   A    
C22   N3    T    
C28   H6    S    
C4    O4    A    
C14   N2    A    
O1    Zn1   S    
C13   N1    A    
C17   C18   T    
C7    C8    A    
C8    H2    S    
C13   C14   A    
N2    Zn1   S    
O3    Zn1   S    
C14   C22   S    
C26   C27   A    
O5    Zn1   S    
C27   H5    S    
C4    C17   S    
C2    H1    S    
C28   C29   A    
C24   C26   S    
C11   N1    A    
O6    Zn2   S    
O8    Zn2   S    
C30   C31   A    
C24   N4    T    
C6    H8    S    
C1    O1    A    
C13   H7    S    
C5    C15   S    
C10   C11   A    
C25   N5    T    
C9    H3    S    
C23   H4    S    
C23   C30   A    
C12   C16   S    
C1    C31   S    
C3    C25   S    
C20   C21   S    
O2    Zn2   S    
C18   C19   S    
C4    O3    A    
C15   O5    A    
C6    C11   A    
C23   C26   A    
C16   O8    A    
C1    O2    A    
C2    C3    A    
C7    F1    S    
C3    C5    A    
O4    Zn2   S    
C12   C21   T    
N1    Zn2   S    
C19   C20   T    
O7    Zn1   S    
C2    C31   A    
C27   C28   A    
