data_mof_unit_11580.cif
_audit_creation_date              2012-12-10T17:37:21-0500
_audit_creation_method            fapswitch 2.2
_symmetry_space_group_name_H-M    P1
_symmetry_Int_Tables_number       1
_space_group_crystal_system       triclinic
_cell_length_a                    11.961451
_cell_length_b                    12.901034
_cell_length_c                    16.92008
_cell_angle_alpha                 90.406497
_cell_angle_beta                  81.129471
_cell_angle_gamma                 93.247489
_cell_volume                      2575.64765036

loop_
_atom_site_label
_atom_site_type_symbol
_atom_type_description
_atom_site_fract_x
_atom_site_fract_y
_atom_site_fract_z
_atom_type_partial_charge
C1    C     C_R   0.522181 0.700571 0.498308 0.949430
C2    C     C_R   0.562700 0.132916 0.482866 -0.121666
C3    C     C_R   0.445874 0.974121 0.493985 -0.011592
C4    C     C_R   0.555491 0.025884 0.483431 -0.008331
C5    C     C_R   0.964660 0.406926 0.421076 0.385510
C6    C     C_R   0.035544 0.593784 0.578400 0.397835
C7    C     C_R   0.846717 0.415502 0.430217 -0.029786
C8    C     C_R   0.153384 0.584831 0.569527 -0.042964
C9    C     C_R   0.852804 0.539424 0.533537 0.098377
C10   C     C_R   0.147245 0.460635 0.466407 0.083393
C11   C     C_R   0.971677 0.534042 0.528440 -0.117446
C12   C     C_R   0.478091 0.299552 0.498675 0.946258
C13   C     C_R   0.028456 0.466397 0.471224 -0.115358
C14   C     C_R   0.483682 0.494763 0.653463 0.916500
C15   C     C_R   0.515777 0.501336 0.346517 0.937427
C16   C     C_R   0.468296 0.472645 0.738703 -0.161099
C17   C     C_R   0.523908 0.493191 0.260742 -0.181153
C18   C     C_R   0.525555 0.393252 0.770938 0.386552
C19   C     C_R   0.455692 0.550596 0.218144 0.432906
C20   C     C_R   0.497682 0.370229 0.851892 -0.220157
C21   C     C_R   0.450998 0.524961 0.138856 -0.191611
C22   C     C_R   0.419689 0.427769 0.901465 0.119210
C23   C     C_R   0.465175 0.188390 0.494251 -0.131643
C24   C     C_R   0.513887 0.444406 0.102165 0.094387
C25   C     C_R   0.360108 0.502452 0.869114 -0.117772
C26   C     C_R   0.588073 0.393987 0.142746 -0.117233
C27   C     C_R   0.383892 0.524404 0.788021 -0.218655
C28   C     C_R   0.592667 0.417881 0.222074 -0.226396
C29   C     C_2   0.413359 0.423004 0.987962 -0.178123
C30   C     C_2   0.508905 0.417194 0.019375 -0.175081
C31   C     C_R   0.535720 0.811826 0.493513 -0.132037
C32   C     C_R   0.654885 0.969254 0.475583 0.393824
C33   C     C_R   0.346523 0.030710 0.500732 0.402703
C34   C     C_R   0.643268 0.861951 0.481358 -0.246403
C35   C     C_R   0.357883 0.138173 0.501412 -0.252903
C36   C     C_R   0.438446 0.867303 0.498912 -0.128076
H1    H     H_    0.730086 0.266627 0.800107 0.361692
H2    H     H_    0.334727 0.441751 0.025216 0.168691
H3    H     H_    0.299360 0.547251 0.907153 0.164621
H4    H     H_    0.639431 0.333866 0.113818 0.167018
H5    H     H_    0.399232 0.568616 0.105473 0.193802
H6    H     H_    0.539346 0.309250 0.877436 0.177791
H7    H     H_    0.644486 0.174380 0.475717 0.231336
H8    H     H_    0.356471 0.826131 0.508078 0.231976
H9    H     H_    0.283181 0.182967 0.508362 0.204505
H10   H     H_    0.717912 0.817201 0.476135 0.210404
H11   H     H_    0.906178 0.922323 0.500304 0.407135
H12   H     H_    0.306374 0.789814 0.216279 0.409836
H13   H     H_    0.095802 0.086075 0.565649 0.369525
H14   H     H_    0.194079 0.409291 0.424692 0.196339
H15   H     H_    0.805869 0.590175 0.575699 0.200610
H16   H     H_    0.203761 0.629689 0.606842 0.178152
H17   H     H_    0.796371 0.370642 0.392873 0.172700
H18   H     H_    0.172966 0.337179 0.251826 0.386046
H19   H     H_    0.868275 0.810920 0.653133 0.396726
H20   H     H_    0.645889 0.374034 0.254317 0.187906
H21   H     H_    0.337837 0.583617 0.763895 0.185349
H22   H     H_    0.588374 0.400044 0.982544 0.163732
N1    N     N_R   0.206400 0.519440 0.514690 -0.146640
N2    N     N_R   0.793600 0.480560 0.485310 -0.143736
O1    O     O_R   0.421320 0.658850 0.503920 -0.604349
O2    O     O_2   0.728445 0.385763 0.676595 -0.268080
O3    O     O_3   0.674370 0.228240 0.771545 -0.507333
O4    O     O_2   0.267199 0.613977 0.306961 -0.238826
O5    O     O_2   0.444057 0.716410 0.315738 -0.302810
O6    O     O_3   0.351148 0.734714 0.187927 -0.535464
O7    O     O_2   0.079373 0.236654 0.385379 -0.230065
O8    O     O_2   0.942866 0.277567 0.297486 -0.243341
O9    O     O_3   0.131602 0.390285 0.285325 -0.544653
O10   O     O_2   0.886191 0.617837 0.711169 -0.285927
O11   O     O_2   0.059366 0.731600 0.696382 -0.248637
O12   O     O_R   0.578680 0.341150 0.496080 -0.594540
O13   O     O_3   0.906148 0.769197 0.608529 -0.560179
O14   O     O_2   0.808264 0.094048 0.383989 -0.211716
O15   O     O_2   0.813129 0.096850 0.527917 -0.258665
O16   O     O_3   0.892407 0.938788 0.445690 -0.443753
O17   O     O_2   0.199878 0.899754 0.439583 -0.204528
O18   O     O_2   0.181506 0.909176 0.585343 -0.278825
O19   O     O_3   0.110107 0.060829 0.509773 -0.449868
O20   O     O_R   0.609840 0.646370 0.494500 -0.632057
O21   O     O_R   0.390160 0.353630 0.505500 -0.641244
O22   O     O_R   0.394600 0.506990 0.621070 -0.636693
O23   O     O_R   0.605400 0.493010 0.378930 -0.635810
O24   O     O_R   0.583120 0.494520 0.611640 -0.558022
O25   O     O_R   0.416880 0.505480 0.388360 -0.569663
O26   O     O_2   0.576372 0.261893 0.649378 -0.270079
S1    S     S_3+6 0.628447 0.317602 0.713970 0.067223
S2    S     S_3+6 0.377769 0.655678 0.260615 0.064753
S3    S     S_3+6 0.028650 0.322970 0.346154 0.063091
S4    S     S_3+6 0.971849 0.678877 0.652545 0.048280
S5    S     S_3+6 0.794369 0.028466 0.458264 0.089625
S6    S     S_3+6 0.207316 0.971374 0.509260 0.070433
Zn1   Zn    Zn3+2 0.374120 0.508330 0.506290 1.021585
Zn2   Zn    Zn3+2 0.625880 0.491670 0.493710 1.035799

loop_
_geom_bond_atom_site_label_1
_geom_bond_atom_site_label_2
_ccdc_geom_bond_type
O17   S6    D    
C22   C29   S    
C9    H15   S    
C14   O24   A    
C28   H20   S    
C10   H14   S    
H18   O9    S    
C12   C23   S    
C6    C8    A    
C19   C21   A    
C24   C26   A    
H11   O16   S    
C8    N1    A    
O6    S2    S    
O1    Zn1   S    
C32   S5    S    
C3    C33   A    
C1    C31   S    
C17   C19   A    
O25   Zn1   S    
C22   C25   A    
C29   H2    S    
C34   H10   S    
C8    H16   S    
C5    C13   A    
O15   S5    D    
C15   O25   A    
O12   Zn2   S    
C16   C27   A    
C12   O12   A    
O22   Zn1   S    
O10   S4    D    
O9    S3    S    
H1    O3    S    
C19   S2    S    
C27   H21   S    
C33   S6    S    
C6    C11   A    
C5    C7    A    
O26   S1    D    
C15   O23   A    
O18   S6    D    
C6    S4    S    
O23   Zn2   S    
H13   O19   S    
C32   C34   A    
O14   S5    D    
C2    C4    A    
C29   C30   D    
O21   Zn1   S    
C2    H7    S    
O8    S3    D    
C31   C34   A    
O24   Zn2   S    
C9    C11   A    
O19   S6    S    
C4    C32   A    
C21   H5    S    
C20   C22   A    
C23   C35   A    
C14   C16   S    
C36   H8    S    
C7    H17   S    
O20   Zn2   S    
C3    C4    A    
C35   H9    S    
C7    N2    A    
O5    S2    D    
C15   C17   S    
O3    S1    S    
C17   C28   A    
C10   C13   A    
C1    O1    A    
O13   S4    S    
C20   H6    S    
C25   C27   A    
O2    S1    D    
C26   C28   A    
C18   S1    S    
C9    N2    A    
C10   N1    A    
C25   H3    S    
C11   C13   A    
C26   H4    S    
O11   S4    D    
C3    C36   A    
C30   H22   S    
C33   C35   A    
C12   O21   A    
C18   C20   A    
C24   C30   S    
O16   S5    S    
H19   O13   S    
C16   C18   A    
C21   C24   A    
C2    C23   A    
O7    S3    D    
C14   O22   A    
C31   C36   A    
C1    O20   A    
N1    Zn1   S    
H12   O6    S    
O4    S2    D    
C5    S3    S    
N2    Zn2   S    
