data_mof_unit_40407.cif
_audit_creation_date              2012-12-11T17:02:22-0500
_audit_creation_method            fapswitch 2.2
_symmetry_space_group_name_H-M    P1
_symmetry_Int_Tables_number       1
_space_group_crystal_system       triclinic
_cell_length_a                    21.676919
_cell_length_b                    7.062541
_cell_length_c                    14.909716
_cell_angle_alpha                 90.301841
_cell_angle_beta                  106.645792
_cell_angle_gamma                 89.788884
_cell_volume                      2186.89964969

loop_
_atom_site_label
_atom_site_type_symbol
_atom_type_description
_atom_site_fract_x
_atom_site_fract_y
_atom_site_fract_z
_atom_type_partial_charge
O1    O     O_R   0.585850 0.505770 0.002130 -0.536894
O2    O     O_R   0.414150 0.005770 0.997870 -0.542516
O3    O     O_R   0.467530 0.173560 0.861970 -0.544093
O4    O     O_R   0.532470 0.673560 0.138030 -0.534737
C1    C     C_R   0.453882 0.344187 0.825641 0.685147
C2    C     C_R   0.545514 0.844771 0.174578 0.683246
O5    O     O_R   0.588690 0.175900 0.993250 -0.554004
O6    O     O_R   0.411310 0.675900 0.006750 -0.537324
O7    O     O_R   0.536170 0.007950 0.130090 -0.540134
O8    O     O_R   0.463830 0.507950 0.869910 -0.533177
C3    C     C_R   0.614897 0.344251 0.997611 0.690777
C4    C     C_R   0.384798 0.845372 0.001215 0.695087
O9    O     O_3   0.482630 0.339970 0.044740 -0.368389
O10   O     O_3   0.517370 0.839970 0.955260 -0.377154
V1    V     V_3+5 0.503220 0.064200 0.991700 1.398659
V2    V     V_3+5 0.496780 0.564200 0.008300 1.436013
C5    C     C_R   0.293812 0.997889 0.050405 0.047988
C6    C     C_R   0.709651 0.509475 0.967980 0.034946
C7    C     C_R   0.316407 0.856154 0.000940 -0.112005
C8    C     C_R   0.683220 0.351768 0.998588 -0.106395
C9    C     C_R   0.272156 0.714360 0.956027 -0.186948
C10   C     C_R   0.726775 0.201659 0.034404 -0.163448
H1    H     H_    0.287827 0.598446 0.919980 0.123811
H2    H     H_    0.710428 0.077025 0.062617 0.120164
C11   C     C_R   0.206863 0.722417 0.955726 -0.147974
C12   C     C_R   0.792862 0.214635 0.037533 -0.148610
H3    H     H_    0.174251 0.612745 0.919516 0.131463
H4    H     H_    0.824998 0.099376 0.067488 0.125305
C13   C     C_R   0.183515 0.875592 0.997775 -0.099893
C14   C     C_R   0.817584 0.378216 0.005521 -0.079119
C15   C     C_R   0.228983 0.006751 0.046560 0.079296
C16   C     C_R   0.773380 0.523091 0.972990 0.054952
C17   C     C_3   0.226840 0.216127 0.049214 -0.217799
C18   C     C_3   0.767546 0.721820 0.938930 -0.193167
C19   C     C_3   0.298346 0.211794 0.050700 -0.244588
C20   C     C_3   0.694392 0.704831 0.929869 -0.234447
H5    H     H_    0.194887 0.277631 0.983665 0.118279
H6    H     H_    0.793551 0.818995 0.995494 0.101872
H7    H     H_    0.305154 0.264665 0.984032 0.129691
H8    H     H_    0.679069 0.797044 0.980163 0.128178
C21   C     C_R   0.932695 0.877726 0.722301 -0.051211
C22   C     C_R   0.067555 0.381819 0.277953 -0.059468
C23   C     C_R   0.576166 0.857371 0.275436 -0.023661
C24   C     C_R   0.422740 0.355840 0.725141 -0.031597
C25   C     C_R   0.941665 0.744103 0.577391 -0.091548
C26   C     C_R   0.057805 0.263477 0.424819 -0.074838
C27   C     C_R   0.968395 0.781696 0.672253 -0.141641
C28   C     C_R   0.032403 0.286907 0.328611 -0.163321
C29   C     C_R   0.870933 0.942276 0.676321 -0.195106
C30   C     C_R   0.128723 0.451159 0.323857 -0.207599
C31   C     C_R   0.839899 0.889864 0.582227 0.069105
C32   C     C_R   0.158929 0.409277 0.419320 0.058426
C33   C     C_R   0.876466 0.787578 0.532139 0.053536
C34   C     C_R   0.120958 0.323995 0.471803 0.053500
C35   C     C_R   0.772935 0.925812 0.539010 0.053144
C36   C     C_R   0.226392 0.437384 0.461789 0.054502
C37   C     C_R   0.743442 0.862259 0.445499 0.037229
C38   C     C_R   0.254798 0.384022 0.557071 0.045315
C39   C     C_R   0.781950 0.769240 0.396995 -0.223753
C40   C     C_R   0.214095 0.318292 0.609028 -0.230466
C41   C     C_R   0.846944 0.729215 0.438833 -0.022325
C42   C     C_R   0.148084 0.291127 0.568576 -0.033844
C43   C     C_R   0.733693 0.016138 0.587734 -0.155893
C44   C     C_R   0.267183 0.505953 0.410256 -0.183691
C45   C     C_R   0.667450 0.026537 0.550505 -0.189925
C46   C     C_R   0.333479 0.506631 0.447484 -0.179368
C47   C     C_R   0.637764 0.958367 0.460980 0.139336
C48   C     C_R   0.362105 0.446837 0.538522 0.135307
C49   C     C_R   0.675434 0.885412 0.404932 0.093071
C50   C     C_R   0.323393 0.393390 0.596503 0.094571
C51   C     C_R   0.570475 0.966347 0.426291 -0.184339
C52   C     C_R   0.429538 0.442610 0.572331 -0.163750
C53   C     C_R   0.539899 0.911166 0.334802 -0.210673
C54   C     C_R   0.459544 0.395563 0.664994 -0.179835
C55   C     C_R   0.643214 0.841289 0.310206 -0.209958
C56   C     C_R   0.355414 0.351747 0.691447 -0.206693
H9    H     H_    0.668834 0.803946 0.260404 0.097051
H10   H     H_    0.329863 0.322804 0.742082 0.093332
H11   H     H_    0.487982 0.920335 0.308782 0.100304
H12   H     H_    0.511449 0.395763 0.691057 0.116940
H13   H     H_    0.639196 0.090292 0.592149 0.128158
H14   H     H_    0.362799 0.554864 0.404450 0.136387
H15   H     H_    0.972286 0.675121 0.541345 0.170014
H16   H     H_    0.028728 0.187198 0.460483 0.167025
H17   H     H_    0.016995 0.734656 0.706916 0.122649
H18   H     H_    0.985111 0.230890 0.293551 0.123544
H19   H     H_    0.847519 0.023580 0.718134 0.154066
H20   H     H_    0.152504 0.528797 0.281682 0.149405
H21   H     H_    0.761518 0.713869 0.327357 0.143617
H22   H     H_    0.232575 0.284238 0.682113 0.150176
H23   H     H_    0.752130 0.078024 0.656066 0.170819
H24   H     H_    0.249955 0.554512 0.339168 0.143322
H25   H     H_    0.541488 0.019410 0.469369 0.113336
H26   H     H_    0.459063 0.478632 0.527269 0.108016
O11   O     O_R   0.036080 0.231270 0.130120 -0.538826
O12   O     O_R   0.963920 0.731270 0.869880 -0.533312
O13   O     O_R   0.911300 0.558970 0.006750 -0.544543
O14   O     O_R   0.088700 0.058970 0.993250 -0.546433
C57   C     C_R   0.885352 0.390013 0.003718 0.712915
C58   C     C_R   0.114871 0.889256 0.996706 0.689336
O15   O     O_R   0.032450 0.561140 0.138040 -0.535678
O16   O     O_R   0.967550 0.061140 0.861960 -0.536803
O17   O     O_R   0.085870 0.728910 0.002130 -0.522109
O18   O     O_R   0.914130 0.228910 0.997870 -0.541872
C59   C     C_R   0.043148 0.392443 0.175534 0.737952
C60   C     C_R   0.956893 0.891632 0.824580 0.699950
O19   O     O_3   0.017320 0.394650 0.955270 -0.366957
O20   O     O_3   0.982680 0.894650 0.044730 -0.382800
V3    V     V_3+5 0.996780 0.670490 0.008300 1.490026
V4    V     V_3+5 0.003220 0.170490 0.991700 1.483040
C61   C     C_2   0.211038 0.280016 0.136504 0.766718
O21   O     O_2   0.175915 0.416941 0.133044 -0.582516
O22   O     O_R   0.235880 0.181500 0.220396 -0.661510
H27   H     H_    0.219002 0.230544 0.272673 0.289602
C62   C     C_2   0.785264 0.750077 0.849583 0.786660
O23   O     O_2   0.777755 0.906330 0.813524 -0.584734
O24   O     O_R   0.809265 0.599995 0.807788 -0.667374
H28   H     H_    0.816953 0.636511 0.746286 0.291257
C63   C     C_R   0.345578 0.305053 0.135195 0.156660
C64   C     C_R   0.403136 0.215675 0.185264 -0.042720
C65   C     C_R   0.449035 0.314953 0.254817 -0.107641
C66   C     C_R   0.437648 0.501240 0.276728 -0.121072
C67   C     C_R   0.380771 0.591311 0.228112 -0.157423
C68   C     C_R   0.335262 0.494235 0.157879 -0.104034
H29   H     H_    0.413340 0.071477 0.169580 0.081099
H30   H     H_    0.494193 0.250165 0.291314 0.121572
H31   H     H_    0.472928 0.574974 0.331733 0.113487
H32   H     H_    0.371829 0.736319 0.244832 0.114871
H33   H     H_    0.291437 0.566890 0.122003 0.142330
C69   C     C_R   0.649118 0.711460 0.830792 0.146346
C70   C     C_R   0.606700 0.865537 0.804515 -0.074964
C71   C     C_R   0.566715 0.881028 0.712846 -0.134695
C72   C     C_R   0.569429 0.744431 0.646047 -0.094827
C73   C     C_R   0.611948 0.591812 0.670740 -0.138076
C74   C     C_R   0.650903 0.573298 0.762832 -0.124385
H34   H     H_    0.605121 0.975162 0.854667 0.119394
H35   H     H_    0.534047 0.999960 0.693386 0.111099
H36   H     H_    0.538411 0.756293 0.575202 0.109681
H37   H     H_    0.614020 0.486224 0.618777 0.114437
H38   H     H_    0.683259 0.453287 0.780427 0.138352
C75   C     C_2   0.880652 0.615315 0.383014 0.740121
O25   O     O_2   0.911986 0.475429 0.416797 -0.558570
O26   O     O_R   0.873291 0.662609 0.289547 -0.669035
H39   H     H_    0.897403 0.573120 0.258027 0.281850
C76   C     C_2   0.109346 0.228199 0.630815 0.733897
O27   O     O_2   0.055606 0.293824 0.621683 -0.558052
O28   O     O_R   0.135709 0.099774 0.702847 -0.668913
H40   H     H_    0.105256 0.069774 0.741307 0.284467

loop_
_geom_bond_atom_site_label_1
_geom_bond_atom_site_label_2
_ccdc_geom_bond_type
C23   C53   A    
C46   C48   A    
C43   C45   A    
O14   V4    S    
C29   H19   S    
C19   C63   S    
O28   H40   S    
O1    C3    A    
O2    C4    A    
C2    O7    A    
C76   O27   D    
C67   C68   A    
C63   C68   A    
O5    C3    A    
C27   H17   S    
C10   H2    S    
C7    C9    A    
C56   H10   S    
C75   O26   S    
C17   C19   S    
C37   C39   A    
C45   C47   A    
C38   C40   A    
O26   H39   S    
O20   V3    S    
C6    C8    A    
C40   C42   A    
C39   H21   S    
C66   H31   S    
C24   C56   A    
C9    C11   A    
O11   C59   A    
O13   C57   A    
C33   C41   A    
C61   O21   D    
C36   C38   A    
C71   C72   A    
C62   O24   S    
C42   C76   S    
C35   C43   A    
C30   C32   A    
C36   C44   A    
O16   C60   A    
C17   C61   S    
C31   C35   A    
C30   H20   S    
C52   H26   S    
O5    V1    S    
C57   O18   A    
O15   V3    S    
C25   C33   A    
C72   H36   S    
O6    V2    S    
C54   H12   S    
C23   C55   A    
O19   V3    S    
C25   H15   S    
C21   C29   A    
C76   O28   S    
C32   C34   A    
C25   C27   A    
C11   C13   A    
C74   H38   S    
C26   C28   A    
C3    C8    S    
C39   C41   A    
O15   C59   A    
C21   C60   S    
C20   H8    S    
C52   C54   A    
C70   H34   S    
C73   H37   S    
C51   C53   A    
C64   H29   S    
C38   C50   A    
C34   C42   A    
C29   C31   A    
C18   C62   S    
C14   C57   S    
C58   O17   A    
C17   H5    S    
C48   C52   A    
C31   C33   A    
C44   C46   A    
O4    V2    S    
C19   H7    S    
C20   C69   S    
C46   H14   S    
O13   V3    S    
C45   H13   S    
O6    C4    A    
C26   C34   A    
C15   C17   S    
C21   C27   A    
C61   O22   S    
O1    V2    S    
C22   C28   A    
C24   C54   A    
O2    V1    S    
C55   H9    S    
C65   C66   A    
C22   C30   A    
C26   H16   S    
C41   C75   S    
C69   C74   A    
C8    C10   A    
C12   C14   A    
O14   C58   A    
C2    C23   S    
C35   C37   A    
C50   C56   A    
C72   C73   A    
C5    C15   A    
O19   V4    S    
C28   H18   S    
O16   V4    S    
O4    C2    A    
C6    C16   A    
C44   H24   S    
C70   C71   A    
O3    C1    A    
O3    V1    S    
C64   C65   A    
O18   V4    S    
O22   H27   S    
O12   C60   A    
C13   C58   S    
C18   H6    S    
C1    C24   S    
C53   H11   S    
O11   V4    S    
C63   C64   A    
C73   C74   A    
C51   H25   S    
C40   H22   S    
C11   H3    S    
O12   V3    S    
C12   H4    S    
O17   V3    S    
C37   C49   A    
C9    H1    S    
C69   C70   A    
C71   H35   S    
C65   H30   S    
C13   C15   A    
O8    V2    S    
O24   H28   S    
C14   C16   A    
C67   H32   S    
C4    C7    S    
C5    C7    A    
C18   C20   S    
O20   V4    S    
C68   H33   S    
C49   C55   A    
C47   C51   A    
O7    V1    S    
C22   C59   S    
C32   C36   A    
C1    O8    A    
C48   C50   A    
C10   C12   A    
O9    V2    S    
C43   H23   S    
O10   V1    S    
C5    C19   S    
C47   C49   A    
C66   C67   A    
C75   O25   D    
C6    C20   S    
C62   O23   D    
C16   C18   S    
