data_mof_unit_19167.cif
_audit_creation_date              2013-03-05T16:10:20-0500
_audit_creation_method            fapswitch 2.2
_symmetry_space_group_name_H-M    P1
_symmetry_Int_Tables_number       1
_space_group_crystal_system       triclinic
_cell_length_a                    8.373826
_cell_length_b                    15.26955
_cell_length_c                    18.92935
_cell_angle_alpha                 102.994054
_cell_angle_beta                  91.053418
_cell_angle_gamma                 98.812208
_cell_volume                      2327.0650109

loop_
_atom_site_label
_atom_site_type_symbol
_atom_site_description
_atom_site_fract_x
_atom_site_fract_y
_atom_site_fract_z
_atom_type_partial_charge
P1    P     P_3+3 0.039430 0.410940 0.333230 0.458743
O1    O     O_2   0.871960 0.437280 0.322960 -0.397788
O2    O     O_3   0.121410 0.444460 0.412450 -0.396751
O3    O     O_3   0.661450 0.607570 0.372550 -0.322234
O4    O     O_2   0.760286 0.530798 0.245656 -0.406991
O5    O     O_3   0.020045 0.291696 0.299940 -0.562343
O6    O     O_3   0.713729 0.696527 0.259842 -0.546717
H1    H     H_    0.515534 0.738563 0.319487 -0.059701
C1    C     C_3   0.721845 0.843955 0.338012 -0.775165
H2    H     H_    0.757806 0.824654 0.388206 0.234775
H3    H     H_    0.831303 0.867105 0.310781 0.307432
P2    P     P_3+3 0.676770 0.715000 0.563590 0.535962
P3    P     P_3+3 0.130661 0.773201 0.413022 0.485387
O7    O     O_2   0.852310 0.726980 0.542430 -0.258468
O8    O     O_3   0.084010 0.657370 0.410280 -0.352645
O9    O     O_2   0.004136 0.818492 0.460458 -0.375341
O10   O     O_3   0.695217 0.739754 0.658327 -0.523895
O11   O     O_3   0.082862 0.788335 0.326272 -0.510568
C2    C     C_3   0.128899 0.717820 0.272989 0.347776
H4    H     H_    0.065450 0.650438 0.278500 0.136198
H5    H     H_    0.260805 0.718803 0.277818 0.030390
C3    C     C_3   0.082404 0.727781 0.196670 -0.690960
H6    H     H_    0.949215 0.714978 0.187438 0.235855
C4    C     C_3   0.321669 0.757963 0.679328 0.318676
H7    H     H_    0.395164 0.712995 0.645177 0.077181
C5    C     C_3   0.418842 0.801936 0.751695 -0.746065
H8    H     H_    0.441395 0.746966 0.777493 0.185695
H9    H     H_    0.539235 0.836465 0.740703 0.237531
Ba1   Ba    Ba6+2 0.853520 0.540910 0.466490 1.618171
C6    C     C_3   0.893896 0.240965 0.328045 0.175886
H10   H     H_    0.791128 0.278211 0.340039 0.065468
C7    C     C_3   0.835828 0.149731 0.272556 -0.718449
H11   H     H_    0.741867 0.107855 0.297117 0.159181
H12   H     H_    0.938549 0.111178 0.260988 0.246005
C8    C     C_3   0.738596 0.667056 0.683483 0.369488
H13   H     H_    0.839205 0.640246 0.653217 0.123283
H14   H     H_    0.632804 0.612107 0.678447 0.109913
C9    C     C_3   0.793837 0.702896 0.763168 -0.778664
H15   H     H_    0.903194 0.755362 0.767713 0.324618
H16   H     H_    0.819955 0.647535 0.788110 0.217993
H17   H     H_    0.699453 0.734834 0.794561 0.252065
P4    P     P_3+3 0.150290 0.589140 0.666780 0.524201
O12   O     O_2   0.317750 0.562750 0.677090 -0.394572
O13   O     O_3   0.068300 0.555620 0.587560 -0.330441
O14   O     O_3   0.528270 0.392500 0.627460 -0.326233
O15   O     O_3   0.170212 0.709913 0.691432 -0.526479
P5    P     P_3+3 0.043899 0.227873 0.589258 0.535645
O16   O     O_3   0.609290 0.386840 0.459690 -0.435548
O17   O     O_3   0.105700 0.342700 0.589730 -0.362173
O18   O     O_2   0.164403 0.176216 0.542243 -0.307330
O19   O     O_3   0.083346 0.214910 0.677346 -0.528076
Ba2   Ba    Ba6+2 0.336320 0.459170 0.533520 1.624906
P6    P     P_3+3 0.636552 0.591347 0.278487 0.460485
C10   C     C_3   0.617187 0.762705 0.288084 0.895042
H18   H     H_    0.653190 0.901453 0.352810 0.197005
O20   O     O_3   0.580430 0.613240 0.540320 -0.437932
C11   C     C_3   0.447634 0.312067 0.311186 0.392907
H19   H     H_    0.331812 0.326070 0.335178 0.131338
H20   H     H_    0.540170 0.374657 0.323920 0.089748
C12   C     C_3   0.418419 0.281616 0.229081 -0.864686
H21   H     H_    0.345325 0.212368 0.214024 0.305360
H22   H     H_    0.351929 0.328535 0.208066 0.208067
H23   H     H_    0.535878 0.281663 0.202966 0.246902
P7    P     P_3+3 0.516478 0.272093 0.432268 0.483223
O21   O     O_2   0.337390 0.273050 0.457610 -0.247008
O22   O     O_3   0.503399 0.242704 0.337089 -0.557609
H24   H     H_    0.129975 0.674912 0.156025 0.164197
C13   C     C_3   0.102707 0.301387 0.725486 0.527526
H25   H     H_    0.213983 0.344123 0.715012 0.147141
H26   H     H_    0.003835 0.339028 0.717674 0.082182
C14   C     C_3   0.107537 0.291936 0.804134 -0.875764
H27   H     H_    0.198251 0.346944 0.837719 0.224362
H28   H     H_    0.987636 0.296853 0.827349 0.265003
H29   H     H_    0.138387 0.225171 0.807792 0.277707
P8    P     P_3+3 0.557901 0.406246 0.721701 0.456042
C15   C     C_3   0.517675 0.228498 0.732177 0.690666
O23   O     O_2   0.458984 0.481415 0.754362 -0.426092
O24   O     O_3   0.460176 0.312861 0.754496 -0.603671
H30   H     H_    0.536289 0.111529 0.779436 0.275252
C16   C     C_3   0.486090 0.176320 0.792343 -0.807851
H31   H     H_    0.355073 0.158999 0.799250 0.233670
H32   H     H_    0.544177 0.218400 0.844802 0.250483
C17   C     C_R   0.993911 0.454563 0.045296 0.060582
C18   C     C_R   0.897847 0.410948 0.092124 -0.177623
C19   C     C_R   0.768737 0.430098 0.951115 -0.178917
C20   C     C_R   0.933125 0.458964 0.975019 0.079592
C21   C     C_R   0.713623 0.429991 0.881109 -0.117368
C22   C     C_R   0.818911 0.459062 0.831009 0.014982
C23   C     C_R   0.980662 0.495906 0.854918 -0.004096
C24   C     C_R   0.038643 0.494959 0.927063 0.055843
C25   C     C_R   0.767297 0.453409 0.758113 0.277292
C26   C     C_R   0.874666 0.486655 0.710680 -0.548191
C27   C     C_R   0.029624 0.534139 0.734620 0.230533
C28   C     C_R   0.083641 0.538264 0.808532 -0.094940
C29   C     C_R   0.156151 0.494045 0.069699 0.005539
C30   C     C_R   0.211580 0.496251 0.142755 0.000999
C31   C     C_R   0.106902 0.457543 0.190704 -0.060573
C32   C     C_R   0.953665 0.411681 0.162255 0.028590
H33   H     H_    0.832897 0.480134 0.655031 0.165260
H34   H     H_    0.586036 0.407905 0.867694 0.175774
H35   H     H_    0.873363 0.375754 0.193898 0.174698
C33   C     C_R   0.232625 0.587100 0.841054 -0.047887
C34   C     C_R   0.302407 0.553746 0.895400 -0.155641
C35   C     C_R   0.203753 0.527640 0.949133 0.015879
C36   C     C_R   0.261692 0.533507 0.022428 -0.090889
C37   C     C_R   0.417186 0.580944 0.052699 0.458992
C38   C     C_R   0.372072 0.537138 0.167795 -0.103169
C39   C     C_R   0.472009 0.576777 0.121504 -0.201354
C40   C     C_R   0.428173 0.538394 0.239025 0.189817
C41   C     C_R   0.324817 0.497195 0.283234 -0.439563
C42   C     C_R   0.162074 0.462738 0.264206 0.238238
H36   H     H_    0.593949 0.609512 0.139510 0.219714
H37   H     H_    0.376928 0.484329 0.330793 0.152290
H38   H     H_    0.677896 0.408386 0.985898 0.126389
H39   H     H_    0.778160 0.373601 0.075543 0.134826
H40   H     H_    0.432143 0.563039 0.900405 0.204739
C43   C     C_R   0.834388 0.175921 0.550240 0.322822
C44   C     C_R   0.773596 0.082565 0.541884 -0.019802
C45   C     C_R   0.643362 0.895874 0.534704 -0.057742
C46   C     C_R   0.781891 0.941634 0.580360 0.499546
C47   C     C_R   0.849939 0.029945 0.578967 -0.228169
C48   C     C_R   0.578134 0.800854 0.525707 0.136530
H41   H     H_    0.956982 0.059821 0.613730 0.220162
C49   C     C_R   0.426459 0.768757 0.487772 -0.473459
C50   C     C_R   0.606656 0.191491 0.474417 0.239790
C51   C     C_R   0.546066 0.096327 0.462411 -0.139713
C52   C     C_R   0.626999 0.043038 0.500554 -0.013073
C53   C     C_R   0.404848 0.051571 0.417900 0.503145
C54   C     C_R   0.338361 0.963800 0.419329 -0.249437
C55   C     C_R   0.412646 0.912083 0.457576 -0.065547
C56   C     C_R   0.562244 0.949791 0.496973 0.014393
C57   C     C_R   0.340899 0.822506 0.455212 0.135941
C58   C     C_R   0.739470 0.229887 0.523526 -0.388848
H42   H     H_    0.227371 0.935621 0.387248 0.238964
H43   H     H_    0.775746 0.302941 0.537768 0.152037
C59   C     C_2   0.342048 0.872680 0.802949 1.195315
O25   O     O_2   0.416075 0.914558 0.859750 -0.565709
O26   O     O_R   0.189355 0.891458 0.785948 -0.746322
H44   H     H_    0.153576 0.940846 0.824812 0.336522
C60   C     C_2   0.960788 0.222815 0.396248 0.991272
O27   O     O_2   0.979941 0.146370 0.400392 -0.568442
O28   O     O_R   0.007374 0.294972 0.455213 -0.707872
H45   H     H_    0.939837 0.344881 0.457204 0.286753
C61   C     C_2   0.769764 0.160684 0.201059 1.199017
O29   O     O_2   0.857386 0.200864 0.163788 -0.589295
O30   O     O_R   0.612595 0.120574 0.174093 -0.740801
H46   H     H_    0.549671 0.087486 0.208151 0.333116
Cl1   Cl    Cl    0.538826 0.800559 0.214330 -0.609068
Cl2   Cl    Cl    0.727853 0.236725 0.720420 -0.761181
C62   C     C_2   0.431907 0.174549 0.661961 1.046785
O31   O     O_2   0.446857 0.205904 0.608341 -0.596061
O32   O     O_R   0.338996 0.088748 0.656965 -0.756339
H47   H     H_    0.292671 0.058970 0.605847 0.339615
C63   C     C_2   0.242449 0.687196 0.863563 1.016055
O33   O     O_2   0.364080 0.734302 0.896897 -0.552613
O34   O     O_R   0.105674 0.726669 0.855280 -0.801624
H48   H     H_    0.117998 0.792480 0.883115 0.351423
Cl3   Cl    Cl    0.543054 0.662730 0.017191 -0.538500
Cl4   Cl    Cl    0.857092 0.908081 0.655454 -0.526538
Cl5   Cl    Cl    0.299253 0.091393 0.353657 -0.574145
C64   C     C_2   0.352593 0.676640 0.483319 1.118763
O35   O     O_2   0.257218 0.658312 0.527360 -0.588327
O36   O     O_R   0.388133 0.610253 0.426739 -0.795818
H49   H     H_    0.359389 0.548958 0.437739 0.345389
C65   C     C_2   0.144734 0.820294 0.183831 1.268616
O37   O     O_2   0.231833 0.827106 0.133570 -0.541293
O38   O     O_R   0.097408 0.897877 0.227226 -0.746129
H50   H     H_    0.144982 0.955757 0.212328 0.346702
C66   C     C_2   0.294856 0.832234 0.641597 1.007432
O39   O     O_2   0.400200 0.898462 0.645436 -0.661750
O40   O     O_R   0.148440 0.826696 0.603665 -0.663094
H51   H     H_    0.145342 0.882384 0.583245 0.341727

loop_
_geom_bond_atom_site_label_1
_geom_bond_atom_site_label_2
_geom_bond_distance
_ccdc_geom_bond_type
C6    C7    1.547927 S    
O40   H51   1.013591 S    
C65   O37   1.222588 D    
P2    Ba1   3.426912 S    
P4    C27   1.909998 S    
C66   O40   1.390856 S    
C66   O39   1.223677 D    
O36   H49   0.998873 S    
C11   O22   1.398899 S    
C21   C22   1.404965 A    
C43   C58   1.392755 A    
C53   C54   1.376642 A    
C31   C32   1.398789 A    
P5    O17   1.748411 S    
C19   C20   1.412605 A    
C5    H8    1.099173 S    
C51   C52   1.434533 A    
P3    O11   1.756431 S    
O1    Ba1   2.840142 S    
O4    P6    1.540585 D    
O34   H48   1.013035 S    
C2    H5    1.104182 S    
C15   O24   1.422160 S    
O11   C2    1.406533 S    
O16   Ba2   2.931669 S    
C54   H42   1.075607 S    
C6    H10   1.102107 S    
C31   C42   1.439130 A    
O12   Ba2   2.840679 S    
C11   H20   1.111123 S    
P6    C40   1.872094 S    
C49   C57   1.399351 A    
C12   H22   1.106241 S    
P1    O1    1.537574 D    
P4    O15   1.778303 S    
C23   C28   1.430121 A    
O2    Ba1   2.943936 S    
C41   C42   1.393116 A    
C29   C36   1.432901 A    
C3    C65   1.503386 S    
O28   H45   1.010918 S    
C2    H4    1.111128 S    
C13   H25   1.100945 S    
P2    O10   1.746364 S    
C46   Cl4   1.753014 S    
C45   C56   1.437802 A    
C38   C39   1.394556 A    
C1    H18   1.108965 S    
C1    H2    1.105853 S    
C33   C63   1.480452 S    
C63   O34   1.395368 S    
O3    Ba1   2.827604 S    
P8    C25   1.847618 S    
O13   Ba2   2.944859 S    
C65   O38   1.397650 S    
C38   C40   1.414700 A    
P4    O13   1.578420 S    
C35   C36   1.440271 A    
C64   O36   1.370827 S    
O8    Ba1   2.809709 S    
P5    O18   1.547137 D    
C19   C21   1.394762 A    
C6    C60   1.496403 S    
Ba1   O16   2.848468 S    
P1    O5    1.768748 S    
C2    C3    1.535607 S    
C5    C59   1.512028 S    
C60   O27   1.221669 D    
C9    H17   1.104833 S    
C59   O26   1.399771 S    
C20   C24   1.418435 A    
H1    C10   1.111244 S    
O38   H50   1.013754 S    
C14   H28   1.109643 S    
C61   O29   1.219960 D    
C11   C12   1.522400 S    
P5    O19   1.754104 S    
O14   Ba2   2.827081 S    
C37   Cl3   1.767054 S    
C39   H36   1.078372 S    
C12   H21   1.110718 S    
P1    O2    1.578392 S    
C8    H13   1.106136 S    
C7    H12   1.112881 S    
C55   C57   1.397691 A    
C61   O30   1.398406 S    
C1    H3    1.109420 S    
C29   C30   1.442103 A    
C17   C18   1.415611 A    
C22   C25   1.418236 A    
C15   C62   1.500759 S    
C45   C46   1.422677 A    
O17   Ba2   2.810453 S    
C17   C29   1.422424 A    
C30   C31   1.432922 A    
C8    C9    1.521270 S    
C21   H34   1.077402 S    
P1    Ba1   3.400735 S    
C27   C28   1.447231 A    
C4    H7    1.101207 S    
C4    C66   1.510971 S    
P8    O23   1.541681 D    
C41   H37   1.063410 S    
C24   C35   1.417314 A    
C63   O33   1.225030 D    
P2    O20   1.598219 S    
C16   H32   1.111344 S    
O5    C6    1.397945 S    
C30   C38   1.416699 A    
P2    O7    1.525397 D    
C18   H39   1.077510 S    
P3    O8    1.740639 S    
Ba1   O13   2.833829 S    
C50   C51   1.428969 A    
C62   O32   1.400003 S    
P4    O12   1.537951 D    
O6    P6    1.751248 S    
O7    Ba1   2.882990 S    
C48   C49   1.409425 A    
C12   H23   1.108890 S    
C25   C26   1.402516 A    
C47   H41   1.078247 S    
C46   C47   1.387396 A    
C53   Cl5   1.757317 S    
C10   Cl1   1.777425 S    
O30   H46   1.012886 S    
C45   C48   1.440536 A    
C50   C58   1.400682 A    
C19   H38   1.077678 S    
C51   C53   1.425539 A    
C8    H14   1.109533 S    
C62   O31   1.216538 D    
C15   C16   1.535052 S    
C60   O28   1.382481 S    
C16   H31   1.105723 S    
C14   H29   1.105737 S    
O2    Ba2   2.834488 S    
C1    C10   1.519736 S    
Ba1   O20   2.932524 S    
C32   H35   1.077701 S    
C36   C37   1.430168 A    
C49   C64   1.430524 S    
C5    H9    1.109876 S    
O14   P8    1.757103 S    
C4    O15   1.414394 S    
C7    H11   1.112246 S    
C55   C56   1.417216 A    
C54   C55   1.387736 A    
C18   C32   1.396377 A    
C14   H27   1.110547 S    
C64   O35   1.213290 D    
C40   C41   1.393439 A    
P7    O21   1.584081 D    
C9    H16   1.103469 S    
C4    C5    1.538651 S    
C11   H19   1.108468 S    
C9    H15   1.108661 S    
C37   C39   1.391168 A    
C15   Cl2   1.766948 S    
C13   C14   1.528067 S    
C26   C27   1.398985 A    
P3    C57   1.890966 S    
C34   H40   1.073445 S    
O19   C13   1.410023 S    
C33   C34   1.401373 A    
P8    O24   1.774144 S    
C52   C56   1.429903 A    
C3    H24   1.110341 S    
C7    C61   1.506088 S    
O3    P6    1.745678 S    
O16   P7    1.761354 S    
O26   H44   1.013665 S    
H30   C16   1.112502 S    
P5    C43   1.874896 S    
C17   C20   1.434946 A    
P2    C48   1.909915 S    
C22   C23   1.409048 A    
C28   C33   1.404191 A    
C13   H26   1.103276 S    
P7    C50   1.850889 S    
C44   C52   1.417257 A    
P3    O9    1.545085 D    
P4    Ba2   3.401300 S    
C34   C35   1.410053 A    
C58   H43   1.080380 S    
C3    H6    1.106041 S    
C59   O25   1.222330 D    
O32   H47   1.013817 S    
O10   C8    1.394940 S    
O6    C10   1.408452 S    
C23   C24   1.444854 A    
C43   C44   1.410512 A    
C44   C47   1.393388 A    
P1    C42   1.911190 S    
Ba2   O21   2.883306 S    
Ba2   O20   2.847875 S    
C26   H33   1.081913 S    
P7    O22   1.753149 S    
Ba1   Ba2   4.645677 S    
