data_mof_unit_67700.cif
_audit_creation_date              2012-12-10T19:48:31-0500
_audit_creation_method            fapswitch 2.2
_symmetry_space_group_name_H-M    P1
_symmetry_Int_Tables_number       1
_space_group_crystal_system       triclinic
_cell_length_a                    11.213779
_cell_length_b                    10.96093
_cell_length_c                    9.72254
_cell_angle_alpha                 85.204653
_cell_angle_beta                  91.547576
_cell_angle_gamma                 85.295663
_cell_volume                      1186.14601744

loop_
_atom_site_label
_atom_site_type_symbol
_atom_type_description
_atom_site_fract_x
_atom_site_fract_y
_atom_site_fract_z
_atom_type_partial_charge
C1    C     C_R   0.513178 0.259727 0.504466 0.873666
C2    C     C_R   0.495170 0.740805 0.495544 0.903617
C3    C     C_R   0.871217 0.495547 0.498769 -0.097504
C4    C     C_R   0.128573 0.493581 0.496229 -0.104467
C5    C     C_R   0.946308 0.412030 0.586527 0.118403
C6    C     C_R   0.053475 0.565707 0.395693 0.113777
C7    C     C_3   0.541646 0.018971 0.626255 0.038242
C8    C     C_3   0.477048 0.981282 0.371692 0.017391
C9    C     C_3   0.613495 0.934845 0.533410 0.188309
C10   C     C_3   0.404597 0.065188 0.465811 0.163350
C11   C     C_3   0.497391 0.879283 0.490926 -0.206722
C12   C     C_3   0.520748 0.120987 0.508068 -0.195259
C13   C     C_3   0.426225 0.963497 0.586762 0.243010
C14   C     C_3   0.592936 0.036666 0.411930 0.233200
C15   C     C_3   0.472628 0.606987 0.038482 0.104084
C16   C     C_3   0.526564 0.393324 0.962897 0.108384
C17   C     C_3   0.395731 0.538266 0.942386 0.321321
C18   C     C_3   0.604460 0.461474 0.058855 0.391877
C19   C     C_3   0.576082 0.570186 0.948065 0.145739
C20   C     C_3   0.423626 0.430871 0.052761 0.119560
C21   C     C_R   0.263139 0.497660 0.498717 0.858989
C22   C     C_R   0.736896 0.497566 0.500854 0.810289
C23   C     C_R   0.135613 0.862810 0.233950 0.061887
C24   C     C_R   0.902176 0.084591 0.686611 0.114148
C25   C     C_R   0.129581 0.764097 0.333047 0.127937
C26   C     C_R   0.911984 0.193395 0.602381 0.172866
C27   C     C_R   0.101864 0.651246 0.292619 -0.033765
C28   C     C_R   0.898027 0.305885 0.659356 -0.070374
C29   C     C_R   0.083302 0.635811 0.152893 0.250687
C30   C     C_R   0.865346 0.311563 0.795206 0.272500
C31   C     C_R   0.077963 0.738089 0.055508 -0.163807
C32   C     C_R   0.842227 0.204250 0.874658 -0.227869
C33   C     C_R   0.110257 0.850564 0.095600 0.352320
C34   C     C_R   0.858287 0.090691 0.819917 0.360044
C35   C     C_R   0.926816 0.571539 0.400509 0.178478
C36   C     C_R   0.072128 0.417221 0.594226 0.184120
Cu1   Cu    Cu3+1 0.500030 0.499990 0.643150 1.012196
Cu2   Cu    Cu3+1 0.499970 0.500010 0.356850 1.023714
H1    H     H_    0.050532 0.730212 0.949459 0.266746
H2    H     H_    0.816786 0.206636 0.980094 0.265139
N1    N     N_3   0.500090 0.499970 0.858290 -0.262174
N2    N     N_3   0.499910 0.500030 0.141710 -0.251432
O1    O     O_R   0.500060 0.316850 0.620870 -0.609026
O2    O     O_R   0.499940 0.683150 0.379130 -0.565095
O3    O     O_R   0.500000 0.316860 0.379090 -0.549411
O4    O     O_R   0.500000 0.683140 0.620910 -0.548447
O5    O     O_R   0.319670 0.500010 0.620890 -0.532311
O6    O     O_R   0.680330 0.499990 0.379110 -0.552619
O7    O     O_R   0.319620 0.500010 0.379110 -0.596148
O8    O     O_R   0.680380 0.499990 0.620890 -0.582841
Br1   Br    Br    0.123831 0.988791 0.965428 -0.344317
Br2   Br    Br    0.829282 0.945229 0.934067 -0.384518
Br3   Br    Br    0.250247 0.615092 0.856755 -0.415270
Br4   Br    Br    0.745343 0.375074 0.151003 -0.337553
N3    N     N_3   0.440485 0.728329 0.082941 -0.530121
H3    H     H_    0.419059 0.788009 0.994853 0.262091
H4    H     H_    0.361838 0.722968 0.137522 0.247116
N4    N     N_3   0.549809 0.269693 0.923324 -0.533908
H5    H     H_    0.611848 0.273379 0.845618 0.258303
H6    H     H_    0.469166 0.248927 0.878577 0.251502
N5    N     N_3   0.655465 0.660157 0.894393 -0.458283
H7    H     H_    0.607736 0.746310 0.886406 0.238184
H8    H     H_    0.674413 0.642617 0.793740 0.315341
N6    N     N_3   0.342256 0.343765 0.107869 -0.480997
H9    H     H_    0.394193 0.266627 0.152818 0.265100
H10   H     H_    0.296794 0.382642 0.187189 0.305156
N7    N     N_3   0.163489 0.977959 0.274204 -0.428020
H11   H     H_    0.243374 0.959184 0.330855 0.280106
H12   H     H_    0.098340 0.004470 0.342257 0.310302
N8    N     N_3   0.959232 0.971832 0.649455 -0.418644
H13   H     H_    0.051034 0.980793 0.657949 0.309955
H14   H     H_    0.939314 0.963039 0.545448 0.298244
Br5   Br    Br    0.149173 0.784882 0.524705 -0.462675
Br6   Br    Br    0.952636 0.192027 0.411999 -0.373636
Br7   Br    Br    0.065421 0.474030 0.101591 -0.339138
Br8   Br    Br    0.862678 0.467241 0.867170 -0.383178
N9    N     N_3   0.856942 0.657137 0.303399 -0.523804
H15   H     H_    0.790649 0.706630 0.353828 0.265106
H16   H     H_    0.816795 0.609086 0.229067 0.295693
N10   N     N_3   0.139871 0.339528 0.700271 -0.507653
H17   H     H_    0.212711 0.292259 0.658501 0.262455
H18   H     H_    0.171758 0.394111 0.773487 0.298730
Br9   Br    Br    0.752131 0.825085 0.592182 -0.494807
Br10  Br    Br    0.262661 0.177479 0.424477 -0.506965
N11   N     N_3   0.577689 0.035820 0.767279 -0.529753
H19   H     H_    0.600034 0.948337 0.815720 0.276188
H20   H     H_    0.500826 0.066918 0.815668 0.254447
N12   N     N_3   0.443605 0.961635 0.230036 -0.535007
H21   H     H_    0.428116 0.047756 0.175170 0.268889
H22   H     H_    0.518334 0.917686 0.187599 0.282889
Br11  Br    Br    0.321490 0.918680 0.731221 -0.428470
Br12  Br    Br    0.709417 0.072554 0.275420 -0.375798

loop_
_geom_bond_atom_site_label_1
_geom_bond_atom_site_label_2
_ccdc_geom_bond_type
C22   O6    A    
N3    H3    S    
C4    C36   A    
Cu1   O1    S    
Cu1   O8    S    
C27   C29   A    
C21   O7    A    
C24   N8    S    
Cu2   O7    S    
N11   H19   S    
C2    O4    A    
C15   C19   S    
C24   C26   A    
Cu2   N2    S    
C18   N2    S    
N4    H6    S    
C5    C36   A    
C17   C20   S    
C6    C35   A    
C7    C9    S    
C18   C19   S    
C23   N7    S    
N5    H8    S    
Cu2   O3    S    
C32   C34   A    
C1    O1    A    
C2    O2    A    
C23   C33   A    
C31   C33   A    
N8    H13   S    
Cu1   O5    S    
Cu2   O6    S    
C22   O8    A    
N11   H20   S    
C13   Br11  S    
C1    C12   S    
C2    C11   S    
N9    H16   S    
C7    C12   S    
N7    H11   S    
C4    C6    A    
C36   N10   S    
N4    H5    S    
N9    H15   S    
C35   N9    S    
C24   C34   A    
N7    H12   S    
N6    H10   S    
C20   N6    S    
C9    C14   S    
Cu2   O2    S    
Cu1   Cu2   S    
C5    C28   S    
C30   Br8   S    
C6    C27   S    
C3    C35   A    
C16   C20   S    
C16   C18   S    
C16   N4    S    
C9    C11   S    
C14   Br12  S    
C10   C12   S    
C9    Br9   S    
N10   H18   S    
N12   H22   S    
N3    H4    S    
C25   C27   A    
C17   Br3   S    
C15   C17   S    
C8    C14   S    
C34   Br2   S    
C15   N2    S    
C12   C14   S    
N10   H17   S    
C3    C5    A    
C10   C13   S    
C20   N2    S    
C29   Br7   S    
C33   Br1   S    
C26   C28   A    
N6    H9    S    
C28   C30   A    
C29   C31   A    
C30   C32   A    
C4    C21   S    
C11   C13   S    
C1    O3    A    
C7    N11   S    
C19   N5    S    
C8    C11   S    
C10   Br10  S    
C26   Br6   S    
C31   H1    S    
C25   Br5   S    
C32   H2    S    
Cu1   N1    S    
N5    H7    S    
C17   N1    S    
C18   Br4   S    
C7    C13   S    
C23   C25   A    
N12   H21   S    
C8    C10   S    
C3    C22   S    
N8    H14   S    
C8    N12   S    
Cu1   O4    S    
C16   N1    S    
C19   N1    S    
C15   N3    S    
C21   O5    A    
