data_mof_unit_57086.cif
_audit_creation_date              2012-12-11T14:35:56-0500
_audit_creation_method            fapswitch 2.2
_symmetry_space_group_name_H-M    P1
_symmetry_Int_Tables_number       1
_space_group_crystal_system       triclinic
_cell_length_a                    13.475213
_cell_length_b                    13.489326
_cell_length_c                    27.506771
_cell_angle_alpha                 90.823323
_cell_angle_beta                  90.095511
_cell_angle_gamma                 60.080969
_cell_volume                      4333.07602213

loop_
_atom_site_label
_atom_site_type_symbol
_atom_type_description
_atom_site_fract_x
_atom_site_fract_y
_atom_site_fract_z
_atom_type_partial_charge
C1    C     C_R   0.620182 0.101437 0.570212 0.547745
C2    C     C_1   0.648616 0.706806 0.658731 -0.044965
C3    C     C_3   0.129489 0.091239 0.740701 0.091212
C4    C     C_R   0.599484 0.779894 0.568870 0.545902
C5    C     C_3   0.224804 0.054711 0.779102 -0.104883
C6    C     C_1   0.097482 0.200653 0.901949 -0.008527
C7    C     C_1   0.230121 0.137902 0.617663 0.013957
C8    C     C_3   0.052005 0.202579 0.769620 -0.110311
C9    C     C_3   0.148277 0.166821 0.807310 0.037318
C10   C     C_3   0.103319 0.264653 0.740735 -0.124222
C11   C     C_3   0.179623 0.152982 0.712206 0.036194
C12   C     C_1   0.630530 0.733469 0.616653 -0.003136
C13   C     C_3   0.198868 0.229232 0.779186 -0.105399
C14   C     C_3   0.275598 0.117230 0.750109 -0.134928
C15   C     C_1   0.125561 0.180787 0.859770 -0.042932
C16   C     C_R   0.277843 0.121853 0.569728 0.544773
C17   C     C_1   0.202410 0.146260 0.659810 -0.003285
C18   C     C_3   0.687202 0.244192 0.738955 -0.133874
C19   C     C_3   0.585047 0.284430 0.774845 -0.108808
C20   C     C_1   0.690709 0.207525 0.903211 -0.005775
C21   C     C_1   0.635025 0.133337 0.618439 0.021750
C22   C     C_3   0.763867 0.145548 0.773605 -0.090875
C23   C     C_3   0.691654 0.564622 0.767898 -0.104906
C24   C     C_3   0.661427 0.185405 0.808621 0.031249
C25   C     C_3   0.726403 0.067596 0.747704 0.100257
C26   C     C_3   0.650882 0.165157 0.713445 0.033254
C27   C     C_3   0.625096 0.106232 0.783384 -0.119859
C28   C     C_R   0.622073 0.098857 0.430971 0.546265
C29   C     C_3   0.548574 0.205021 0.748648 -0.132938
C30   C     C_1   0.673218 0.196460 0.861062 -0.041148
C31   C     C_1   0.643394 0.151561 0.660825 -0.004030
C32   C     C_R   0.736377 0.702286 0.359850 -0.137355
C33   C     C_R   0.748697 0.683783 0.309559 0.016221
C34   C     C_3   0.679146 0.655516 0.805656 0.044418
C35   C     C_R   0.763537 0.661966 0.207790 0.016126
C36   C     C_R   0.853476 0.659450 0.234519 -0.132929
C37   C     C_R   0.845760 0.671081 0.285147 -0.135118
C38   C     C_R   0.773355 0.641776 0.157606 -0.136493
C39   C     C_R   0.684441 0.638597 0.132217 -0.004955
C40   C     C_R   0.602179 0.775294 0.430489 0.544850
C41   C     C_R   0.555331 0.703414 0.356923 -0.128943
C42   C     C_R   0.562770 0.692439 0.306844 0.013645
C43   C     C_R   0.658959 0.684183 0.282853 0.065416
C44   C     C_R   0.472092 0.696458 0.280352 -0.132302
C45   C     C_3   0.584510 0.657224 0.741481 -0.098789
C46   C     C_R   0.475710 0.694126 0.229919 -0.133056
C47   C     C_R   0.571978 0.683378 0.205734 0.013740
C48   C     C_R   0.664599 0.677326 0.232103 0.065127
C49   C     C_R   0.580378 0.670136 0.155710 -0.130156
C50   C     C_R   0.636716 0.718028 0.383084 -0.003212
C51   C     C_R   0.217135 0.054518 0.357774 -0.133458
C52   C     C_R   0.277529 0.120664 0.431182 0.548434
C53   C     C_R   0.189703 0.068948 0.308368 0.014479
C54   C     C_R   0.149204 0.095386 0.207808 0.015413
C55   C     C_R   0.173131 0.992921 0.230088 -0.126089
C56   C     C_3   0.662494 0.685392 0.711052 0.049464
C57   C     C_R   0.194254 0.979430 0.280018 -0.124868
C58   C     C_R   0.125070 0.111424 0.158107 -0.133238
C59   C     C_R   0.099773 0.215371 0.136773 -0.002808
C60   C     C_R   0.179118 0.250545 0.363787 -0.128060
C61   C     C_R   0.155894 0.264809 0.314478 0.013476
C62   C     C_R   0.162935 0.173202 0.286379 0.062447
C63   C     C_R   0.132354 0.367123 0.292433 -0.125269
C64   C     C_3   0.769495 0.593188 0.736700 -0.103997
C65   C     C_R   0.118049 0.378029 0.242406 -0.124317
C66   C     C_R   0.124176 0.287890 0.214201 0.012253
C67   C     C_3   0.572216 0.747671 0.779951 -0.103814
C68   C     C_R   0.145539 0.185343 0.236101 0.062414
C69   C     C_R   0.104917 0.300698 0.164619 -0.127396
C70   C     C_R   0.217058 0.143646 0.384902 -0.004352
C71   C     C_R   0.570230 0.237610 0.363297 -0.133334
C72   C     C_R   0.575495 0.256228 0.313630 0.015661
C73   C     C_R   0.585481 0.289347 0.213400 0.013055
C74   C     C_R   0.511521 0.381160 0.243862 -0.126756
C75   C     C_R   0.505649 0.364412 0.293609 -0.127262
C76   C     C_3   0.757252 0.683655 0.775297 -0.086351
C77   C     C_R   0.597984 0.306078 0.164214 -0.134689
C78   C     C_3   0.649992 0.776321 0.748786 -0.087160
C79   C     C_R   0.677295 0.213954 0.135133 -0.004536
C80   C     C_R   0.720774 0.039509 0.352207 -0.126218
C81   C     C_R   0.723541 0.055303 0.302726 0.010168
C82   C     C_R   0.650554 0.163797 0.283153 0.062472
C83   C     C_R   0.796135 0.963016 0.272428 -0.125732
C84   C     C_R   0.796746 0.977862 0.222607 -0.125965
C85   C     C_R   0.727000 0.085984 0.202871 0.013539
C86   C     C_R   0.653417 0.179604 0.233064 0.062725
C87   C     C_R   0.735378 0.103287 0.153865 -0.128444
C88   C     C_1   0.697163 0.608030 0.900160 -0.010067
C89   C     C_1   0.688158 0.634217 0.858009 -0.050854
C90   C     C_R   0.641609 0.128666 0.382434 -0.000669
C91   C     C_R   0.049402 0.236063 0.949796 0.545180
C92   C     C_R   0.711628 0.562867 0.948157 0.545448
C93   C     C_R   0.722051 0.225348 0.950986 0.544600
C94   C     C_R   0.047124 0.246043 0.088774 0.547005
C95   C     C_R   0.707441 0.575920 0.086133 0.546509
C96   C     C_R   0.718176 0.234355 0.089302 0.547453
C97   C     C_2   0.806988 0.944987 0.734140 0.580391
C98   C     C_2   0.089693 0.013757 0.720044 0.561253
Cr1   Cr    Cr6+3 0.417550 0.169090 0.500530 1.022707
Cr2   Cr    Cr6+3 0.669180 0.913420 0.499920 1.033419
Cr3   Cr    Cr6+3 0.413260 0.917540 0.499520 1.033378
Cr4   Cr    Cr6+3 0.909170 0.177380 0.020380 1.029116
Cr5   Cr    Cr6+3 0.912710 0.429210 0.018220 1.024780
Cr6   Cr    Cr6+3 0.657170 0.432570 0.019030 1.023359
H1    H     H_    0.828133 0.694532 0.789877 0.158038
H2    H     H_    0.853208 0.619290 0.139282 0.119580
H3    H     H_    0.800119 0.711973 0.380174 0.116962
H4    H     H_    0.929585 0.648435 0.216282 0.092314
H5    H     H_    0.915505 0.670176 0.305177 0.093485
H6    H     H_    0.510210 0.670957 0.135968 0.128599
H7    H     H_    0.404745 0.697575 0.209883 0.095373
H8    H     H_    0.397638 0.703408 0.298620 0.092773
H9    H     H_    0.121247 0.045424 0.136607 0.119938
H10   H     H_    0.245810 0.971959 0.374099 0.124128
H11   H     H_    0.632502 0.863790 0.740281 0.124000
H12   H     H_    0.228048 0.285916 0.795597 0.118201
H13   H     H_    0.214417 0.899044 0.296431 0.099642
H14   H     H_    0.085244 0.381417 0.148561 0.130128
H15   H     H_    0.127593 0.437642 0.313713 0.100856
H16   H     H_    0.177099 0.320225 0.384784 0.129793
H17   H     H_    0.552637 0.391694 0.149663 0.126514
H18   H     H_    0.508774 0.306295 0.386630 0.117278
H19   H     H_    0.458977 0.465934 0.229292 0.106185
H20   H     H_    0.447615 0.436229 0.316477 0.103603
H21   H     H_    0.795136 0.031772 0.131199 0.127780
H22   H     H_    0.491432 0.811295 0.798232 0.106380
H23   H     H_    0.053539 0.350758 0.724637 0.109708
H24   H     H_    0.854016 0.905643 0.199718 0.104522
H25   H     H_    0.852448 0.879508 0.287307 0.105942
H26   H     H_    0.775301 0.954651 0.366460 0.131719
H27   H     H_    0.513696 0.646000 0.727039 0.119434
H28   H     H_    0.708821 0.477220 0.776369 0.104100
H29   H     H_    0.274334 0.968587 0.795221 0.115886
H30   H     H_    0.367810 0.082266 0.741669 0.106283
H31   H     H_    0.871972 0.822993 0.681594 0.338790
H32   H     H_    0.850216 0.529715 0.718342 0.104822
H33   H     H_    0.479202 0.713010 0.374739 0.129052
H34   H     H_    0.959789 0.237548 0.778031 0.100431
H35   H     H_    0.176145 0.923132 0.208887 0.101293
H36   H     H_    0.101599 0.457085 0.225794 0.098512
H37   H     H_    0.060421 0.943797 0.660417 0.351818
H38   H     H_    0.526353 0.374190 0.786711 0.119397
H39   H     H_    0.712823 0.300648 0.720441 0.112122
H40   H     H_    0.459787 0.229812 0.737914 0.112270
H41   H     H_    0.599847 0.049428 0.801860 0.108289
H42   H     H_    0.852312 0.120981 0.784678 0.155558
O1    O     O_R   0.301710 0.195650 0.554160 -0.513209
O2    O     O_R   0.635520 0.542770 0.964420 -0.506852
O3    O     O_R   0.665950 0.325030 0.970100 -0.496370
O4    O     O_R   0.522390 0.158990 0.550460 -0.503561
O5    O     O_R   0.816620 0.158530 0.074540 -0.519231
O6    O     O_R   0.004460 0.188870 0.069750 -0.499473
O7    O     O_R   0.025800 0.341780 0.072300 -0.522964
O8    O     O_R   0.807650 0.528950 0.067500 -0.502369
O9    O     O_R   0.633420 0.550490 0.071810 -0.523015
O10   O     O_R   0.664000 0.332180 0.069640 -0.501779
O11   O     O_3   0.826350 0.346390 0.019210 -0.246076
O12   O     O_R   0.658900 0.818120 0.449760 -0.503955
O13   O     O_R   0.694390 0.003530 0.554040 -0.486038
O14   O     O_R   0.657700 0.819660 0.549320 -0.490874
O15   O     O_R   0.501930 0.803280 0.552920 -0.504006
O16   O     O_R   0.318170 0.023580 0.549580 -0.484513
O17   O     O_R   0.303010 0.193990 0.446760 -0.519527
O18   O     O_R   0.523600 0.157450 0.450900 -0.498848
O19   O     O_R   0.695690 0.001860 0.446640 -0.522824
O20   O     O_2   0.864564 0.877845 0.765651 -0.510757
O21   O     O_R   0.815625 0.907738 0.685884 -0.700110
O22   O     O_2   0.057491 0.964822 0.747431 -0.507169
O23   O     O_R   0.503220 0.801620 0.445520 -0.524244
O24   O     O_R   0.089689 0.997584 0.669776 -0.695476
O25   O     O_R   0.319370 0.022040 0.450020 -0.501691
O26   O     O_3   0.499990 0.000010 0.499990 -0.248757
O27   O     O_R   0.818720 0.150820 0.967160 -0.501803
O28   O     O_R   0.006410 0.181720 0.970200 -0.492581
O29   O     O_R   0.027890 0.334070 0.964920 -0.505815
O30   O     O_R   0.809600 0.521790 0.967960 -0.493814

loop_
_geom_bond_atom_site_label_1
_geom_bond_atom_site_label_2
_ccdc_geom_bond_type
C84   H24   S    
C66   C68   A    
C20   C93   S    
C63   C65   A    
C52   C70   S    
C1    C21   S    
C76   H1    S    
C23   C45   S    
C92   O2    A    
C41   C42   A    
Cr6   O2    S    
C71   H18   S    
C93   O3    A    
C35   C36   A    
C18   C26   S    
C24   C27   S    
Cr6   O11   S    
C2    C12   T    
C64   H32   S    
C81   C82   A    
C55   H35   S    
C47   C49   A    
C20   C30   T    
C85   C86   A    
C92   O30   A    
Cr4   O27   S    
C5    H29   S    
C21   C31   T    
C16   O1    A    
C40   O12   A    
C36   C37   A    
C76   C78   S    
C83   H25   S    
C38   C39   A    
C11   C14   S    
C66   C69   A    
C54   C68   A    
C94   O6    A    
C6    C91   S    
C69   H14   S    
C56   C78   S    
C27   C29   S    
Cr4   O11   S    
Cr3   O26   S    
C8    H34   S    
C18   C19   S    
C73   C74   A    
C61   C63   A    
C9    C13   S    
Cr5   O30   S    
C6    C15   T    
C54   C55   A    
C65   H36   S    
Cr5   O7    S    
C11   C17   S    
C88   C92   S    
C45   C56   S    
C8    C9    S    
C7    C17   T    
C22   C25   S    
C45   C67   S    
C58   H9    S    
C56   C64   S    
Cr3   O23   S    
C59   C94   S    
C4    C12   S    
C43   C48   A    
C41   H33   S    
Cr4   O5    S    
C88   C89   T    
C85   C87   A    
C74   H19   S    
C26   C31   S    
C13   C14   S    
C67   C78   S    
C42   C44   A    
C72   C75   A    
C35   C48   A    
C52   O25   A    
C79   C87   A    
C40   O23   A    
C81   C83   A    
C44   C46   A    
C77   C79   A    
Cr1   O4    S    
C51   H10   S    
C80   H26   S    
C74   C75   A    
C75   H20   S    
C33   C43   A    
C22   H42   S    
C1    O13   A    
C35   C38   A    
C77   H17   S    
C84   C85   A    
C78   H11   S    
C3    C8    S    
C67   H22   S    
C53   C57   A    
Cr5   O11   S    
Cr1   O26   S    
C14   H30   S    
C16   O16   A    
C25   C26   S    
C97   O21   S    
C29   H40   S    
C32   H3    S    
C33   C37   A    
C91   O28   A    
C52   O17   A    
C60   C61   A    
C51   C53   A    
Cr6   O3    S    
C38   H2    S    
C5    C9    S    
C63   H15   S    
C53   C62   A    
Cr2   O14   S    
Cr5   O8    S    
C47   C48   A    
C60   C70   A    
C27   H41   S    
C23   C34   S    
C39   C95   S    
Cr5   O29   S    
C64   C76   S    
C91   O29   A    
C1    O4    A    
Cr6   O10   S    
C32   C50   A    
C5    C14   S    
C28   O19   A    
C59   C69   A    
Cr1   O17   S    
C44   H8    S    
C25   C97   S    
C23   C64   S    
C51   C70   A    
C45   H27   S    
C19   H38   S    
C55   C57   A    
C72   C82   A    
C22   C24   S    
C83   C84   A    
Cr4   O28   S    
C42   C43   A    
C96   O10   A    
C10   H23   S    
C19   C29   S    
C41   C50   A    
C87   H21   S    
Cr2   O26   S    
C28   O18   A    
C57   H13   S    
C54   C58   A    
Cr1   O1    S    
C46   C47   A    
C18   H39   S    
H31   O21   S    
C39   C49   A    
C18   C22   S    
C37   H5    S    
C7    C16   S    
C80   C81   A    
C3    C5    S    
C10   C13   S    
C34   C67   S    
C25   C27   S    
C62   C68   A    
C95   O8    A    
C32   C33   A    
Cr3   O15   S    
C19   C24   S    
C58   C59   A    
C34   C89   S    
C71   C72   A    
C2    C56   S    
C82   C86   A    
C96   O5    A    
Cr2   O13   S    
C4    O14   A    
C71   C90   A    
C94   O7    A    
C40   C50   S    
C93   O27   A    
H37   O24   S    
C23   H28   S    
Cr3   O25   S    
C95   O9    A    
Cr6   O9    S    
C80   C90   A    
C61   C62   A    
C24   C30   S    
C73   C86   A    
C13   H12   S    
C3    C11   S    
C10   C11   S    
C60   H16   S    
Cr1   O18   S    
C98   O24   S    
Cr2   O12   S    
C79   C96   S    
C36   H4    S    
Cr3   O16   S    
C26   C29   S    
C8    C10   S    
C65   C66   A    
Cr4   O6    S    
C73   C77   A    
C4    O15   A    
Cr2   O19   S    
C28   C90   S    
C3    C98   S    
C46   H7    S    
C98   O22   D    
C97   O20   D    
C9    C15   S    
C34   C76   S    
C49   H6    S    
