data_mof_unit_39226.cif
_audit_creation_date              2012-12-10T17:33:50-0500
_audit_creation_method            fapswitch 2.2
_symmetry_space_group_name_H-M    P1
_symmetry_Int_Tables_number       1
_space_group_crystal_system       triclinic
_cell_length_a                    10.682495
_cell_length_b                    12.00694
_cell_length_c                    12.950721
_cell_angle_alpha                 92.95087
_cell_angle_beta                  90.966956
_cell_angle_gamma                 86.560652
_cell_volume                      1655.76340123

loop_
_atom_site_label
_atom_site_type_symbol
_atom_type_description
_atom_site_fract_x
_atom_site_fract_y
_atom_site_fract_z
_atom_type_partial_charge
C1    C     C_R   0.493778 0.521032 0.700434 0.936140
C2    C     C_3   0.121564 0.496322 0.508617 -0.075180
C3    C     C_3   0.071647 0.493901 0.395598 -0.437709
C4    C     C_3   0.065935 0.603191 0.568407 -0.487248
C5    C     C_R   0.524006 0.464647 0.189190 -0.141690
C6    C     C_R   0.489989 0.531958 0.812048 -0.186420
C7    C     C_R   0.505111 0.649887 0.968706 0.542605
C8    C     C_R   0.502865 0.637271 0.861193 -0.334474
C9    C     C_R   0.482894 0.436533 0.870436 0.247222
C10   C     C_R   0.507690 0.446290 0.975702 -0.005312
C11   C     C_R   0.510801 0.553335 0.025902 0.014860
C12   C     C_R   0.742339 0.500477 0.503509 0.960144
C13   C     C_R   0.515324 0.561390 0.132823 -0.265209
C14   C     C_R   0.544827 0.358929 0.137711 0.314832
C15   C     C_R   0.532078 0.350550 0.031645 -0.132706
C16   C     C_R   0.375549 0.951763 0.404203 0.467604
C17   C     C_R   0.388884 0.836234 0.415968 -0.099958
C18   C     C_R   0.551334 0.858164 0.540204 0.009563
C19   C     C_R   0.540962 0.975655 0.534906 -0.091039
C20   C     C_R   0.453266 0.024138 0.464308 -0.152551
C21   C     C_R   0.448185 0.142616 0.456935 0.419123
C22   C     C_R   0.602343 0.161484 0.590388 -0.055629
C23   C     C_R   0.509406 0.478130 0.299964 0.951381
C24   C     C_R   0.614691 0.045622 0.598796 0.183936
C25   C     C_R   0.257984 0.499657 0.505984 0.904002
C26   C     C_3   0.935356 0.384841 0.552403 0.506640
C27   C     C_3   0.079559 0.391990 0.565066 0.314721
C28   C     C_3   0.926978 0.513207 0.392538 0.668322
C29   C     C_3   0.923492 0.597991 0.576754 -0.481538
C30   C     C_3   0.879394 0.498210 0.505918 -0.096944
H1    H     H_    0.086539 0.679060 0.527239 0.250642
H2    H     H_    0.116054 0.558821 0.352806 0.170152
H3    H     H_    0.508568 0.643362 0.172167 0.215772
H4    H     H_    0.545385 0.268515 0.993541 0.219749
H5    H     H_    0.511796 0.709925 0.816248 0.202347
H6    H     H_    0.657639 0.215140 0.639993 0.223963
H7    H     H_    0.327572 0.780784 0.374037 0.150657
H8    H     H_    0.617943 0.818009 0.592170 0.179527
H9    H     H_    0.103313 0.409219 0.648634 0.081863
H10   H     H_    0.100828 0.412047 0.356499 0.239520
H11   H     H_    0.877782 0.679137 0.554444 0.264245
H12   H     H_    0.898022 0.589600 0.658605 0.218352
H13   H     H_    0.108646 0.611441 0.647246 0.188471
N1    N     N_R   0.523380 0.207800 0.519350 -0.155602
N2    N     N_R   0.476620 0.792180 0.480650 -0.136169
O1    O     O_R   0.506240 0.421700 0.658830 -0.583850
O2    O     O_R   0.491240 0.609310 0.646410 -0.643081
O3    O     O_R   0.692710 0.406190 0.506230 -0.557857
O4    O     O_R   0.677700 0.593810 0.493810 -0.606718
O5    O     O_R   0.508760 0.390690 0.353590 -0.541195
O6    O     O_R   0.493760 0.578300 0.341170 -0.641971
O7    O     O_R   0.322300 0.406190 0.506190 -0.556503
O8    O     O_R   0.307290 0.593810 0.493770 -0.644703
Zn1   Zn    Zn3+2 0.510020 0.374730 0.508290 1.060040
Zn2   Zn    Zn3+2 0.489980 0.625270 0.491710 0.959633
O9    O     O_3   0.905370 0.295604 0.480160 -0.551182
C31   C     C_3   0.915088 0.186099 0.516278 0.006679
H14   H     H_    0.988569 0.136089 0.471857 0.201080
H15   H     H_    0.826030 0.146268 0.498592 0.159887
H16   H     H_    0.937073 0.179341 0.599433 0.152388
O10   O     O_3   0.893013 0.625619 0.366897 -0.616083
C32   C     C_3   0.902507 0.644867 0.260544 -0.210767
H17   H     H_    0.812169 0.628835 0.220385 0.208863
H18   H     H_    0.980315 0.594505 0.221412 0.158023
H19   H     H_    0.919888 0.734173 0.252758 0.189676
Br1   Br    Br    0.598756 0.223003 0.202424 -0.403342
O11   O     O_3   0.518765 0.753981 0.017558 -0.599856
C33   C     C_3   0.410178 0.823507 0.999702 -0.286599
H20   H     H_    0.325121 0.786927 0.029055 0.143960
H21   H     H_    0.397586 0.841337 0.916705 0.180843
H22   H     H_    0.420941 0.904953 0.042033 0.201849
Br2   Br    Br    0.424672 0.295038 0.813969 -0.544170
Br3   Br    Br    0.337194 0.215142 0.358875 -0.348971
Br4   Br    Br    0.862924 0.369774 0.691787 -0.583956
O12   O     O_3   0.277897 0.992369 0.342725 -0.576573
C34   C     C_3   0.303672 0.962312 0.238095 -0.217110
H23   H     H_    0.293495 0.871704 0.220705 0.124991
H24   H     H_    0.398627 0.986135 0.216479 0.186545
H25   H     H_    0.234396 0.008411 0.188948 0.215979
Br5   Br    Br    0.733034 0.988948 0.699369 -0.515449
O13   O     O_3   0.140538 0.290739 0.525104 -0.546837
C35   C     C_3   0.191734 0.225336 0.605133 -0.212332
H26   H     H_    0.127628 0.222481 0.671621 0.163506
H27   H     H_    0.282140 0.257236 0.632209 0.221399
H28   H     H_    0.210336 0.138349 0.573729 0.184095
Br6   Br    Br    0.855233 0.404502 0.290114 -0.441309

loop_
_geom_bond_atom_site_label_1
_geom_bond_atom_site_label_2
_ccdc_geom_bond_type
C29   H12   S    
C16   O12   S    
C2    C4    S    
C19   C20   A    
C9    Br2   S    
C12   O3    A    
C6    C9    A    
C12   O4    A    
C7    C8    A    
O3    Zn1   S    
C26   C27   S    
O5    Zn1   S    
C34   H24   S    
C3    C28   S    
C25   O8    A    
C10   C15   A    
C1    O1    A    
C31   H15   S    
C21   Br3   S    
O9    C31   S    
C18   C19   A    
C32   H18   S    
C33   H20   S    
C24   Br5   S    
C22   N1    A    
C27   H9    S    
C16   C17   A    
C34   H25   S    
C2    C27   S    
C9    C10   A    
C15   H4    S    
C5    C13   A    
C4    C29   S    
C29   H11   S    
C28   O10   S    
O10   C32   S    
O7    Zn1   S    
O13   C35   S    
O8    Zn2   S    
O11   C33   S    
C27   O13   S    
C34   H23   S    
C1    O2    A    
C31   H16   S    
C6    C8    A    
O4    Zn2   S    
C1    C6    S    
C8    H5    S    
C7    C11   A    
O12   C34   S    
C13   H3    S    
C29   C30   S    
C21   N1    A    
C23   O6    A    
C5    C23   S    
C16   C20   A    
O1    Zn1   S    
C32   H17   S    
C14   Br1   S    
C17   H7    S    
C5    C14   A    
C3    H10   S    
C26   C30   S    
C35   H27   S    
C28   Br6   S    
C22   C24   A    
C18   N2    A    
O2    Zn2   S    
C32   H19   S    
C12   C30   S    
C17   N2    A    
C23   O5    A    
C26   O9    S    
C4    H13   S    
C35   H28   S    
C22   H6    S    
C28   C30   S    
C2    C3    S    
C18   H8    S    
C25   O7    A    
C11   C13   A    
C31   H14   S    
C33   H22   S    
C26   Br4   S    
C19   C24   A    
C2    C25   S    
O6    Zn2   S    
C3    H2    S    
C4    H1    S    
C10   C11   A    
C7    O11   S    
N1    Zn1   S    
C20   C21   A    
N2    Zn2   S    
C33   H21   S    
C35   H26   S    
C14   C15   A    
