data_mof_unit_11595.cif
_audit_creation_date              2012-12-10T18:04:37-0500
_audit_creation_method            fapswitch 2.2
_symmetry_space_group_name_H-M    P1
_symmetry_Int_Tables_number       1
_space_group_crystal_system       triclinic
_cell_length_a                    19.375979
_cell_length_b                    17.517752
_cell_length_c                    12.610091
_cell_angle_alpha                 89.863888
_cell_angle_beta                  98.92751
_cell_angle_gamma                 90.087319
_cell_volume                      4228.2954368

loop_
_atom_site_label
_atom_site_type_symbol
_atom_type_description
_atom_site_fract_x
_atom_site_fract_y
_atom_site_fract_z
_atom_type_partial_charge
C1    C     C_R   0.412337 0.104452 0.444783 0.889286
C2    C     C_R   0.412381 0.895467 0.445040 0.888351
C3    C     C_R   0.912331 0.604439 0.444776 0.889015
C4    C     C_R   0.912380 0.395469 0.445039 0.887874
C5    C     C_R   0.755461 0.203673 0.543061 0.049295
C6    C     C_R   0.752904 0.793117 0.542014 0.076095
C7    C     C_R   0.255468 0.703662 0.543065 0.049113
C8    C     C_R   0.252999 0.293288 0.541974 0.076390
C9    C     C_R   0.786704 0.207120 0.652549 0.161632
C10   C     C_R   0.785486 0.791316 0.651075 0.133591
C11   C     C_R   0.286712 0.707107 0.652554 0.161600
C12   C     C_R   0.285601 0.291536 0.651032 0.132107
C13   C     C_R   0.353237 0.740116 0.679379 0.063022
C14   C     C_R   0.352339 0.259164 0.677244 0.066700
C15   C     C_R   0.853232 0.240122 0.679374 0.062906
C16   C     C_R   0.852228 0.758948 0.677272 0.068495
C17   C     C_R   0.383071 0.777008 0.598879 -0.181801
C18   C     C_R   0.381951 0.222663 0.596694 -0.184725
C19   C     C_R   0.883068 0.277010 0.598873 -0.181188
C20   C     C_R   0.881884 0.722559 0.596670 -0.185280
C21   C     C_R   0.686228 0.180597 0.518395 -0.244093
C22   C     C_R   0.683712 0.816512 0.518777 -0.168949
C23   C     C_R   0.186235 0.680589 0.518400 -0.243261
C24   C     C_R   0.183741 0.316503 0.518815 -0.165907
C25   C     C_R   0.683131 0.147901 0.703518 -0.213879
C26   C     C_R   0.683651 0.853053 0.703026 -0.219200
C27   C     C_R   0.183141 0.647883 0.703521 -0.213800
C28   C     C_R   0.183734 0.353192 0.703012 -0.220069
C29   C     C_R   0.368030 0.829175 0.413848 -0.124715
C30   C     C_R   0.367437 0.170169 0.412798 -0.155370
C31   C     C_R   0.868026 0.329181 0.413844 -0.124462
C32   C     C_R   0.867371 0.670093 0.412744 -0.130167
C33   C     C_R   0.644373 0.000088 0.134212 -0.207689
C34   C     C_R   0.144376 0.499900 0.134218 -0.216014
C35   C     C_R   0.377888 0.000090 0.762438 0.624405
C36   C     C_R   0.877888 0.500157 0.762440 0.626527
C37   C     C_R   0.352437 0.000431 0.860052 -0.363912
C38   C     C_R   0.852439 0.500597 0.860055 -0.367717
C39   C     C_R   0.591096 0.899271 0.557456 0.842705
C40   C     C_R   0.591285 0.100641 0.557361 0.841916
C41   C     C_R   0.091099 0.399267 0.557457 0.842872
C42   C     C_R   0.091287 0.600638 0.557362 0.842041
C43   C     C_R   0.399093 0.000597 0.955163 -0.229073
C44   C     C_R   0.899095 0.500769 0.955165 -0.235230
C45   C     C_R   0.471969 0.000410 0.953979 0.022323
C46   C     C_R   0.971971 0.500477 0.953980 0.024131
C47   C     C_R   0.495410 0.000173 0.853671 0.105038
C48   C     C_R   0.995411 0.500179 0.853672 0.104930
C49   C     C_R   0.522101 0.000382 0.048021 -0.070330
C50   C     C_R   0.022104 0.500401 0.048022 -0.070044
C51   C     C_R   0.594824 0.000304 0.040617 0.113107
C52   C     C_R   0.094827 0.500210 0.040622 0.113807
C53   C     C_R   0.617059 0.000324 0.940436 0.378548
C54   C     C_R   0.117062 0.500227 0.940442 0.376108
C55   C     C_R   0.566996 0.000135 0.848233 -0.338743
C56   C     C_R   0.066999 0.500097 0.848237 -0.337800
C57   C     C_R   0.502834 0.000317 0.150304 -0.032185
C58   C     C_R   0.002835 0.500381 0.150304 -0.033605
C59   C     C_R   0.621609 0.999793 0.232667 0.048046
C60   C     C_R   0.121610 0.499673 0.232670 0.048720
C61   C     C_R   0.749752 0.178936 0.732257 -0.171878
C62   C     C_R   0.750037 0.821550 0.731004 -0.174291
C63   C     C_R   0.249762 0.678918 0.732260 -0.172216
C64   C     C_R   0.250152 0.321768 0.730967 -0.172715
C65   C     C_R   0.652033 0.147513 0.595620 -0.059517
C66   C     C_R   0.651252 0.851811 0.595862 -0.084492
C67   C     C_R   0.152039 0.647503 0.595623 -0.059530
C68   C     C_R   0.151285 0.351839 0.595880 -0.084889
C69   C     C_R   0.341240 0.818688 0.304876 -0.334077
C70   C     C_R   0.341392 0.180920 0.303781 -0.224921
C71   C     C_R   0.841232 0.318700 0.304873 -0.335197
C72   C     C_R   0.841074 0.680576 0.303727 -0.282430
C73   C     C_R   0.295310 0.758695 0.272377 0.159122
C74   C     C_R   0.294451 0.239328 0.270578 0.048912
C75   C     C_R   0.795299 0.258711 0.272372 0.159453
C76   C     C_R   0.793599 0.738999 0.270449 0.062719
C77   C     C_R   0.271453 0.712700 0.350038 0.425569
C78   C     C_R   0.267156 0.283424 0.348590 0.397836
C79   C     C_R   0.771443 0.212714 0.350033 0.425924
C80   C     C_R   0.767037 0.783166 0.348724 0.432681
C81   C     C_R   0.291601 0.730048 0.461261 -0.089912
C82   C     C_R   0.288192 0.266158 0.459551 0.016716
C83   C     C_R   0.791594 0.230058 0.461256 -0.090008
C84   C     C_R   0.788033 0.765879 0.459619 0.000416
C85   C     C_R   0.348463 0.779036 0.491614 0.022104
C86   C     C_R   0.346601 0.219346 0.489986 -0.012721
C87   C     C_R   0.848459 0.279042 0.491609 0.022177
C88   C     C_R   0.846505 0.719199 0.489971 -0.012763
H1    H     H_    0.656911 0.122753 0.764846 0.166160
H2    H     H_    0.658718 0.880007 0.764201 0.166461
H3    H     H_    0.156923 0.622728 0.764847 0.166386
H4    H     H_    0.158802 0.380151 0.764180 0.165609
H5    H     H_    0.700017 0.999959 0.131861 0.215923
H6    H     H_    0.200021 0.499643 0.131871 0.213369
H7    H     H_    0.449585 0.000418 0.164718 0.123872
H8    H     H_    0.949587 0.500557 0.164717 0.122984
H9    H     H_    0.376163 0.000884 0.027624 0.152904
H10   H     H_    0.876165 0.501141 0.027625 0.149960
H11   H     H_    0.296816 0.000566 0.862590 0.152873
H12   H     H_    0.796818 0.500807 0.862594 0.150672
H13   H     H_    0.585367 0.999904 0.773003 0.210487
H14   H     H_    0.085370 0.499875 0.773006 0.210583
H15   H     H_    0.772310 0.179806 0.816365 0.172867
H16   H     H_    0.773819 0.822541 0.814558 0.172009
H17   H     H_    0.272321 0.679783 0.816367 0.172649
H18   H     H_    0.273956 0.322808 0.814511 0.170267
H19   H     H_    0.658323 0.186659 0.437595 0.199224
H20   H     H_    0.654012 0.808482 0.439667 0.199408
H21   H     H_    0.158330 0.686654 0.437601 0.199547
H22   H     H_    0.153962 0.308294 0.439806 0.199438
H23   H     H_    0.356733 0.856658 0.244776 0.172958
H24   H     H_    0.358187 0.144304 0.243479 0.183698
H25   H     H_    0.856725 0.356672 0.244774 0.172647
H26   H     H_    0.857739 0.643338 0.244044 0.169596
H27   H     H_    0.433893 0.803046 0.620697 0.158507
H28   H     H_    0.433211 0.197661 0.618165 0.162937
H29   H     H_    0.933892 0.303044 0.620690 0.158626
H30   H     H_    0.933190 0.697657 0.618099 0.162489
H31   H     H_    0.658884 0.999278 0.306007 0.174660
H32   H     H_    0.158883 0.499101 0.306011 0.175533
N1    N     N_R   0.552340 0.000000 0.237260 -0.112094
N2    N     N_R   0.052340 0.500000 0.237260 -0.111863
N3    N     N_R   0.448170 0.000000 0.762060 -0.135829
N4    N     N_R   0.948170 0.500000 0.762060 -0.135798
O1    O     O_R   0.448200 0.076800 0.373930 -0.621675
O2    O     O_R   0.448200 0.923200 0.373930 -0.620778
O3    O     O_R   0.948200 0.576800 0.373930 -0.620129
O4    O     O_R   0.948200 0.423200 0.373930 -0.620888
O5    O     O_R   0.414750 0.076790 0.542400 -0.556175
O6    O     O_R   0.414750 0.923210 0.542400 -0.556417
O7    O     O_R   0.914750 0.576790 0.542400 -0.558119
O8    O     O_R   0.914750 0.423210 0.542400 -0.556504
O9    O     O_R   0.585240 0.923200 0.457600 -0.594434
O10   O     O_R   0.585240 0.076800 0.457600 -0.604163
O11   O     O_R   0.085240 0.423200 0.457600 -0.594745
O12   O     O_R   0.085240 0.576800 0.457600 -0.604073
O13   O     O_R   0.551780 0.923190 0.626070 -0.648291
O14   O     O_R   0.551780 0.076810 0.626070 -0.646879
O15   O     O_R   0.051780 0.423190 0.626070 -0.648101
O16   O     O_R   0.051780 0.576810 0.626070 -0.646834
Zn1   Zn    Zn3+2 0.522330 0.000000 0.387520 0.953945
Zn2   Zn    Zn3+2 0.022330 0.500000 0.387520 0.953280
Zn3   Zn    Zn3+2 0.477660 0.000000 0.612480 0.960667
Zn4   Zn    Zn3+2 0.977660 0.500000 0.612480 0.960146
O17   O     O_3   0.687770 0.000438 0.934395 -0.779966
H33   H     H_    0.694521 0.000800 0.858068 0.325647
O18   O     O_3   0.187774 0.500293 0.934406 -0.785415
H34   H     H_    0.194527 0.500743 0.858081 0.325582
O19   O     O_3   0.333244 0.999887 0.666036 -0.725105
H35   H     H_    0.284282 0.000031 0.680096 0.307983
O20   O     O_3   0.833243 0.499939 0.666040 -0.725897
H36   H     H_    0.784281 0.500146 0.680101 0.307296
N5    N     N_3   0.388149 0.740351 0.788698 -0.463179
H37   H     H_    0.433795 0.773129 0.796113 0.189134
H38   H     H_    0.403647 0.684284 0.808355 0.184823
N6    N     N_3   0.388061 0.259518 0.786097 -0.459501
H39   H     H_    0.439800 0.241605 0.789231 0.189258
H40   H     H_    0.363642 0.219012 0.828795 0.188982
N7    N     N_3   0.888144 0.240356 0.788693 -0.462918
H41   H     H_    0.933793 0.273130 0.796107 0.189279
H42   H     H_    0.903636 0.184288 0.808352 0.185891
N8    N     N_3   0.887945 0.759268 0.786131 -0.458761
H43   H     H_    0.939651 0.741232 0.789290 0.189666
H44   H     H_    0.863450 0.718837 0.828845 0.183982
O21   O     O_3   0.733518 0.148413 0.314678 -0.779378
H45   H     H_    0.741920 0.109112 0.371900 0.332385
O22   O     O_3   0.726000 0.846858 0.320314 -0.805168
H46   H     H_    0.719706 0.855109 0.241800 0.351304
O23   O     O_3   0.233525 0.648400 0.314684 -0.779334
H47   H     H_    0.241922 0.609099 0.371908 0.332072
O24   O     O_3   0.225693 0.346839 0.320502 -0.807101
H48   H     H_    0.214031 0.351561 0.241727 0.328661
N9    N     N_3   0.272774 0.743301 0.160493 -0.394297
H49   H     H_    0.297164 0.780491 0.112867 0.169039
H50   H     H_    0.219258 0.754866 0.143876 0.202640
N10   N     N_3   0.274303 0.251073 0.157500 -0.466736
H51   H     H_    0.220059 0.245463 0.138576 0.183813
H52   H     H_    0.288997 0.306150 0.137891 0.198349
N11   N     N_3   0.772759 0.243321 0.160487 -0.393722
H53   H     H_    0.797148 0.280512 0.112862 0.168889
H54   H     H_    0.719243 0.254888 0.143876 0.201673
N12   N     N_3   0.770642 0.752132 0.157906 -0.462070
H55   H     H_    0.798910 0.718424 0.111464 0.187933
H56   H     H_    0.718594 0.734301 0.140648 0.181159

loop_
_geom_bond_atom_site_label_1
_geom_bond_atom_site_label_2
_ccdc_geom_bond_type
C59   N1    A    
C83   C87   A    
O24   H48   S    
C39   O13   A    
O8    Zn4   S    
O21   H45   S    
C11   C13   A    
O23   H47   S    
C14   C18   A    
O18   H34   S    
C37   H11   S    
C72   C76   A    
C20   H30   S    
O17   H33   S    
C4    O8    A    
N9    H49   S    
C15   C19   A    
C18   C86   A    
C2    C29   S    
C9    C61   A    
C60   N2    A    
N6    H39   S    
C61   H15   S    
C1    O1    A    
C1    O5    A    
O14   Zn3   S    
C5    C83   A    
C3    O3    A    
C6    C22   A    
C72   H26   S    
C49   C57   A    
C71   H25   S    
C42   O12   A    
C23   C67   A    
C58   H8    S    
N12   H55   S    
C22   C66   A    
O12   Zn2   S    
C2    O6    A    
C44   H10   S    
O11   Zn2   S    
C44   C46   A    
C49   C51   A    
C40   O14   A    
C70   C74   A    
C50   C52   A    
O20   H36   S    
N7    H42   S    
C27   H3    S    
C45   C49   A    
C8    C12   A    
C30   C86   A    
C75   N11   S    
C80   O22   S    
C29   C85   A    
C80   C84   A    
C21   C65   A    
C53   C55   A    
O13   Zn3   S    
C33   C59   A    
C71   C75   A    
C34   C60   A    
C10   C62   A    
C76   N12   S    
C30   C70   A    
C52   C54   A    
C38   C44   A    
C41   C68   S    
C29   C69   A    
C45   C47   A    
C48   N4    A    
C23   H21   S    
C46   C48   A    
C58   N2    A    
C6    C84   A    
C4    O4    A    
C42   O16   A    
C26   C66   A    
C34   H6    S    
C78   O24   S    
C31   C87   A    
C32   C72   A    
O1    Zn1   S    
O22   H46   S    
C74   N10   S    
C16   N8    S    
C82   C86   A    
C40   O10   A    
C62   H16   S    
C3    O7    A    
C51   C53   A    
O3    Zn2   S    
C84   C88   A    
C37   C43   A    
C7    C11   A    
C5    C9    A    
N1    Zn1   S    
C27   C63   A    
O15   Zn4   S    
C78   C82   A    
C47   N3    A    
N7    H41   S    
C77   C81   A    
C26   H2    S    
C16   C20   A    
C53   O17   S    
C50   C58   A    
C24   H22   S    
C28   H4    S    
C25   C61   A    
C79   O21   S    
C69   C73   A    
O6    Zn3   S    
C43   C45   A    
C13   N5    S    
N5    H38   S    
C21   H19   S    
N9    H50   S    
C70   H24   S    
C2    O2    A    
C38   H12   S    
N10   H51   S    
C7    C81   A    
C12   C14   A    
C40   C65   S    
C57   H7    S    
C42   C67   S    
C39   C66   S    
C17   C85   A    
C76   C80   A    
N2    Zn2   S    
C36   N4    A    
C18   H28   S    
C36   C38   A    
C28   C64   A    
C41   O11   A    
C54   O18   S    
C17   H27   S    
C47   C55   A    
N8    H43   S    
C39   O9    A    
C35   C37   A    
C48   C56   A    
C12   C64   A    
C46   C50   A    
C59   H31   S    
C14   N6    S    
C25   H1    S    
C36   O20   S    
O16   Zn4   S    
C28   C68   A    
C33   H5    S    
C15   N7    S    
C6    C10   A    
C35   N3    A    
C54   C56   A    
C64   H18   S    
O5    Zn3   S    
C33   C51   A    
C55   H13   S    
O2    Zn1   S    
C34   C52   A    
C73   N9    S    
C13   C17   A    
N6    H40   S    
C26   C62   A    
C19   C87   A    
C56   H14   S    
N8    H44   S    
C10   C16   A    
O19   H35   S    
O10   Zn1   S    
C79   C83   A    
C69   H23   S    
C75   C79   A    
C22   H20   S    
C7    C23   A    
C20   C88   A    
C31   C71   A    
C1    C30   S    
C8    C24   A    
C60   H32   S    
C9    C15   A    
C3    C32   S    
N12   H56   S    
C41   O15   A    
C4    C31   S    
C27   C67   A    
C63   H17   S    
C24   C68   A    
C57   N1    A    
N11   H53   S    
C8    C82   A    
C5    C21   A    
C19   H29   S    
C77   O23   S    
C43   H9    S    
C74   C78   A    
N3    Zn3   S    
C25   C65   A    
C73   C77   A    
N4    Zn4   S    
O9    Zn1   S    
C35   O19   S    
N5    H37   S    
C11   C63   A    
O4    Zn2   S    
C81   C85   A    
O7    Zn4   S    
N10   H52   S    
N11   H54   S    
C32   C88   A    
