data_mof_unit_29153.cif
_audit_creation_date              2012-12-10T17:06:13-0500
_audit_creation_method            fapswitch 2.2
_symmetry_space_group_name_H-M    P1
_symmetry_Int_Tables_number       1
_space_group_crystal_system       triclinic
_cell_length_a                    10.624033
_cell_length_b                    11.028846
_cell_length_c                    9.976009
_cell_angle_alpha                 109.615056
_cell_angle_beta                  99.034315
_cell_angle_gamma                 93.975742
_cell_volume                      1078.00718843

loop_
_atom_site_label
_atom_site_type_symbol
_atom_type_description
_atom_site_fract_x
_atom_site_fract_y
_atom_site_fract_z
_atom_type_partial_charge
C1    C     C_R   0.494251 0.255350 0.442987 0.878645
C2    C     C_R   0.512294 0.745523 0.557778 0.882427
C3    C     C_R   0.259710 0.499573 0.499198 0.774324
C4    C     C_R   0.740264 0.500254 0.500763 0.787429
C5    C     C_3   0.042044 0.402023 0.539848 -0.221504
C6    C     C_3   0.957859 0.597496 0.459997 -0.228161
C7    C     C_3   0.934794 0.385337 0.407369 -0.197396
C8    C     C_3   0.065084 0.614186 0.592503 -0.202774
C9    C     C_3   0.877329 0.500123 0.502610 -0.016335
C10   C     C_3   0.122579 0.499423 0.497265 -0.016177
C11   C     C_3   0.982722 0.516586 0.633663 0.245815
C12   C     C_3   0.017172 0.482915 0.366191 0.242933
C13   C     C_2   0.498874 0.118054 0.417466 -0.389826
C14   C     C_2   0.523929 0.885293 0.587254 -0.382174
C15   C     C_2   0.556844 0.076926 0.521649 0.324556
C16   C     C_2   0.553261 0.936314 0.489309 0.320563
C17   C     C_2   0.516082 0.508227 0.079110 0.250465
C18   C     C_2   0.487589 0.487196 0.919546 0.275810
Cu1   Cu    Cu3+1 0.522260 0.521810 0.644920 0.950874
Cu2   Cu    Cu3+1 0.477740 0.478190 0.355080 0.944135
H1    H     H_    0.879151 0.292192 0.331205 0.141916
H2    H     H_    0.120672 0.707340 0.668709 0.141732
H3    H     H_    0.079019 0.322776 0.573403 0.135943
H4    H     H_    0.920844 0.676731 0.426442 0.141826
H5    H     H_    0.508790 0.948015 0.692152 0.115264
H6    H     H_    0.453794 0.048973 0.311159 0.123772
H7    H     H_    0.635780 0.617971 0.923461 0.179738
H8    H     H_    0.363613 0.383299 0.075343 0.183263
N1    N     N_2   0.444270 0.445410 0.137360 -0.291862
N2    N     N_2   0.555730 0.554590 0.862640 -0.286943
O1    O     O_R   0.511880 0.332340 0.577400 -0.516714
O2    O     O_R   0.488120 0.667660 0.422600 -0.522057
O3    O     O_R   0.474280 0.295500 0.332650 -0.589697
O4    O     O_R   0.525720 0.704500 0.667350 -0.592013
O5    O     O_R   0.335640 0.518390 0.622350 -0.590782
O6    O     O_R   0.664360 0.481610 0.377650 -0.593703
O7    O     O_R   0.298050 0.481550 0.377590 -0.577817
O8    O     O_R   0.701950 0.518450 0.622410 -0.569197
C19   C     C_3   0.965864 0.535439 0.787777 -0.840958
H9    H     H_    0.060972 0.543365 0.856842 0.223462
H10   H     H_    0.922429 0.625638 0.832379 0.231491
H11   H     H_    0.902546 0.451176 0.788067 0.249564
C20   C     C_3   0.034085 0.463751 0.212025 -0.846950
H12   H     H_    0.938968 0.455071 0.142677 0.224959
H13   H     H_    0.096951 0.548181 0.211455 0.240738
H14   H     H_    0.078047 0.373812 0.167886 0.233459
O9    O     O_3   0.577045 0.857839 0.358086 -0.745417
H15   H     H_    0.614969 0.913202 0.310362 0.306944
O10   O     O_3   0.619506 0.164473 0.655268 -0.707595
H16   H     H_    0.668176 0.116555 0.709571 0.308884
C21   C     C_3   0.376187 0.383701 0.829387 -0.746072
H17   H     H_    0.285341 0.414091 0.863837 0.175384
H18   H     H_    0.359707 0.359569 0.712892 0.274341
H19   H     H_    0.392584 0.290659 0.845251 0.191998
C22   C     C_3   0.633927 0.603075 0.167231 -0.708952
H20   H     H_    0.721962 0.560679 0.138074 0.179213
H21   H     H_    0.631531 0.694816 0.145339 0.196292
H22   H     H_    0.642683 0.635658 0.283963 0.302915

loop_
_geom_bond_atom_site_label_1
_geom_bond_atom_site_label_2
_ccdc_geom_bond_type
C8    H2    S    
C22   H20   S    
C4    O6    A    
C6    H4    S    
C18   N2    D    
Cu1   O8    S    
C12   C20   S    
C17   N1    D    
C17   C22   S    
O9    H15   S    
C5    H3    S    
C13   C15   D    
C3    O5    A    
C20   H12   S    
C21   H19   S    
Cu1   O1    S    
C2    O4    A    
C6    C9    S    
C22   H21   S    
C17   C18   S    
C1    O3    A    
C5    C10   S    
C19   H10   S    
C3    C10   S    
Cu1   O5    S    
H7    N2    S    
C11   C19   S    
Cu2   O7    S    
C9    C11   S    
C10   C12   S    
C8    C11   S    
Cu2   O3    S    
C16   O9    S    
C8    C10   S    
H8    N1    S    
C4    O8    A    
C18   C21   S    
C5    C11   S    
C19   H11   S    
C5    C7    S    
Cu2   N1    S    
C15   O10   S    
C14   H5    S    
C6    C12   S    
C7    C12   S    
C2    C14   S    
C20   H14   S    
C14   C16   D    
C13   H6    S    
C1    C13   S    
C15   C16   S    
C21   H17   S    
Cu2   O6    S    
C1    O1    A    
C3    O7    A    
C2    O2    A    
O10   H16   S    
Cu2   O2    S    
C22   H22   S    
C19   H9    S    
C7    C9    S    
C6    C8    S    
C4    C9    S    
C7    H1    S    
Cu1   N2    S    
C20   H13   S    
Cu1   Cu2   S    
C21   H18   S    
Cu1   O4    S    
