data_mof_unit_12618.cif
_audit_creation_date              2013-03-05T15:58:06-0500
_audit_creation_method            fapswitch 2.2
_symmetry_space_group_name_H-M    P1
_symmetry_Int_Tables_number       1
_space_group_crystal_system       triclinic
_cell_length_a                    12.627746
_cell_length_b                    13.090855
_cell_length_c                    14.955626
_cell_angle_alpha                 91.594513
_cell_angle_beta                  102.851823
_cell_angle_gamma                 81.357454
_cell_volume                      2382.94067542

loop_
_atom_site_label
_atom_site_type_symbol
_atom_site_description
_atom_site_fract_x
_atom_site_fract_y
_atom_site_fract_z
_atom_type_partial_charge
O1    O     O_R   0.366740 0.627160 0.477250 -0.524865
O2    O     O_R   0.544830 0.662520 0.507680 -0.630279
C1    C     C_R   0.437901 0.691005 0.480747 0.922100
O3    O     O_R   0.410940 0.482340 0.616930 -0.570400
O4    O     O_R   0.589030 0.517700 0.647360 -0.574572
C2    C     C_R   0.500284 0.502517 0.672875 0.954675
Zn1   Zn    Zn3+2 0.381090 0.476390 0.479680 1.045928
Zn2   Zn    Zn3+2 0.618910 0.523610 0.520320 0.998567
O5    O     O_R   0.455170 0.337480 0.492320 -0.631776
O6    O     O_R   0.633260 0.372840 0.522750 -0.590237
O7    O     O_R   0.410970 0.482300 0.352640 -0.608488
O8    O     O_R   0.589060 0.517660 0.383070 -0.670265
C3    C     C_R   0.562236 0.307861 0.511877 0.866588
C4    C     C_R   0.498586 0.500637 0.327126 0.847320
C5    C     C_R   0.432401 0.443018 0.171118 -0.210813
C6    C     C_R   0.493973 0.506326 0.230914 -0.067871
C7    C     C_R   0.551116 0.575885 0.199394 -0.176946
C8    C     C_R   0.547543 0.583368 0.106192 -0.002871
C9    C     C_R   0.490428 0.514689 0.045852 0.054993
C10   C     C_R   0.431685 0.445285 0.078613 0.132512
C11   C     C_R   0.602260 0.655023 0.072181 0.291127
C12   C     C_R   0.604736 0.653021 0.979400 -0.177459
C13   C     C_R   0.552448 0.582094 0.919650 -0.061350
C14   C     C_R   0.493216 0.513880 0.953083 0.021112
C15   C     C_R   0.436930 0.444169 0.893870 0.126270
C16   C     C_R   0.377545 0.377215 0.926721 -0.141428
C17   C     C_R   0.374798 0.377875 0.018876 -0.174400
C18   C     C_R   0.555342 0.579565 0.826485 0.309135
C19   C     C_R   0.499885 0.508329 0.768999 -0.174230
C20   C     C_R   0.441089 0.441879 0.802467 -0.213449
H1    H     H_    0.388418 0.389551 0.197166 0.161911
H2    H     H_    0.646209 0.709033 0.954337 0.232809
H3    H     H_    0.399212 0.387242 0.757087 0.187735
H4    H     H_    0.333895 0.323941 0.881237 0.172446
H5    H     H_    0.329396 0.324904 0.043656 0.174721
C21   C     C_R   0.723458 0.049159 0.472468 -0.220279
H6    H     H_    0.730661 0.857147 0.407244 0.178605
H7    H     H_    0.803939 0.014455 0.463533 0.199869
C22   C     C_R   0.600813 0.196150 0.511414 -0.168569
C23   C     C_R   0.285310 0.843785 0.450402 0.337800
C24   C     C_R   0.257742 0.950907 0.452721 -0.140634
C25   C     C_R   0.337817 0.014410 0.460506 -0.221946
C26   C     C_R   0.447434 0.972476 0.459421 0.107861
C27   C     C_R   0.472056 0.865989 0.443593 0.046233
C28   C     C_R   0.533581 0.032771 0.472994 0.104485
C29   C     C_R   0.637183 0.990456 0.456161 0.081665
C30   C     C_R   0.653565 0.889550 0.424450 -0.157163
C31   C     C_R   0.571581 0.828219 0.417355 -0.113807
C32   C     C_R   0.519953 0.133254 0.505515 -0.272437
C33   C     C_R   0.707281 0.151780 0.502016 0.306407
C34   C     C_R   0.396476 0.800288 0.454488 -0.246042
H8    H     H_    0.173401 0.985632 0.449006 0.206832
H9    H     H_    0.586621 0.751199 0.390324 0.172557
C35   C     C_R   0.084040 0.363022 0.354246 0.242041
H10   H     H_    0.252211 0.349919 0.342056 0.183274
N1    N     N_R   0.222190 0.444670 0.452360 -0.168311
C36   C     C_R   0.795013 0.637219 0.602376 0.071245
C37   C     C_R   0.891915 0.677885 0.611957 -0.231242
C38   C     C_R   0.971445 0.630584 0.567194 -0.068853
C39   C     C_R   0.956979 0.539109 0.516266 0.046023
C40   C     C_R   0.853171 0.506613 0.502253 0.222068
C41   C     C_R   0.038412 0.482862 0.474238 -0.122547
C42   C     C_R   0.007043 0.410729 0.403833 -0.002204
C43   C     C_R   0.901377 0.383893 0.388268 -0.103142
C44   C     C_R   0.827636 0.428125 0.439478 -0.119745
C45   C     C_R   0.150839 0.492001 0.501822 0.415281
C46   C     C_R   0.191752 0.383204 0.379882 -0.127361
N2    N     N_R   0.776970 0.554790 0.547140 -0.143428
H11   H     H_    0.040292 0.670311 0.569339 0.233792
H12   H     H_    0.903918 0.747488 0.651336 0.192549
H13   H     H_    0.750349 0.400350 0.427693 0.202729
H14   H     H_    0.445056 0.165289 0.525630 0.177683
N3    N     N_R   0.198539 0.781949 0.439068 0.236335
O9    O     O_R   0.118614 0.807854 0.480982 -0.385841
O10   O     O_R   0.184735 0.717979 0.370705 -0.351350
H15   H     H_    0.310126 0.096387 0.462015 0.169917
H16   H     H_    0.876307 0.324482 0.339898 0.211236
N4    N     N_R   0.054432 0.296918 0.277213 0.214447
O11   O     O_R   0.968409 0.326385 0.212462 -0.353639
O12   O     O_R   0.123430 0.216836 0.263458 -0.369047
H17   H     H_    0.598659 0.623143 0.248395 0.191104
N5    N     N_R   0.193714 0.535858 0.588651 0.196380
O13   O     O_R   0.182428 0.494956 0.663670 -0.392957
O14   O     O_R   0.234994 0.621545 0.593015 -0.343013
H18   H     H_    0.730903 0.675222 0.634245 0.207340
N6    N     N_R   0.653634 0.731552 0.129917 0.205464
O15   O     O_R   0.598908 0.790553 0.180803 -0.392526
O16   O     O_R   0.746751 0.754891 0.119376 -0.326580
N7    N     N_R   0.610466 0.651187 0.789651 0.195219
O17   O     O_R   0.554815 0.719795 0.729081 -0.391184
O18   O     O_R   0.716768 0.645257 0.814044 -0.376420
N8    N     N_R   0.800079 0.206375 0.526107 0.200072
O19   O     O_R   0.816245 0.257249 0.602752 -0.341899
O20   O     O_R   0.881182 0.184423 0.484904 -0.402600

loop_
_geom_bond_atom_site_label_1
_geom_bond_atom_site_label_2
_geom_bond_distance
_ccdc_geom_bond_type
C8    C11   1.411997 A    
C24   C25   1.386353 A    
C9    C10   1.415921 A    
C28   C29   1.415173 A    
Zn1   O7    2.023383 S    
C16   C17   1.386125 A    
C41   C42   1.424361 A    
C12   H2    1.081876 S    
C18   C19   1.408204 A    
O4    C2    1.304766 A    
O7    C4    1.303862 A    
N6    O16   1.301533 A    
C35   C42   1.413466 A    
C5    C6    1.390758 A    
C23   N3    1.435594 S    
C39   C41   1.424405 A    
C8    C9    1.415291 A    
C43   H16   1.081301 S    
O5    C3    1.317817 A    
C29   C30   1.392569 A    
C16   H4    1.084089 S    
C6    C7    1.394542 A    
C32   H14   1.077597 S    
C13   C14   1.413793 A    
C21   C29   1.399974 A    
C18   N7    1.436167 S    
N7    O18   1.301324 A    
C24   H8    1.083328 S    
C7    H17   1.082071 S    
C38   C39   1.414412 A    
C11   C12   1.394310 A    
N3    O10   1.301515 A    
C5    C10   1.382606 A    
Zn1   N1    2.059577 S    
O3    Zn1   2.004317 S    
N3    O9    1.301264 A    
C31   H9    1.081663 S    
C41   C45   1.409888 A    
C14   C15   1.411450 A    
O3    C2    1.303851 A    
C1    C34   1.479694 S    
N4    O11   1.301340 A    
C37   H12   1.082578 S    
C35   C46   1.391837 A    
C17   H5    1.084063 S    
C15   C16   1.399048 A    
C44   H13   1.068795 S    
C39   C40   1.408433 A    
O1    C1    1.308107 A    
C26   C27   1.407161 A    
C19   C20   1.393618 A    
C45   N5    1.431152 S    
C30   C31   1.387036 A    
C28   C32   1.389280 A    
Zn2   O8    2.004317 S    
C22   C33   1.417571 A    
N8    O20   1.301394 A    
C7    C8    1.390282 A    
C13   C18   1.401261 A    
C26   C28   1.413685 A    
C38   H11   1.072307 S    
C27   C34   1.414510 A    
C33   N8    1.436441 S    
C23   C24   1.394579 A    
C22   C32   1.391702 A    
O8    C4    1.302253 A    
Zn2   N2    2.047159 S    
N5    O14   1.300296 A    
C4    C6    1.430656 S    
H6    C30   1.084061 S    
C25   C26   1.413787 A    
C36   N2    1.356200 A    
N1    C46   1.352482 A    
C21   C33   1.402280 A    
N6    O15   1.301586 A    
C15   C20   1.378946 A    
Zn1   O5    1.909660 S    
C11   N6    1.438097 S    
C20   H3    1.085734 S    
O1    Zn1   1.955315 S    
O2    Zn2   1.909661 S    
O6    C3    1.308086 A    
O4    Zn2   2.023383 S    
H10   C46   1.082216 S    
C5    H1    1.085526 S    
C10   C17   1.397882 A    
C23   C34   1.422010 A    
C25   H15   1.078792 S    
C43   C44   1.385457 A    
C21   H7    1.084149 S    
O2    C1    1.318940 A    
C37   C38   1.388992 A    
C40   N2    1.362256 A    
C36   C37   1.383760 A    
N1    C45   1.358735 A    
N8    O19   1.301319 A    
C36   H18   1.080504 S    
C9    C14   1.395378 A    
N4    O12   1.301419 A    
C3    C22   1.470648 S    
C42   C43   1.398635 A    
C40   C44   1.397247 A    
C2    C19   1.438566 S    
Zn2   O6    1.955316 S    
N5    O13   1.301271 A    
C12   C13   1.404356 A    
N7    O17   1.301332 A    
C27   C31   1.414141 A    
C35   N4    1.437374 S    
