data_mof_unit_46580.cif
_audit_creation_date              2012-12-10T19:04:15-0500
_audit_creation_method            fapswitch 2.2
_symmetry_space_group_name_H-M    P1
_symmetry_Int_Tables_number       1
_space_group_crystal_system       triclinic
_cell_length_a                    10.67405
_cell_length_b                    10.805673
_cell_length_c                    9.636046
_cell_angle_alpha                 88.97896
_cell_angle_beta                  89.967901
_cell_angle_gamma                 93.322258
_cell_volume                      1109.37890525

loop_
_atom_site_label
_atom_site_type_symbol
_atom_type_description
_atom_site_fract_x
_atom_site_fract_y
_atom_site_fract_z
_atom_type_partial_charge
C1    C     C_R   0.498166 0.262910 0.501239 0.776576
C2    C     C_R   0.438194 0.931518 0.608503 0.161356
C3    C     C_3   0.305086 0.920022 0.658088 -0.396521
C4    C     C_R   0.259498 0.494743 0.500326 0.781983
C5    C     C_3   0.310088 0.060606 0.663338 0.200121
C6    C     C_R   0.584781 0.575522 0.071596 0.030253
C7    C     C_R   0.428222 0.415299 0.075830 -0.021301
C8    C     C_R   0.429935 0.414064 0.927702 0.044604
C9    C     C_R   0.583739 0.576830 0.924966 0.032886
C10   C     C_3   0.605935 0.717155 0.916542 0.566653
C11   C     C_3   0.610309 0.714454 0.077659 0.576675
C12   C     C_3   0.960060 0.496111 0.366696 -0.031356
C13   C     C_R   0.493720 0.737048 0.499071 0.841122
C14   C     C_R   0.740460 0.498479 0.499604 0.837190
C15   C     C_3   0.038117 0.488978 0.629361 0.526688
C16   C     C_3   0.948474 0.390496 0.562960 -0.204394
C17   C     C_3   0.877481 0.496247 0.497596 -0.069077
C18   C     C_3   0.966143 0.594664 0.564924 -0.189474
C19   C     C_3   0.050543 0.594368 0.434322 -0.201459
C20   C     C_3   0.034167 0.391225 0.432976 -0.252863
C21   C     C_3   0.122423 0.489853 0.501089 -0.126933
C22   C     C_R   0.442271 0.059692 0.611445 0.058430
C23   C     C_R   0.500847 0.130134 0.504380 -0.058557
C24   C     C_R   0.564842 0.070805 0.400531 -0.192604
C25   C     C_R   0.560794 0.942305 0.398382 -0.080980
C26   C     C_R   0.492856 0.871185 0.498787 -0.065670
Cu1   Cu    Cu3+1 0.499990 0.499980 0.640670 1.029836
Cu2   Cu    Cu3+1 0.500010 0.500020 0.359330 1.006915
H1    H     H_    0.904463 0.307089 0.616484 0.191090
H2    H     H_    0.615848 0.123481 0.319721 0.182486
H3    H     H_    0.610239 0.899738 0.317741 0.265314
H4    H     H_    0.239653 0.879752 0.578744 0.205378
H5    H     H_    0.231632 0.201822 0.584120 0.329496
H6    H     H_    0.746532 0.736308 0.602777 0.345383
H7    H     H_    0.424471 0.728008 0.882192 0.315300
H8    H     H_    0.870993 0.925387 0.199813 0.375171
H9    H     H_    0.430739 0.730622 0.120556 0.318937
H10   H     H_    0.982472 0.450686 0.002774 0.373246
H11   H     H_    0.295423 0.875432 0.762493 0.207954
H12   H     H_    0.302094 0.097611 0.769978 0.138840
H13   H     H_    0.367745 0.348026 0.132070 0.150622
H14   H     H_    0.373800 0.343827 0.874149 0.167919
H15   H     H_    0.947298 0.683663 0.612820 0.210126
H16   H     H_    0.094175 0.678013 0.380902 0.181246
H17   H     H_    0.925595 0.497936 0.258230 0.196279
H18   H     H_    0.064418 0.307949 0.379236 0.188745
N1    N     N_R   0.500800 0.500930 0.147930 -0.204208
N2    N     N_R   0.500800 0.500890 0.852020 -0.200410
O1    O     O_R   0.500000 0.319640 0.618810 -0.595184
O2    O     O_2   0.806375 0.885876 0.884453 -0.162754
O3    O     O_2   0.839472 0.670279 0.831039 -0.265469
O4    O     O_3   0.717750 0.805390 0.657669 -0.509518
O5    O     O_3   0.502989 0.779973 0.865534 -0.695344
O6    O     O_2   0.749892 0.726425 0.315087 -0.349484
O7    O     O_2   0.863894 0.687510 0.103774 -0.259198
O8    O     O_3   0.792073 0.909913 0.147248 -0.487007
O9    O     O_3   0.511779 0.778482 0.134946 -0.710331
O10   O     O_2   0.149228 0.355599 0.824691 -0.351867
O11   O     O_2   0.163745 0.582250 0.850411 -0.291568
O12   O     O_R   0.500010 0.319680 0.381230 -0.588651
O13   O     O_3   0.951264 0.460376 0.906644 -0.461819
O14   O     O_R   0.316850 0.499950 0.618770 -0.543242
O15   O     O_R   0.316860 0.499990 0.381190 -0.585400
O16   O     O_R   0.499990 0.680320 0.618770 -0.535829
O17   O     O_R   0.500000 0.680360 0.381190 -0.538826
O18   O     O_R   0.683140 0.500010 0.618810 -0.558059
O19   O     O_R   0.683150 0.500050 0.381230 -0.536406
O20   O     O_3   0.229245 0.111631 0.565905 -0.691929
S1    S     S_3+6 0.747405 0.769714 0.823985 0.117587
S2    S     S_3+6 0.758519 0.756266 0.162966 0.054158
S3    S     S_3+6 0.080946 0.472413 0.807286 0.027129

loop_
_geom_bond_atom_site_label_1
_geom_bond_atom_site_label_2
_ccdc_geom_bond_type
Cu1   N2    S    
C25   H3    S    
C15   C18   S    
Cu2   N1    S    
H7    O5    S    
C6    C9    A    
C11   S2    S    
C7    C8    A    
C13   O17   A    
C4    O15   A    
C19   C21   S    
O2    S1    D    
C8    H14   S    
O10   S3    D    
C15   C16   S    
C4    O14   A    
C18   C19   S    
C10   O5    S    
O4    S1    S    
C5    C22   S    
C16   C17   S    
C20   H18   S    
C12   C17   S    
C2    C22   A    
C14   O19   A    
C9    C10   S    
H10   O13   S    
O13   S3    S    
C3    H11   S    
C14   C17   S    
C5    O20   S    
Cu2   O12   S    
C6    N1    A    
Cu2   O19   S    
C24   C25   A    
Cu1   O16   S    
C1    O12   A    
C6    C11   S    
C25   C26   A    
C7    N1    A    
C8    N2    A    
H8    O8    S    
Cu1   O14   S    
O6    S2    D    
C16   C20   S    
C12   C20   S    
C17   C18   S    
C14   O18   A    
C2    C26   A    
C1    C23   S    
O8    S2    S    
C13   C26   S    
C19   H16   S    
C22   C23   A    
C12   H17   S    
C3    C5    S    
C15   S3    S    
H6    O4    S    
C2    C3    S    
C16   H1    S    
Cu1   O18   S    
C18   H15   S    
C4    C21   S    
C13   O16   A    
C12   C19   S    
Cu2   O17   S    
C7    H13   S    
C3    H4    S    
C24   H2    S    
O7    S2    D    
C10   C11   S    
C23   C24   A    
C10   S1    S    
C15   C21   S    
C20   C21   S    
C9    N2    A    
C5    H12   S    
Cu1   Cu2   S    
Cu2   O15   S    
O3    S1    D    
C11   O9    S    
C1    O1    A    
H9    O9    S    
Cu1   O1    S    
H5    O20   S    
O11   S3    D    
