data_mof_unit_47965.cif
_audit_creation_date              2012-10-26T19:55:51-0400
_audit_creation_method            fapswitch 2.2
_symmetry_space_group_name_H-M    P1
_symmetry_Int_Tables_number       1
_space_group_crystal_system       triclinic
_cell_length_a                    10.912798
_cell_length_b                    10.84905
_cell_length_c                    9.647393
_cell_angle_alpha                 89.772959
_cell_angle_beta                  91.792287
_cell_angle_gamma                 92.393815
_cell_volume                      1140.62947166

loop_
_atom_site_label
_atom_site_type_symbol
_atom_type_description
_atom_site_fract_x
_atom_site_fract_y
_atom_site_fract_z
_atom_type_partial_charge
Br1   Br    Br    0.271039 0.783781 0.720125 -0.570008
Br2   Br    Br    0.324955 0.294013 0.836952 -0.561664
C1    C     C_R   0.510122 0.263068 0.501197 0.562275
C2    C     C_R   0.818395 0.402897 0.980020 -0.110534
C3    C     C_R   0.805056 0.274328 0.983941 -0.118888
C4    C     C_R   0.262258 0.499430 0.498169 0.586592
C5    C     C_R   0.833892 0.205099 0.868433 -0.126973
C6    C     C_R   0.872771 0.264546 0.747631 -0.092427
C7    C     C_R   0.885750 0.393753 0.743020 0.045545
C8    C     C_R   0.550580 0.109956 0.761923 -0.080793
C9    C     C_R   0.518073 0.046712 0.882542 -0.128328
C10   C     C_R   0.443379 0.939775 0.872350 -0.065196
C11   C     C_R   0.416243 0.887606 0.742210 0.195042
C12   C     C_R   0.185993 0.568557 0.970591 -0.087408
C13   C     C_R   0.472577 0.937687 0.623829 0.043965
C14   C     C_R   0.516992 0.060673 0.630017 0.011397
C15   C     C_R   0.521243 0.128631 0.504141 -0.002755
C16   C     C_R   0.491999 0.737233 0.499411 0.557165
C17   C     C_R   0.517328 0.064917 0.377609 -0.160713
C18   C     C_R   0.505397 0.937213 0.375842 -0.168894
C19   C     C_R   0.483432 0.871935 0.498894 0.011292
C20   C     C_R   0.653663 0.672641 0.147124 -0.104876
C21   C     C_R   0.725624 0.759418 0.076989 -0.185056
C22   C     C_R   0.725343 0.759182 0.934115 -0.175800
C23   C     C_R   0.930728 0.538235 0.387642 -0.152315
C24   C     C_R   0.653547 0.671716 0.860588 -0.087874
C25   C     C_R   0.574169 0.585616 0.927277 0.135516
C26   C     C_R   0.574136 0.585781 0.076497 0.135232
C27   C     C_R   0.431457 0.417150 0.072799 0.025036
C28   C     C_R   0.737260 0.497977 0.502381 0.524696
C29   C     C_R   0.431011 0.416620 0.925783 0.237416
C30   C     C_R   0.208051 0.666611 0.063053 -0.089112
C31   C     C_R   0.167352 0.656820 0.198557 -0.064555
C32   C     C_R   0.106698 0.547542 0.241259 0.047001
C33   C     C_R   0.086287 0.449350 0.148733 -0.094764
C34   C     C_R   0.871038 0.498125 0.506489 0.000498
C35   C     C_R   0.124887 0.460429 0.013590 -0.120681
C36   C     C_R   0.940545 0.454950 0.621423 -0.031919
C37   C     C_R   0.067943 0.459476 0.616135 -0.126247
C38   C     C_R   0.127749 0.499207 0.496632 0.017985
C39   C     C_R   0.057104 0.534587 0.379697 -0.029090
C40   C     C_R   0.860461 0.462455 0.860639 -0.071168
Cu1   Cu    Cu3+1 0.499990 0.499990 0.640660 0.999086
Cu2   Cu    Cu3+1 0.500010 0.500010 0.359340 0.928705
H1    H     H_    0.773866 0.228336 0.076965 0.110772
H2    H     H_    0.106399 0.384827 0.942596 0.162308
H3    H     H_    0.878469 0.567687 0.296828 0.127038
H4    H     H_    0.120368 0.425287 0.703784 0.161906
H5    H     H_    0.799643 0.456103 0.070906 0.123083
H6    H     H_    0.217817 0.574273 0.866294 0.195724
H7    H     H_    0.895161 0.210014 0.658806 0.116152
H8    H     H_    0.601619 0.196609 0.773646 0.169543
H9    H     H_    0.374410 0.350023 0.126981 0.150186
H10   H     H_    0.784564 0.824365 0.879757 0.126512
H11   H     H_    0.668277 0.671727 0.752331 0.181017
H12   H     H_    0.824860 0.105395 0.871994 0.113799
H13   H     H_    0.182997 0.733296 0.269647 0.123125
H14   H     H_    0.038617 0.364909 0.180940 0.119353
H15   H     H_    0.876956 0.561441 0.860900 0.125163
H16   H     H_    0.524560 0.113516 0.279695 0.134375
H17   H     H_    0.541768 0.086311 0.983177 0.115744
H18   H     H_    0.403421 0.900663 0.964575 0.120702
H19   H     H_    0.511686 0.890014 0.277733 0.135925
H20   H     H_    0.255928 0.750102 0.029966 0.139184
H21   H     H_    0.666775 0.675951 0.256479 0.184185
H22   H     H_    0.784724 0.825153 0.134318 0.122895
N1    N     N_R   0.501190 0.501210 0.147910 -0.268452
N2    N     N_R   0.501230 0.501290 0.852040 -0.230451
O1    O     O_R   0.499990 0.319640 0.618810 -0.462566
O2    O     O_R   0.500000 0.319660 0.381240 -0.515565
O3    O     O_R   0.319640 0.500000 0.618780 -0.450516
O4    O     O_R   0.319650 0.500020 0.381210 -0.493995
O5    O     O_R   0.500000 0.680340 0.618760 -0.498145
O6    O     O_R   0.500010 0.680360 0.381190 -0.532934
O7    O     O_R   0.680350 0.499980 0.618790 -0.524705
O8    O     O_R   0.680360 0.500000 0.381220 -0.537764

loop_
_geom_bond_atom_site_label_1
_geom_bond_atom_site_label_2
_ccdc_geom_bond_type
Cu1   O5    S    
C16   C19   S    
C17   C18   A    
C8    H8    S    
C24   H11   S    
C5    C6    A    
C4    O4    A    
C7    C40   A    
C1    C15   S    
C2    C40   A    
C33   H14   S    
C21   H22   S    
C33   C35   A    
C22   C24   A    
C36   C37   A    
C22   H10   S    
C13   C14   A    
C10   H18   S    
C32   C33   A    
Cu2   O8    S    
C25   N2    A    
C27   N1    A    
C14   C15   A    
Cu1   O3    S    
C21   C22   A    
Cu2   O2    S    
C23   H3    S    
C16   O6    A    
C20   C26   A    
C29   N2    A    
C32   C39   S    
C5    H12   S    
Cu1   O7    S    
C4    O3    A    
C1    O2    A    
C30   H20   S    
C23   C39   A    
C37   C38   A    
C3    C5    A    
C6    C7    A    
C3    H1    S    
Br2   C29   S    
Cu1   Cu2   S    
C20   H21   S    
C28   O8    A    
C26   N1    A    
C31   C32   A    
C24   C25   A    
C18   C19   A    
Cu2   O6    S    
C6    H7    S    
C38   C39   A    
C16   O5    A    
C11   C13   A    
C4    C38   S    
Br1   C11   S    
C31   H13   S    
C1    O1    A    
C12   C30   A    
C2    C3    A    
C9    H17   S    
C40   H15   S    
C9    C10   A    
C17   H16   S    
Cu1   N2    S    
C28   C34   S    
C2    H5    S    
C30   C31   A    
C18   H19   S    
C34   C36   A    
C27   C29   A    
C8    C14   A    
C12   C35   A    
C28   O7    A    
C12   H6    S    
C27   H9    S    
C7    C36   S    
C15   C17   A    
Cu2   O4    S    
C8    C9    A    
C23   C34   A    
C13   C19   A    
C10   C11   A    
Cu1   O1    S    
C25   C26   A    
C20   C21   A    
Cu2   N1    S    
C35   H2    S    
C37   H4    S    
