data_mof_unit_42766.cif
_audit_creation_date              2012-12-10T20:40:03-0500
_audit_creation_method            fapswitch 2.2
_symmetry_space_group_name_H-M    P1
_symmetry_Int_Tables_number       1
_space_group_crystal_system       triclinic
_cell_length_a                    23.412475
_cell_length_b                    10.700233
_cell_length_c                    9.860375
_cell_angle_alpha                 88.933564
_cell_angle_beta                  90.095421
_cell_angle_gamma                 90.371748
_cell_volume                      2469.72786289

loop_
_atom_site_label
_atom_site_type_symbol
_atom_type_description
_atom_site_fract_x
_atom_site_fract_y
_atom_site_fract_z
_atom_type_partial_charge
C1    C     C_R   0.502596 0.260022 0.501030 0.906724
C2    C     C_R   0.119738 0.624158 0.500378 0.502860
C3    C     C_R   0.238779 0.547465 0.380590 -0.097287
C4    C     C_R   0.389352 0.501311 0.499905 0.868059
C5    C     C_R   0.298036 0.544257 0.381494 -0.230452
C6    C     C_R   0.327204 0.506058 0.499442 -0.042564
C7    C     C_R   0.296554 0.473587 0.617126 -0.216448
C8    C     C_R   0.237318 0.476662 0.615936 -0.101032
C9    C     C_R   0.208547 0.512988 0.497557 0.322885
C10   C     C_R   0.762114 0.496587 0.376995 -0.101648
C11   C     C_R   0.702853 0.494140 0.377110 -0.216460
C12   C     C_R   0.970246 0.283492 0.485925 -0.157317
C13   C     C_R   0.672979 0.502717 0.499940 -0.037896
C14   C     C_R   0.703100 0.514249 0.622402 -0.214358
C15   C     C_R   0.762389 0.517049 0.621799 -0.101094
C16   C     C_R   0.503177 0.740223 0.498486 0.893326
C17   C     C_R   0.791703 0.508031 0.499206 0.326046
C18   C     C_R   0.513446 0.060837 0.622989 0.105230
C19   C     C_R   0.514370 0.129568 0.502438 -0.157815
C20   C     C_R   0.529486 0.070624 0.381997 -0.216627
C21   C     C_R   0.530417 0.940515 0.377543 0.188172
C22   C     C_R   0.514523 0.871949 0.496618 -0.178509
C23   C     C_R   0.029688 0.284252 0.485287 -0.157914
C24   C     C_R   0.512709 0.933647 0.619621 0.113857
C25   C     C_3   0.472665 0.922447 0.738042 -0.033130
C26   C     C_3   0.474336 0.064391 0.742184 -0.517095
C27   C     C_R   0.451779 0.466672 0.071910 0.215802
C28   C     C_R   0.610706 0.500567 0.500027 0.869169
C29   C     C_R   0.546069 0.541520 0.071257 -0.150433
C30   C     C_R   0.546250 0.540504 0.927456 -0.135972
C31   C     C_R   0.451696 0.468434 0.928874 0.158400
C32   C     C_3   0.421573 0.346276 0.922100 -0.508929
C33   C     C_3   0.422912 0.341003 0.076047 -0.070729
C34   C     C_R   0.059939 0.397763 0.490345 -0.014658
C35   C     C_R   0.880552 0.621077 0.503862 0.503523
C36   C     C_R   0.880495 0.397850 0.492839 0.504303
C37   C     C_R   0.940108 0.396223 0.491732 -0.015825
C38   C     C_R   0.970083 0.510698 0.496713 -0.021833
C39   C     C_R   0.940197 0.624364 0.502750 -0.015349
C40   C     C_3   0.545659 0.880962 0.245148 -0.862938
C41   C     C_3   0.496972 0.856687 0.866463 -0.330430
C42   C     C_3   0.562099 0.864224 0.881372 -0.835512
C43   C     C_3   0.363216 0.340949 0.138760 -0.826967
C44   C     C_R   0.030083 0.511474 0.495819 -0.021853
C45   C     C_R   0.060088 0.625920 0.500637 -0.014693
C46   C     C_R   0.029930 0.738668 0.506236 -0.157872
C47   C     C_R   0.970462 0.737891 0.507361 -0.157324
C48   C     C_R   0.119552 0.400872 0.490315 0.502726
H1    H     H_    0.948053 0.194484 0.482027 0.193259
H2    H     H_    0.051793 0.195799 0.480972 0.192926
H3    H     H_    0.583875 0.571889 0.872945 0.153934
H4    H     H_    0.378324 0.355492 0.876797 0.203013
H5    H     H_    0.448475 0.274899 0.875398 0.195051
H6    H     H_    0.450812 0.265662 0.117720 0.179393
H7    H     H_    0.052128 0.827674 0.509998 0.192859
H8    H     H_    0.948348 0.826319 0.511893 0.193128
H9    H     H_    0.216278 0.575964 0.289208 0.139068
H10   H     H_    0.320979 0.572450 0.290624 0.160789
H11   H     H_    0.318221 0.444683 0.709272 0.148991
H12   H     H_    0.680561 0.485196 0.281408 0.156392
H13   H     H_    0.213666 0.450343 0.706453 0.137933
H14   H     H_    0.785144 0.489534 0.282314 0.136264
H15   H     H_    0.579215 0.809433 0.262020 0.246442
H16   H     H_    0.507186 0.838032 0.198908 0.253050
H17   H     H_    0.562890 0.950994 0.171142 0.225705
H18   H     H_    0.583428 0.818778 0.794894 0.263456
H19   H     H_    0.576565 0.962957 0.887248 0.257411
H20   H     H_    0.575383 0.813840 0.975361 0.237253
H21   H     H_    0.476770 0.897007 0.957522 0.195034
H22   H     H_    0.484081 0.756912 0.864939 0.221415
H23   H     H_    0.680977 0.521414 0.718294 0.153867
H24   H     H_    0.366434 0.335874 0.250756 0.261522
H25   H     H_    0.339031 0.425661 0.107185 0.233877
H26   H     H_    0.339221 0.257009 0.105608 0.246301
H27   H     H_    0.785635 0.525725 0.716233 0.136329
H28   H     H_    0.536904 0.125029 0.289774 0.170174
H29   H     H_    0.429813 0.886068 0.708802 0.138355
H30   H     H_    0.432536 0.108056 0.717297 0.184056
H31   H     H_    0.496588 0.101496 0.832647 0.205892
H32   H     H_    0.583524 0.573904 0.124796 0.151174
N1    N     N_R   0.852363 0.509060 0.498862 -0.361906
N2    N     N_R   0.147846 0.512798 0.495641 -0.361140
N3    N     N_R   0.499610 0.499140 0.142800 -0.121627
N4    N     N_R   0.499610 0.499180 0.857150 -0.110004
O1    O     O_R   0.500010 0.316790 0.614690 -0.609975
O2    O     O_R   0.583850 0.500060 0.614640 -0.626845
O3    O     O_R   0.583840 0.500020 0.385300 -0.630161
O4    O     O_2   0.850813 0.728507 0.509373 -0.546668
O5    O     O_2   0.850706 0.289560 0.488346 -0.545212
O6    O     O_2   0.149188 0.293295 0.484615 -0.549866
O7    O     O_2   0.149554 0.732347 0.505809 -0.549823
O8    O     O_R   0.500000 0.316760 0.385350 -0.627344
O9    O     O_R   0.416160 0.499980 0.614700 -0.617814
O10   O     O_R   0.416150 0.499940 0.385360 -0.619092
O11   O     O_R   0.500000 0.683240 0.614650 -0.620799
O12   O     O_R   0.499990 0.683210 0.385310 -0.609542
Zn1   Zn    Zn3+2 0.500000 0.500020 0.653130 0.941725
Zn2   Zn    Zn3+2 0.500000 0.499980 0.346870 0.939665

loop_
_geom_bond_atom_site_label_1
_geom_bond_atom_site_label_2
_ccdc_geom_bond_type
C36   O5    S    
C43   H25   S    
C15   H27   S    
C30   H3    S    
C43   H24   S    
C14   H23   S    
C19   C20   A    
C18   C26   S    
C12   H1    S    
C35   N1    A    
O8    Zn2   S    
C7    C8    A    
C45   C46   A    
C27   C33   S    
C21   C40   S    
C12   C23   A    
C37   C38   A    
C40   H15   S    
C5    H10   S    
C25   H29   S    
N4    Zn1   S    
C39   C47   A    
C36   C37   A    
C29   N3    A    
C38   C39   A    
O10   Zn2   S    
C10   C17   A    
C20   H28   S    
C18   C19   A    
C41   C42   S    
C12   C37   A    
O2    Zn1   S    
C32   H4    S    
C8    C9    A    
N3    Zn2   S    
O12   Zn2   S    
C46   H7    S    
C13   C28   S    
C18   C24   A    
C9    N2    S    
O3    Zn2   S    
C43   H26   S    
C48   O6    S    
C21   C22   A    
C42   H20   S    
C10   H14   S    
C7    H11   S    
C2    C45   A    
C1    O1    A    
C16   O12   A    
C1    C19   S    
C27   C31   A    
C33   C43   S    
C34   C44   A    
C24   C25   S    
C4    C6    S    
C25   C41   S    
C23   H2    S    
C25   C26   S    
C31   N4    A    
C35   C39   A    
C38   C44   A    
C29   C30   A    
C3    C9    A    
C35   O4    S    
C31   C32   S    
C36   N1    A    
C23   C34   A    
C28   O3    A    
C26   H30   S    
C4    O10   A    
C3    H9    S    
C1    O8    A    
C40   H17   S    
C28   O2    A    
C42   H19   S    
C22   C24   A    
C2    N2    A    
C34   C48   A    
C11   H12   S    
O9    Zn1   S    
C32   H5    S    
C44   C45   A    
C41   H21   S    
C33   H6    S    
C15   C17   A    
C46   C47   A    
C16   O11   A    
C16   C22   S    
C3    C5    A    
O11   Zn1   S    
C6    C7    A    
C8    H13   S    
C26   H31   S    
C40   H16   S    
C32   C33   S    
C27   N3    A    
C11   C13   A    
C5    C6    A    
C29   H32   S    
C48   N2    A    
C17   N1    S    
C30   N4    A    
C2    O7    S    
O1    Zn1   S    
C10   C11   A    
C4    O9    A    
C20   C21   A    
C42   H18   S    
C14   C15   A    
C41   H22   S    
C13   C14   A    
C47   H8    S    
