data_mof_unit_19328.cif
_audit_creation_date              2012-12-10T16:54:07-0500
_audit_creation_method            fapswitch 2.2
_symmetry_space_group_name_H-M    P1
_symmetry_Int_Tables_number       1
_space_group_crystal_system       triclinic
_cell_length_a                    9.749123
_cell_length_b                    10.901384
_cell_length_c                    13.364523
_cell_angle_alpha                 91.441623
_cell_angle_beta                  72.451475
_cell_angle_gamma                 91.818059
_cell_volume                      1353.4031847

loop_
_atom_site_label
_atom_site_type_symbol
_atom_type_description
_atom_site_fract_x
_atom_site_fract_y
_atom_site_fract_z
_atom_type_partial_charge
C1    C     C_R   0.503330 0.734205 0.497606 0.790236
C2    C     C_R   0.427080 0.461157 0.982713 -0.065571
C3    C     C_R   0.466597 0.442167 0.872312 0.088455
C4    C     C_R   0.536100 0.450567 0.032820 0.124923
C5    C     C_R   0.666910 0.392930 0.979291 0.143171
C6    C     C_R   0.691661 0.353081 0.875730 -0.235982
C7    C     C_R   0.594039 0.378696 0.822411 -0.123226
C8    C     C_R   0.522179 0.501682 0.132556 -0.204656
C9    C     C_R   0.746506 0.414791 0.134257 -0.107963
C10   C     C_R   0.375126 0.483278 0.815950 -0.160195
C11   C     C_2   0.570141 0.068751 0.548484 -0.229666
C12   C     C_R   0.422552 0.493063 0.700241 0.815721
C13   C     C_2   0.478656 0.134589 0.517002 -0.299067
C14   C     C_2   0.541821 0.935415 0.563681 0.447786
C15   C     C_2   0.517433 0.866892 0.484692 0.283031
C16   C     C_2   0.063310 0.587334 0.543792 0.502609
C17   C     C_2   0.904432 0.581334 0.551216 -0.079571
C18   C     C_R   0.495669 0.265713 0.503926 0.845419
C19   C     C_R   0.577362 0.497547 0.299843 0.779024
C20   C     C_R   0.771225 0.375717 0.030303 -0.155028
C21   C     C_R   0.620506 0.476641 0.186107 -0.085575
C22   C     C_R   0.237250 0.522197 0.871393 -0.320319
C23   C     C_R   0.188820 0.524243 0.980786 0.472992
C24   C     C_R   0.280491 0.488071 0.037526 -0.121788
Cu1   Cu    Cu3+1 0.361370 0.499980 0.499980 0.991357
Cu2   Cu    Cu3+1 0.638630 0.500020 0.500020 0.983036
H1    H     H_    0.823893 0.394149 0.174629 0.185993
H2    H     H_    0.381365 0.091321 0.507095 0.191595
H3    H     H_    0.112112 0.421192 0.477956 0.153854
H4    H     H_    0.911977 0.438902 0.452166 0.181459
H5    H     H_    0.788890 0.305201 0.834711 0.137066
H6    H     H_    0.870287 0.329669 0.990574 0.149938
H7    H     H_    0.434075 0.560706 0.170685 0.143722
H8    H     H_    0.163592 0.547061 0.829797 0.164487
H9    H     H_    0.618000 0.343895 0.742818 0.153918
H10   H     H_    0.660649 0.112218 0.568223 0.169198
N1    N     N_2   0.152660 0.501340 0.501130 -0.312521
N2    N     N_2   0.846520 0.501370 0.501160 -0.349674
O1    O     O_R   0.382960 0.678040 0.499980 -0.524802
O2    O     O_R   0.617100 0.678080 0.500020 -0.557116
O3    O     O_R   0.325800 0.499940 0.650950 -0.583013
O4    O     O_R   0.559930 0.499980 0.650990 -0.547357
O5    O     O_R   0.382900 0.321920 0.499980 -0.577348
O6    O     O_R   0.617040 0.321960 0.500020 -0.581364
O7    O     O_R   0.440070 0.500020 0.349010 -0.556709
O8    O     O_R   0.674200 0.500060 0.349050 -0.572570
O9    O     O_3   0.548057 0.877003 0.654099 -0.589457
C25   C     C_3   0.515576 0.956750 0.742491 -0.340498
H11   H     H_    0.414701 0.006935 0.751524 0.159986
H12   H     H_    0.607143 0.021742 0.738516 0.178010
H13   H     H_    0.498228 0.901116 0.813811 0.182568
O10   O     O_3   0.514376 0.923412 0.392311 -0.598428
C26   C     C_3   0.533938 0.840780 0.306368 -0.289953
H14   H     H_    0.437981 0.778968 0.316825 0.182198
H15   H     H_    0.633424 0.787336 0.293213 0.142945
H16   H     H_    0.546570 0.894410 0.234568 0.193450
O11   O     O_3   0.116236 0.693554 0.579582 -0.528997
C27   C     C_3   0.079626 0.695315 0.690294 -0.257839
H17   H     H_    0.026229 0.609265 0.728607 0.127258
H18   H     H_    0.007028 0.772680 0.722047 0.167770
H19   H     H_    0.178971 0.713512 0.712922 0.181759
C28   C     C_2   0.815444 0.677637 0.616021 1.006302
O12   O     O_2   0.826252 0.782260 0.583218 -0.557546
O13   O     O_R   0.731743 0.652065 0.718530 -0.771068
H20   H     H_    0.681523 0.726904 0.757408 0.333541
C29   C     C_2   0.213628 0.461348 0.150625 0.860994
O14   O     O_2   0.243163 0.367562 0.187240 -0.592192
O15   O     O_R   0.116151 0.542880 0.214965 -0.731653
H21   H     H_    0.079385 0.515172 0.290359 0.319568
O16   O     O_3   0.045941 0.547743 0.032436 -0.568174
C30   C     C_3   0.021492 0.673471 0.024632 -0.244813
H22   H     H_    0.098706 0.732731 0.052015 0.168624
H23   H     H_    0.911664 0.693618 0.076108 0.189389
H24   H     H_    0.025931 0.697016 0.943261 0.128343

loop_
_geom_bond_atom_site_label_1
_geom_bond_atom_site_label_2
_ccdc_geom_bond_type
C30   H24   S    
C2    C4    A    
C23   C24   A    
C19   O7    A    
C13   H2    S    
C28   O12   D    
C1    C15   S    
C18   O6    A    
C17   C28   S    
C9    C20   A    
C29   O15   S    
O9    C25   S    
C14   C15   D    
C24   C29   S    
C16   N1    D    
C16   O11   S    
C9    C21   A    
O13   H20   S    
Cu1   O5    S    
C27   H19   S    
C25   H12   S    
C2    C3    A    
C27   H17   S    
C19   O8    A    
Cu2   O6    S    
C30   H22   S    
C3    C10   A    
C1    O2    A    
C26   H14   S    
Cu1   O1    S    
C11   C13   D    
C23   O16   S    
Cu2   O2    S    
O11   C27   S    
C6    C7    A    
C12   O4    A    
C10   C12   S    
C13   C18   S    
C25   H11   S    
C19   C21   S    
C29   O14   D    
C27   H18   S    
C3    C7    A    
C8    H7    S    
C26   H15   S    
Cu2   O4    S    
C2    C24   A    
C5    C6    A    
C22   H8    S    
C11   C14   S    
C5    C20   A    
C16   C17   S    
C1    O1    A    
Cu1   O3    S    
Cu1   O7    S    
O16   C30   S    
C17   N2    D    
C9    H1    S    
C12   O3    A    
C28   O13   S    
C20   H6    S    
C26   H16   S    
H3    N1    S    
C4    C8    A    
C30   H23   S    
Cu2   O8    S    
C22   C23   A    
Cu2   N2    S    
C6    H5    S    
H4    N2    S    
Cu1   N1    S    
Cu1   Cu2   S    
C18   O5    A    
C14   O9    S    
C7    H9    S    
O15   H21   S    
C25   H13   S    
C10   C22   A    
C15   O10   S    
O10   C26   S    
C4    C5    A    
C11   H10   S    
C8    C21   A    
