data_mof_unit_31149.cif
_audit_creation_date              2012-12-10T19:08:33-0500
_audit_creation_method            fapswitch 2.2
_symmetry_space_group_name_H-M    P1
_symmetry_Int_Tables_number       1
_space_group_crystal_system       triclinic
_cell_length_a                    16.031139
_cell_length_b                    10.854052
_cell_length_c                    9.58712
_cell_angle_alpha                 88.805124
_cell_angle_beta                  88.699449
_cell_angle_gamma                 92.08619
_cell_volume                      1666.25832488

loop_
_atom_site_label
_atom_site_type_symbol
_atom_type_description
_atom_site_fract_x
_atom_site_fract_y
_atom_site_fract_z
_atom_type_partial_charge
C1    C     C_R   0.500090 0.262392 0.500670 0.789896
C2    C     C_R   0.040624 0.506051 0.631016 0.113208
C3    C     C_1   0.822431 0.507654 0.495011 -0.040071
C4    C     C_1   0.177627 0.511610 0.505373 -0.035312
C5    C     C_1   0.252466 0.506348 0.504455 -0.199028
C6    C     C_1   0.747476 0.504200 0.495441 -0.211281
C7    C     C_R   0.521420 0.061381 0.619108 0.090371
C8    C     C_R   0.504231 0.129172 0.498877 -0.082166
C9    C     C_R   0.494257 0.066220 0.372850 -0.220618
C10   C     C_R   0.492396 0.937708 0.372440 -0.221574
C11   C     C_R   0.500928 0.870474 0.497554 -0.097136
C12   C     C_R   0.341400 0.500924 0.501383 0.814428
C13   C     C_R   0.517837 0.934545 0.619093 0.076850
C14   C     C_3   0.481293 0.925032 0.764710 -0.108820
C15   C     C_3   0.484297 0.065546 0.762620 -0.500866
C16   C     C_R   0.545642 0.587631 0.069543 0.239078
C17   C     C_R   0.448396 0.423190 0.080756 -0.090584
C18   C     C_R   0.445794 0.424164 0.932775 0.170257
C19   C     C_R   0.546238 0.586830 0.922414 0.195685
C20   C     C_3   0.638487 0.609973 0.911677 -0.492094
C21   C     C_3   0.638197 0.611272 0.070806 -0.102708
C22   C     C_R   0.498728 0.737283 0.499075 0.784347
C23   C     C_R   0.658518 0.500954 0.498588 0.825935
C24   C     C_R   0.952141 0.503446 0.627990 0.041245
C25   C     C_R   0.912481 0.511927 0.497854 0.015861
C26   C     C_R   0.959299 0.524887 0.371132 0.115763
C27   C     C_R   0.047743 0.529355 0.374514 0.107626
C28   C     C_R   0.087553 0.516639 0.503980 0.018148
Cu1   Cu    Cu3+1 0.500000 0.499980 0.640670 0.922706
Cu2   Cu    Cu3+1 0.500000 0.500020 0.359330 0.928484
H1    H     H_    0.528358 0.106110 0.838459 0.187052
H2    H     H_    0.409467 0.358264 0.142636 0.145577
H3    H     H_    0.671316 0.530277 0.868918 0.191279
H4    H     H_    0.655578 0.699042 0.857819 0.199395
H5    H     H_    0.671055 0.531729 0.115993 0.159020
H6    H     H_    0.484064 0.115464 0.275640 0.161415
H7    H     H_    0.480332 0.891449 0.275814 0.164220
H8    H     H_    0.525724 0.884123 0.837831 0.161543
H9    H     H_    0.421827 0.105835 0.760029 0.193417
N1    N     N_R   0.500520 0.500930 0.147930 -0.216684
N2    N     N_R   0.500520 0.500890 0.852020 -0.200377
O1    O     O_R   0.500000 0.319640 0.618810 -0.597006
O2    O     O_R   0.500010 0.319680 0.381230 -0.586728
O3    O     O_R   0.380300 0.499950 0.618760 -0.592189
O4    O     O_R   0.380310 0.499990 0.381180 -0.573300
O5    O     O_R   0.499990 0.680320 0.618770 -0.590922
O6    O     O_R   0.500000 0.680360 0.381190 -0.579767
O7    O     O_R   0.619690 0.500010 0.618820 -0.571164
O8    O     O_R   0.619700 0.500050 0.381240 -0.586202
C29   C     C_3   0.085666 0.501341 0.769109 -0.399148
C30   C     C_3   0.099432 0.630701 0.825545 -0.861211
H10   H     H_    0.138265 0.688510 0.750308 0.260051
H11   H     H_    0.039077 0.675298 0.843923 0.251139
H12   H     H_    0.132473 0.625326 0.925641 0.243619
H13   H     H_    0.052172 0.440493 0.847772 0.199561
H14   H     H_    0.147093 0.459651 0.756518 0.219170
C31   C     C_3   0.383921 0.331888 0.874213 -0.378263
C32   C     C_3   0.293347 0.359904 0.912310 -0.393274
C33   C     C_3   0.233610 0.259587 0.858583 -0.885815
H15   H     H_    0.235762 0.259752 0.742665 0.253822
H16   H     H_    0.250658 0.167419 0.899049 0.259656
H17   H     H_    0.168843 0.276180 0.894782 0.242215
H18   H     H_    0.284749 0.363256 0.027279 0.218596
H19   H     H_    0.277902 0.450964 0.866687 0.235773
H20   H     H_    0.388172 0.324360 0.761298 0.260847
H21   H     H_    0.397356 0.240569 0.920913 0.158280
C34   C     C_3   0.665637 0.734446 0.137138 -0.323536
C35   C     C_3   0.623308 0.849427 0.082253 -0.855840
H22   H     H_    0.648501 0.877008 0.977084 0.235164
H23   H     H_    0.554767 0.833733 0.078282 0.236640
H24   H     H_    0.636530 0.927287 0.152731 0.244928
H25   H     H_    0.653701 0.726060 0.251558 0.219467
H26   H     H_    0.733839 0.749066 0.120268 0.197775
C36   C     C_3   0.899031 0.484825 0.761884 -0.386866
C37   C     C_3   0.877263 0.347220 0.787722 -0.340954
C38   C     C_3   0.827440 0.324547 0.923821 -0.863618
H27   H     H_    0.865462 0.352548 0.013749 0.244244
H28   H     H_    0.769323 0.376941 0.923390 0.251846
H29   H     H_    0.810321 0.224812 0.936206 0.243926
H30   H     H_    0.839781 0.311280 0.700283 0.226724
H31   H     H_    0.935465 0.294805 0.792371 0.211727
H32   H     H_    0.930162 0.523908 0.853808 0.204366
H33   H     H_    0.840726 0.536708 0.755533 0.199042
C39   C     C_3   0.914192 0.533592 0.232997 -0.386123
C40   C     C_3   0.895430 0.666925 0.196192 -0.865050
H34   H     H_    0.849984 0.702596 0.273141 0.254369
H35   H     H_    0.953141 0.726599 0.195794 0.248922
H36   H     H_    0.868686 0.671298 0.090487 0.235057
H37   H     H_    0.950608 0.494116 0.146385 0.204015
H38   H     H_    0.854906 0.477333 0.236722 0.202923
C41   C     C_3   0.100419 0.547313 0.240606 -0.384944
C42   C     C_3   0.121342 0.423593 0.178520 -0.859902
H39   H     H_    0.164640 0.373994 0.246764 0.259947
H40   H     H_    0.064095 0.364770 0.165322 0.246242
H41   H     H_    0.151782 0.440021 0.074699 0.244540
H42   H     H_    0.068941 0.604294 0.162066 0.206433
H43   H     H_    0.159284 0.600858 0.259512 0.205203
C43   C     C_3   0.391763 0.868510 0.780111 -0.344179
C44   C     C_3   0.358597 0.879745 0.930563 -0.357552
C45   C     C_3   0.273077 0.814972 0.950810 -0.871306
H44   H     H_    0.277322 0.715187 0.929253 0.256479
H45   H     H_    0.250594 0.824851 0.060270 0.243871
H46   H     H_    0.227478 0.856591 0.879953 0.256192
H47   H     H_    0.402461 0.837136 0.003996 0.212461
H48   H     H_    0.353535 0.978527 0.956660 0.219646
H49   H     H_    0.391581 0.769383 0.755193 0.228671
H50   H     H_    0.349472 0.914531 0.706518 0.197822

loop_
_geom_bond_atom_site_label_1
_geom_bond_atom_site_label_2
_ccdc_geom_bond_type
C16   C21   S    
Cu1   O1    S    
C1    C8    S    
Cu2   O4    S    
C19   C20   S    
C38   H29   S    
C31   H21   S    
C3    C6    T    
C7    C8    A    
C40   H34   S    
C26   C27   A    
C10   H7    S    
C38   H28   S    
C16   C19   A    
C23   O8    A    
C34   H25   S    
C45   H44   S    
C2    C29   S    
C41   H42   S    
C39   C40   S    
C1    O2    A    
C35   H22   S    
C9    H6    S    
C27   C41   S    
C34   H26   S    
C37   H30   S    
C36   H33   S    
C20   H4    S    
C7    C15   S    
C44   H47   S    
C33   H15   S    
C13   C14   S    
C21   C34   S    
C39   H38   S    
C36   H32   S    
C42   H40   S    
C4    C28   S    
C14   C43   S    
C40   H35   S    
C32   H19   S    
C44   H48   S    
C33   H16   S    
C36   C37   S    
Cu1   O7    S    
C34   C35   S    
Cu2   O6    S    
C3    C25   S    
C38   H27   S    
C5    C12   S    
C18   N2    A    
C41   C42   S    
C8    C9    A    
C29   C30   S    
C32   C33   S    
C45   H46   S    
C29   H14   S    
C43   H50   S    
C30   H10   S    
C30   H11   S    
C17   N1    A    
C37   C38   S    
Cu1   Cu2   S    
C14   H8    S    
C18   C31   S    
C44   C45   S    
C45   H45   S    
C17   C18   A    
Cu2   N1    S    
C41   H43   S    
C24   C25   A    
C15   H9    S    
C16   N1    A    
C21   H5    S    
C20   H3    S    
C22   O5    A    
Cu2   O8    S    
Cu1   O3    S    
C2    C24   A    
Cu2   O2    S    
C39   H37   S    
C9    C10   A    
C40   H36   S    
C32   H18   S    
C33   H17   S    
C26   C39   S    
C23   O7    A    
Cu1   N2    S    
C37   H31   S    
C31   H20   S    
C4    C5    T    
C15   H1    S    
C12   O4    A    
C11   C22   S    
C29   H13   S    
C43   H49   S    
Cu1   O5    S    
C30   H12   S    
C25   C26   A    
C12   O3    A    
C11   C13   A    
C24   C36   S    
C31   C32   S    
C35   H24   S    
C6    C23   S    
C42   H39   S    
C22   O6    A    
C42   H41   S    
C10   C11   A    
C1    O1    A    
C7    C13   A    
C20   C21   S    
C35   H23   S    
C43   C44   S    
C27   C28   A    
C17   H2    S    
C14   C15   S    
C2    C28   A    
C19   N2    A    
