data_mof_unit_68272.cif
_audit_creation_date              2012-12-11T17:12:42-0500
_audit_creation_method            fapswitch 2.2
_symmetry_space_group_name_H-M    P1
_symmetry_Int_Tables_number       1
_space_group_crystal_system       triclinic
_cell_length_a                    17.403119
_cell_length_b                    6.937351
_cell_length_c                    14.491769
_cell_angle_alpha                 90.276745
_cell_angle_beta                  110.267007
_cell_angle_gamma                 89.881558
_cell_volume                      1641.27326476

loop_
_atom_site_label
_atom_site_type_symbol
_atom_type_description
_atom_site_fract_x
_atom_site_fract_y
_atom_site_fract_z
_atom_type_partial_charge
O1    O     O_R   0.314130 0.635770 0.168990 -0.543074
O2    O     O_R   0.685870 0.364230 0.831010 -0.538833
O3    O     O_R   0.185870 0.135770 0.331010 -0.539491
O4    O     O_R   0.814130 0.864230 0.668990 -0.528251
O5    O     O_R   0.146800 0.302460 0.139760 -0.533810
O6    O     O_R   0.853200 0.697540 0.860240 -0.542523
O7    O     O_R   0.353200 0.802460 0.360240 -0.539082
O8    O     O_R   0.646800 0.197540 0.639760 -0.543564
C1    C     C_R   0.113780 0.475763 0.113294 0.717925
C2    C     C_R   0.886032 0.524392 0.887012 0.716579
C3    C     C_R   0.387143 0.975437 0.384864 0.708279
C4    C     C_R   0.614404 0.024003 0.612237 0.734428
O9    O     O_R   0.311100 0.305780 0.157130 -0.546784
O10   O     O_R   0.688900 0.694220 0.842870 -0.550445
O11   O     O_R   0.188900 0.805780 0.342870 -0.545670
O12   O     O_R   0.811100 0.194220 0.657130 -0.558262
O13   O     O_R   0.351340 0.139640 0.348510 -0.538488
O14   O     O_R   0.648660 0.860360 0.651490 -0.534987
O15   O     O_R   0.148660 0.639640 0.151490 -0.541434
O16   O     O_R   0.851340 0.360360 0.848510 -0.545922
C5    C     C_R   0.331468 0.476225 0.134574 0.742062
C6    C     C_R   0.666606 0.523258 0.863580 0.719549
C7    C     C_R   0.168277 0.977523 0.365244 0.754118
C8    C     C_R   0.834724 0.022268 0.637856 0.748990
C9    C     C_1   0.534424 0.008803 0.531416 -0.194054
C10   C     C_1   0.467717 0.991225 0.464709 -0.204352
C11   C     C_1   0.966743 0.509872 0.966496 -0.183896
C12   C     C_1   0.033734 0.492180 0.032644 -0.210259
O17   O     O_3   0.263010 0.470920 0.312770 -0.372171
O18   O     O_3   0.736990 0.529080 0.687230 -0.376799
O19   O     O_3   0.236990 0.970920 0.187230 -0.370594
O20   O     O_3   0.763010 0.029080 0.812770 -0.383683
V1    V     V_3+5 0.247590 0.194450 0.238360 1.386510
V2    V     V_3+5 0.752410 0.805550 0.761640 1.356465
V3    V     V_3+5 0.252410 0.694450 0.261640 1.376891
V4    V     V_3+5 0.747590 0.305550 0.738360 1.333723
C13   C     C_R   0.123198 0.999647 0.436239 -0.154105
C14   C     C_R   0.895647 0.994426 0.586218 -0.129816
C15   C     C_R   0.379141 0.494500 0.066619 -0.143270
C16   C     C_R   0.607575 0.497874 0.917308 -0.141548
C17   C     C_R   0.924485 0.846104 0.447592 0.041169
C18   C     C_R   0.118918 0.099995 0.599082 0.070843
C19   C     C_R   0.575681 0.320435 0.044993 0.059344
C20   C     C_R   0.385473 0.599705 0.906137 0.073035
C21   C     C_R   0.872996 0.869059 0.503819 0.213578
C22   C     C_R   0.160157 0.089472 0.528548 0.241237
C23   C     C_R   0.632584 0.377499 0.001172 0.215500
C24   C     C_R   0.345953 0.597323 0.977842 0.234547
C25   C     C_R   0.981255 0.038301 0.631329 0.002775
C26   C     C_R   0.038567 0.973996 0.403809 -0.011216
C27   C     C_R   0.521445 0.534623 0.871999 0.011688
C28   C     C_R   0.460678 0.431682 0.095836 -0.006641
C29   C     C_R   0.033676 0.032842 0.570457 -0.038052
C30   C     C_R   0.997853 0.955386 0.472927 -0.002652
C31   C     C_R   0.469029 0.524283 0.932690 -0.040501
C32   C     C_R   0.502555 0.428991 0.026045 -0.020121
C33   C     C_3   0.989883 0.021197 0.296934 -0.368095
C34   C     C_3   0.991748 0.238266 0.278163 -0.307917
C35   C     C_3   0.941875 0.285620 0.171879 -0.798024
H1    H     H_    0.941466 0.443871 0.160785 0.219585
H2    H     H_    0.878135 0.236239 0.154608 0.237412
H3    H     H_    0.968259 0.212012 0.121522 0.239538
H4    H     H_    0.965013 0.315444 0.327034 0.191691
H5    H     H_    0.054814 0.292426 0.294621 0.213049
H6    H     H_    0.012423 0.936235 0.246221 0.164355
H7    H     H_    0.924703 0.989339 0.279019 0.189158
C36   C     C_3   0.019532 0.053925 0.744008 -0.440343
C37   C     C_3   0.973497 0.006091 0.813880 -0.315663
C38   C     C_3   0.028962 0.021445 0.921458 -0.742018
H8    H     H_    0.075128 0.905777 0.939339 0.221419
H9    H     H_    0.060794 0.162652 0.936336 0.230992
H10   H     H_    0.991941 0.006081 0.969917 0.222064
H11   H     H_    0.924208 0.109935 0.805403 0.237979
H12   H     H_    0.950301 0.856599 0.799643 0.212433
H13   H     H_    0.065966 0.937126 0.764029 0.189039
H14   H     H_    0.043365 0.202469 0.763273 0.186178
C39   C     C_3   0.505472 0.388922 0.205273 -0.373981
C40   C     C_3   0.503070 0.553370 0.276485 -0.310108
C41   C     C_3   0.575872 0.544001 0.372907 -0.790129
H15   H     H_    0.571226 0.661615 0.422910 0.236091
H16   H     H_    0.634084 0.561395 0.358857 0.223838
H17   H     H_    0.576676 0.403347 0.409584 0.233486
H18   H     H_    0.502223 0.695576 0.241444 0.197714
H19   H     H_    0.447623 0.540927 0.296936 0.213761
H20   H     H_    0.479674 0.256337 0.225689 0.165994
H21   H     H_    0.570471 0.366592 0.218371 0.222054
C42   C     C_3   0.482835 0.550790 0.759630 -0.434381
C43   C     C_3   0.526252 0.495088 0.687731 -0.302650
C44   C     C_3   0.468118 0.512027 0.581367 -0.758796
H22   H     H_    0.413393 0.421335 0.568874 0.226250
H23   H     H_    0.447690 0.663429 0.564778 0.233000
H24   H     H_    0.499678 0.464999 0.530423 0.232779
H25   H     H_    0.577189 0.593109 0.693729 0.239089
H26   H     H_    0.546957 0.343536 0.701367 0.211981
H27   H     H_    0.435486 0.436096 0.740654 0.187699
H28   H     H_    0.460290 0.700421 0.740967 0.185541
N1    N     N_2   0.231672 0.202683 0.543232 -0.536830
H29   H     H_    0.220665 0.326101 0.501191 0.263045
C45   C     C_3   0.307419 0.105775 0.550557 -0.591498
H30   H     H_    0.354681 0.129940 0.623837 0.181782
H31   H     H_    0.331746 0.172537 0.498341 0.215811
H32   H     H_    0.299481 0.948660 0.535870 0.181849
N2    N     N_2   0.799571 0.758873 0.481654 -0.539069
H33   H     H_    0.760237 0.765005 0.410506 0.260733
C46   C     C_3   0.807182 0.567916 0.524352 -0.406503
H34   H     H_    0.825049 0.458779 0.480005 0.141669
H35   H     H_    0.746473 0.522488 0.524972 0.208028
H36   H     H_    0.852784 0.565406 0.600171 0.205565
N3    N     N_2   0.278595 0.723674 0.966335 -0.532767
H37   H     H_    0.294039 0.843239 0.011626 0.265399
C47   C     C_3   0.199833 0.641044 0.957337 -0.582289
H38   H     H_    0.152867 0.679221 0.885994 0.176778
H39   H     H_    0.179234 0.706745 0.013419 0.223630
H40   H     H_    0.201890 0.481824 0.964768 0.172484
N4    N     N_2   0.715482 0.313236 0.042533 -0.550951
H41   H     H_    0.757988 0.421404 0.050788 0.236921
C48   C     C_3   0.737028 0.135763 0.003964 -0.452463
H42   H     H_    0.764059 0.031226 0.063770 0.149238
H43   H     H_    0.785665 0.166006 0.973016 0.213220
H44   H     H_    0.683345 0.068261 0.947063 0.204904
C49   C     C_3   0.909796 0.680073 0.372779 -0.315929
C50   C     C_3   0.834401 0.707165 0.278475 -0.322557
C51   C     C_3   0.776581 0.535358 0.255395 -0.797934
H45   H     H_    0.808440 0.405033 0.242619 0.247117
H46   H     H_    0.753496 0.504961 0.315746 0.222564
H47   H     H_    0.723016 0.567172 0.188644 0.230052
H48   H     H_    0.800487 0.839280 0.283828 0.194610
H49   H     H_    0.854705 0.725161 0.214227 0.176051
H50   H     H_    0.963936 0.657421 0.350260 0.147420
H51   H     H_    0.907324 0.542870 0.409708 0.179384
C52   C     C_3   0.166312 0.186216 0.701725 -0.350129
C53   C     C_3   0.260922 0.184335 0.741156 -0.294286
C54   C     C_3   0.298480 0.183923 0.853539 -0.845527
H52   H     H_    0.269510 0.293994 0.885498 0.241360
H53   H     H_    0.288874 0.045250 0.883997 0.245528
H54   H     H_    0.365514 0.206756 0.876830 0.232271
H55   H     H_    0.281843 0.052184 0.715750 0.236005
H56   H     H_    0.286125 0.308900 0.714742 0.232567
H57   H     H_    0.141332 0.330576 0.707256 0.163800
H58   H     H_    0.157733 0.095332 0.756825 0.188218
C55   C     C_3   0.582098 0.117976 0.088863 -0.300266
C56   C     C_3   0.654837 0.089666 0.185595 -0.283172
C57   C     C_3   0.632401 0.972024 0.261231 -0.832475
H59   H     H_    0.632294 0.816468 0.243177 0.245979
H60   H     H_    0.678007 0.000418 0.335128 0.221384
H61   H     H_    0.571806 0.011936 0.264384 0.229462
H62   H     H_    0.704477 0.012424 0.170410 0.196986
H63   H     H_    0.680798 0.228794 0.218912 0.204729
H64   H     H_    0.523415 0.078174 0.098159 0.169377
H65   H     H_    0.587663 0.011990 0.033770 0.155769
C58   C     C_3   0.337601 0.687763 0.804400 -0.346388
C59   C     C_3   0.242867 0.684342 0.766053 -0.293967
C60   C     C_3   0.203770 0.679218 0.653722 -0.848388
H66   H     H_    0.232926 0.785809 0.620710 0.245207
H67   H     H_    0.211629 0.537940 0.623377 0.242332
H68   H     H_    0.137017 0.706421 0.631501 0.232272
H69   H     H_    0.221752 0.555124 0.793329 0.233568
H70   H     H_    0.218604 0.811867 0.791527 0.231665
H71   H     H_    0.362502 0.832496 0.800426 0.160995
H72   H     H_    0.345470 0.599775 0.747582 0.188711

loop_
_geom_bond_atom_site_label_1
_geom_bond_atom_site_label_2
_ccdc_geom_bond_type
C2    C11   S    
C57   H61   S    
C31   C32   A    
O1    C5    A    
C16   C23   A    
O3    C7    A    
C47   H38   S    
C33   H7    S    
C42   C43   S    
N1    H29   S    
C28   C39   S    
C55   H64   S    
C51   H45   S    
C14   C25   A    
C39   C40   S    
O7    C3    A    
C46   H35   S    
C26   C30   A    
O20   V4    S    
C48   H43   S    
C18   C29   A    
C18   C22   A    
O4    C8    A    
C51   H46   S    
O3    V1    S    
C37   H12   S    
N4    H41   S    
O17   V1    S    
O8    V4    S    
C17   C49   S    
C50   H48   S    
C38   H9    S    
C14   C21   A    
C52   H58   S    
C21   N2    S    
C59   H69   S    
C55   C56   S    
C40   H18   S    
C1    O15   A    
C60   H66   S    
C2    O16   A    
C37   C38   S    
N4    C48   S    
O5    V1    S    
O2    C6    A    
C54   H54   S    
C8    C14   S    
C58   C59   S    
O19   V1    S    
C18   C52   S    
C60   H67   S    
C49   H51   S    
C37   H11   S    
O11   C7    A    
C24   N3    S    
C39   H20   S    
C35   H1    S    
O12   C8    A    
O13   V1    S    
O11   V3    S    
N1    C45   S    
C55   H65   S    
C43   H26   S    
C34   H5    S    
C46   H36   S    
O4    V2    S    
C35   H2    S    
C20   C58   S    
O18   V2    S    
C36   C37   S    
C56   H63   S    
C47   H39   S    
C48   H44   S    
C27   C42   S    
C41   H16   S    
C40   C41   S    
C53   C54   S    
C51   H47   S    
C3    C10   S    
C9    C10   T    
C7    C13   S    
O6    V2    S    
C42   H27   S    
C44   H24   S    
C58   H71   S    
C38   H10   S    
C23   N4    S    
O5    C1    A    
C40   H19   S    
C45   H30   S    
C5    C15   S    
O8    C4    A    
C6    C16   S    
C42   H28   S    
O9    C5    A    
N2    C46   S    
C59   C60   S    
C60   H68   S    
O14   V2    S    
C49   C50   S    
C59   H70   S    
C45   H31   S    
C22   N1    S    
C39   H21   S    
C54   H52   S    
O19   V3    S    
C19   C55   S    
C36   H13   S    
C52   C53   S    
C44   H22   S    
N2    H33   S    
O1    V3    S    
C54   H53   S    
O2    V4    S    
C34   H4    S    
C57   H60   S    
C43   H25   S    
C3    O13   A    
C35   H3    S    
C25   C36   S    
C26   C33   S    
O7    V3    S    
C56   H62   S    
C49   H50   S    
O10   V2    S    
C41   H17   S    
C29   C30   A    
C16   C27   A    
C46   H34   S    
O17   V3    S    
O18   V4    S    
C4    C9    S    
C58   H72   S    
O10   C6    A    
N3    C47   S    
C57   H59   S    
C53   H55   S    
O15   V3    S    
C48   H42   S    
O12   V4    S    
C13   C26   A    
C20   C31   A    
C33   C34   S    
C19   C23   A    
C25   C29   A    
C44   H23   S    
C15   C28   A    
C47   H40   S    
C27   C31   A    
C50   H49   S    
C38   H8    S    
C34   C35   S    
C17   C30   A    
C52   H57   S    
O6    C2    A    
C41   H15   S    
O16   V4    S    
C28   C32   A    
C19   C32   A    
C45   H32   S    
C43   C44   S    
O9    V1    S    
C4    O14   A    
C11   C12   T    
C50   C51   S    
C17   C21   A    
C56   C57   S    
C36   H14   S    
C13   C22   A    
N3    H37   S    
C53   H56   S    
C20   C24   A    
C1    C12   S    
O20   V2    S    
C15   C24   A    
C33   H6    S    
