data_mof_unit_30796.cif
_audit_creation_date              2013-03-05T16:35:43-0500
_audit_creation_method            fapswitch 2.2
_symmetry_space_group_name_H-M    P1
_symmetry_Int_Tables_number       1
_space_group_crystal_system       monoclinic
_cell_length_a                    19.354278
_cell_length_b                    9.089668
_cell_length_c                    7.788345
_cell_angle_alpha                 89.921441
_cell_angle_beta                  90.0
_cell_angle_gamma                 90.0
_cell_volume                      1370.15521723

loop_
_atom_site_label
_atom_site_type_symbol
_atom_site_description
_atom_site_fract_x
_atom_site_fract_y
_atom_site_fract_z
_atom_type_partial_charge
O1    O     O_R   0.500000 0.288390 0.642760 -0.574315
O2    O     O_R   0.500000 0.711610 0.357240 -0.574315
O3    O     O_R   0.500000 0.711610 0.642760 -0.576322
O4    O     O_R   0.500000 0.288390 0.357240 -0.576322
C1    C     C_R   0.500000 0.220034 0.500065 0.839371
C2    C     C_R   0.500000 0.779966 0.499934 0.839371
O5    O     O_R   0.400140 0.500000 0.642830 -0.579760
O6    O     O_R   0.599860 0.500000 0.357170 -0.579766
O7    O     O_R   0.599860 0.500000 0.642830 -0.579766
O8    O     O_R   0.400140 0.500000 0.357170 -0.579760
C3    C     C_R   0.367388 0.500000 0.500000 0.806425
C4    C     C_R   0.632613 0.500000 0.500000 0.806412
Cu1   Cu    Cu3+1 0.500000 0.500000 0.669080 0.995602
Cu2   Cu    Cu3+1 0.500000 0.500000 0.330920 0.995602
C5    C     C_1   0.500000 0.065382 0.500092 -0.180472
C6    C     C_1   0.500000 0.934618 0.499908 -0.180472
N1    N     N_1   0.500000 0.500000 0.076820 -0.049152
N2    N     N_1   0.500000 0.500000 0.923180 -0.049152
C7    C     C_R   0.255194 0.616741 0.578451 0.120965
C8    C     C_R   0.744808 0.383318 0.421418 0.120960
C9    C     C_R   0.744808 0.616682 0.578582 0.120960
C10   C     C_R   0.255194 0.383259 0.421549 0.120965
C11   C     C_R   0.182903 0.615387 0.577492 -0.145621
C12   C     C_R   0.817099 0.384672 0.422382 -0.145633
C13   C     C_R   0.817099 0.615328 0.577618 -0.145633
C14   C     C_R   0.182903 0.384613 0.422508 -0.145621
H1    H     H_    0.155104 0.705216 0.637203 0.164273
H2    H     H_    0.844899 0.294889 0.362569 0.164275
H3    H     H_    0.844899 0.705111 0.637431 0.164275
H4    H     H_    0.155104 0.294783 0.362797 0.164273
C15   C     C_R   0.146352 0.500000 0.500000 -0.035582
C16   C     C_R   0.853650 0.500000 0.500000 -0.035576
C17   C     C_R   0.291660 0.500000 0.500000 -0.035387
C18   C     C_R   0.708341 0.500000 0.500000 -0.035448
N3    N     N_R   0.034354 0.390205 0.422368 -0.236267
N4    N     N_R   0.965648 0.609795 0.577632 -0.236269
N5    N     N_R   0.965648 0.390205 0.422368 -0.236269
N6    N     N_R   0.034354 0.609795 0.577632 -0.236267
C19   C     C_R   0.929889 0.500000 0.500000 0.436675
C20   C     C_R   0.070113 0.500000 0.500000 0.436676
C21   C     C_3   0.292432 0.744982 0.659505 -0.837624
H5    H     H_    0.255895 0.830626 0.705286 0.229761
H6    H     H_    0.322949 0.706674 0.771600 0.252157
H7    H     H_    0.327544 0.796842 0.564230 0.218685
C22   C     C_3   0.707574 0.255134 0.340220 -0.837520
H8    H     H_    0.744112 0.169516 0.294372 0.229733
H9    H     H_    0.672453 0.203207 0.435428 0.218678
H10   H     H_    0.677067 0.293521 0.228142 0.252163
C23   C     C_3   0.707574 0.744866 0.659781 -0.837521
H11   H     H_    0.672453 0.796793 0.564572 0.218678
H12   H     H_    0.677067 0.706478 0.771858 0.252163
H13   H     H_    0.744112 0.830484 0.705629 0.229733
C24   C     C_3   0.292432 0.255018 0.340495 -0.837624
H14   H     H_    0.327544 0.203158 0.435770 0.218685
H15   H     H_    0.255895 0.169374 0.294713 0.229761
H16   H     H_    0.322949 0.293326 0.228400 0.252157

loop_
_geom_bond_atom_site_label_1
_geom_bond_atom_site_label_2
_geom_bond_distance
_ccdc_geom_bond_type
C22   H8    1.110853 S    
C7    C11   1.399209 A    
C12   C16   1.402333 A    
C11   H1    1.083284 S    
C21   H5    1.110840 S    
C24   H15   1.110840 S    
O5    C3    1.280343 A    
C8    C22   1.509587 S    
O3    Cu1   1.934078 S    
O5    Cu1   1.943503 S    
O6    C4    1.280350 A    
C23   H13   1.110853 S    
C8    C18   1.413994 A    
C21   H7    1.110720 S    
O3    C2    1.273393 A    
C13   C16   1.402334 A    
C9    C23   1.509587 S    
N1    N2    1.196602 T    
C14   C15   1.402313 A    
N5    C19   1.357283 A    
C24   H14   1.110720 S    
C24   H16   1.109709 S    
N6    C20   1.357283 A    
C21   H6    1.109709 S    
Cu2   N1    1.979018 S    
O2    C2    1.273991 A    
C10   C14   1.399210 A    
C9    C13   1.399209 A    
Cu1   N2    1.979018 S    
O1    C1    1.273991 A    
N4    N6    1.329759 A    
N3    N5    1.329759 A    
C14   H4    1.083283 S    
C10   C24   1.509548 S    
C22   H9    1.110734 S    
O4    Cu2   1.934078 S    
O2    Cu2   1.934636 S    
O7    C4    1.280349 A    
C1    C5    1.405741 S    
O1    Cu1   1.934637 S    
O8    C3    1.280343 A    
N3    C20   1.357284 A    
C5    C6    1.188600 T    
C7    C21   1.509548 S    
C3    C17   1.465649 S    
C15   C20   1.475541 S    
C13   H3    1.083309 S    
C23   H11   1.110733 S    
C7    C17   1.413951 A    
C16   C19   1.475547 S    
C10   C17   1.413950 A    
O7    Cu1   1.943501 S    
O6    Cu2   1.943501 S    
C9    C18   1.413993 A    
C22   H10   1.109722 S    
C4    C18   1.465669 S    
Cu1   Cu2   2.633708 S    
C2    C6    1.405741 S    
C8    C12   1.399209 A    
N4    C19   1.357284 A    
C12   H2    1.083310 S    
O8    Cu2   1.943503 S    
O4    C1    1.273393 A    
C23   H12   1.109722 S    
C11   C15   1.402314 A    
