data_mof_unit_33220.cif
_audit_creation_date              2012-12-10T16:44:46-0500
_audit_creation_method            fapswitch 2.2
_symmetry_space_group_name_H-M    P1
_symmetry_Int_Tables_number       1
_space_group_crystal_system       triclinic
_cell_length_a                    15.000412
_cell_length_b                    8.673781
_cell_length_c                    7.453013
_cell_angle_alpha                 102.9207
_cell_angle_beta                  93.916838
_cell_angle_gamma                 92.467677
_cell_volume                      941.255319976

loop_
_atom_site_label
_atom_site_type_symbol
_atom_type_description
_atom_site_fract_x
_atom_site_fract_y
_atom_site_fract_z
_atom_type_partial_charge
C1    C     C_R   0.497154 0.199766 0.453311 0.940346
C2    C     C_R   0.182508 0.354740 0.461137 0.260945
C3    C     C_R   0.766695 0.500456 0.491022 -0.211207
C4    C     C_R   0.233305 0.499544 0.508978 -0.211207
C5    C     C_R   0.807036 0.355578 0.444314 0.272068
C6    C     C_R   0.192964 0.644422 0.555685 0.272068
C7    C     C_R   0.900661 0.354647 0.448539 0.046011
C8    C     C_R   0.099339 0.645353 0.551461 0.046011
C9    C     C_R   0.952875 0.500122 0.497491 -0.005400
C10   C     C_R   0.047125 0.499878 0.502509 -0.005400
C11   C     C_R   0.911114 0.645831 0.541669 0.048453
C12   C     C_R   0.502846 0.800234 0.546689 0.940346
C13   C     C_R   0.088886 0.354168 0.458331 0.048453
C14   C     C_R   0.943383 0.211634 0.406345 -0.137473
C15   C     C_R   0.056617 0.788366 0.593655 -0.137473
C16   C     C_R   0.035966 0.211394 0.411290 -0.153389
C17   C     C_R   0.964034 0.788606 0.588710 -0.153389
C18   C     C_2   0.495793 0.031814 0.427059 -0.238954
C19   C     C_2   0.504207 0.968186 0.572941 -0.238954
C20   C     C_R   0.329354 0.499651 0.502851 0.952783
C21   C     C_R   0.670646 0.500349 0.497149 0.952783
C22   C     C_R   0.817492 0.645260 0.538863 0.260946
Cl1   Cl    Cl    0.762153 0.824677 0.595009 -0.581028
Cl2   Cl    Cl    0.237847 0.175323 0.404990 -0.581028
Cl3   Cl    Cl    0.738834 0.176380 0.384425 -0.575665
Cl4   Cl    Cl    0.261166 0.823619 0.615575 -0.575665
Cu1   Cu    Cu3+1 0.510010 0.517380 0.684380 1.049249
Cu2   Cu    Cu3+1 0.489990 0.482620 0.315620 1.049249
H1    H     H_    0.905991 0.098124 0.369205 0.214607
H2    H     H_    0.094009 0.901876 0.630795 0.214607
H3    H     H_    0.065250 0.097722 0.377452 0.206375
H4    H     H_    0.934750 0.902278 0.622548 0.206375
H5    H     H_    0.487941 0.960212 0.286482 0.179937
H6    H     H_    0.512059 0.039788 0.713518 0.179937
H7    H     H_    0.430098 0.377779 0.948780 0.243885
H8    H     H_    0.569902 0.622221 0.051220 0.243885
N1    N     N_2   0.474890 0.456420 0.038520 -0.210249
N2    N     N_2   0.525110 0.543580 0.961480 -0.210249
O1    O     O_R   0.506510 0.286130 0.619770 -0.595684
O2    O     O_R   0.493490 0.713870 0.380230 -0.595684
O3    O     O_R   0.489600 0.256770 0.308360 -0.568089
O4    O     O_R   0.510400 0.743230 0.691640 -0.568089
O5    O     O_R   0.378710 0.514640 0.655720 -0.576792
O6    O     O_R   0.621290 0.485360 0.344280 -0.576792
O7    O     O_R   0.361800 0.485290 0.344300 -0.560730
O8    O     O_R   0.638200 0.514710 0.655700 -0.560730

loop_
_geom_bond_atom_site_label_1
_geom_bond_atom_site_label_2
_ccdc_geom_bond_type
C12   O2    A    
C2    C4    A    
C19   H6    S    
C15   C17   A    
N1    N2    D    
C21   O6    A    
C9    C10   A    
C11   C22   A    
C20   O7    A    
C2    C13   A    
H8    N2    S    
C16   H3    S    
C9    C11   A    
Cu1   O4    S    
C1    C18   S    
C6    Cl4   S    
Cu2   N1    S    
C5    Cl3   S    
C12   C19   S    
C1    O3    A    
H7    N1    S    
C21   O8    A    
C8    C15   A    
C7    C9    A    
C2    Cl2   S    
C8    C10   A    
C18   H5    S    
C14   C16   A    
Cu2   O7    S    
C3    C21   S    
C1    O1    A    
Cu1   N2    S    
C12   O4    A    
C4    C20   S    
Cu1   O5    S    
Cu2   O3    S    
C20   O5    A    
Cu1   O8    S    
C15   H2    S    
C4    C6    A    
C18   C19   D    
C13   C16   A    
Cu1   Cu2   S    
C5    C7    A    
C17   H4    S    
Cu2   O2    S    
C22   Cl1   S    
C11   C17   A    
C3    C22   A    
C6    C8    A    
C14   H1    S    
Cu2   O6    S    
C7    C14   A    
Cu1   O1    S    
C3    C5    A    
C10   C13   A    
