data_mof_unit_43025.cif
_audit_creation_date              2013-03-05T15:50:12-0500
_audit_creation_method            fapswitch 2.2
_symmetry_space_group_name_H-M    P1
_symmetry_Int_Tables_number       1
_space_group_crystal_system       triclinic
_cell_length_a                    14.915439
_cell_length_b                    15.860842
_cell_length_c                    9.630785
_cell_angle_alpha                 90.09261
_cell_angle_beta                  87.040404
_cell_angle_gamma                 90.284085
_cell_volume                      2275.29951274

loop_
_atom_site_label
_atom_site_type_symbol
_atom_site_description
_atom_site_fract_x
_atom_site_fract_y
_atom_site_fract_z
_atom_type_partial_charge
O1    O     O_R   0.409820 0.909830 0.618810 -0.610483
O2    O     O_R   0.409820 0.090170 0.618810 -0.609747
O3    O     O_R   0.909820 0.409830 0.618810 -0.610481
O4    O     O_R   0.909820 0.590170 0.618810 -0.609734
O5    O     O_R   0.409840 0.909830 0.381240 -0.575955
O6    O     O_R   0.409840 0.090170 0.381240 -0.581333
O7    O     O_R   0.909840 0.409830 0.381240 -0.575949
O8    O     O_R   0.909840 0.590170 0.381240 -0.581329
C1    C     C_R   0.380926 0.880385 0.502946 0.776627
C2    C     C_R   0.381751 0.120156 0.502967 0.774958
C3    C     C_R   0.880924 0.380387 0.502946 0.776636
C4    C     C_R   0.881756 0.620160 0.502966 0.774977
Cu1   Cu    Cu3+1 0.499990 0.000000 0.640660 0.908051
Cu2   Cu    Cu3+1 0.999990 0.500000 0.640660 0.908018
Cu3   Cu    Cu3+1 0.500010 0.000000 0.359340 0.935650
Cu4   Cu    Cu3+1 0.000010 0.500000 0.359340 0.935636
O9    O     O_R   0.590170 0.090170 0.618760 -0.586426
O10   O     O_R   0.590170 0.909830 0.618760 -0.581434
O11   O     O_R   0.090170 0.590170 0.618760 -0.586459
O12   O     O_R   0.090170 0.409830 0.618760 -0.581462
O13   O     O_R   0.590190 0.090180 0.381190 -0.579178
O14   O     O_R   0.590190 0.909820 0.381190 -0.574195
O15   O     O_R   0.090190 0.590180 0.381190 -0.579175
O16   O     O_R   0.090190 0.409820 0.381190 -0.574219
C5    C     C_R   0.609788 0.125547 0.499209 0.786220
C6    C     C_R   0.611707 0.875650 0.498968 0.779349
C7    C     C_R   0.109788 0.625546 0.499210 0.786146
C8    C     C_R   0.111702 0.375647 0.498968 0.779258
H1    H     H_    0.323503 0.205045 0.285099 0.159084
H2    H     H_    0.310220 0.807480 0.283217 0.161719
H3    H     H_    0.823516 0.705056 0.285097 0.159083
H4    H     H_    0.810235 0.307468 0.283217 0.161721
C9    C     C_R   0.289606 0.193014 0.769009 -0.194587
C10   C     C_R   0.294273 0.801141 0.769473 -0.173468
C11   C     C_R   0.789637 0.693043 0.769004 -0.194568
C12   C     C_R   0.794238 0.301171 0.769474 -0.173463
H5    H     H_    0.356629 0.175457 0.789991 0.189159
H6    H     H_    0.360693 0.821694 0.787538 0.184731
H7    H     H_    0.856663 0.675488 0.789976 0.189158
H8    H     H_    0.860660 0.321715 0.787552 0.184723
C13   C     C_R   0.230593 0.202112 0.884820 -0.235977
C14   C     C_R   0.240311 0.784420 0.888674 -0.229551
C15   C     C_R   0.730633 0.702148 0.884823 -0.235966
C16   C     C_R   0.740255 0.284473 0.888664 -0.229552
H9    H     H_    0.252693 0.189596 0.988112 0.143619
H10   H     H_    0.266078 0.794310 0.990565 0.142951
H11   H     H_    0.752741 0.689640 0.988113 0.143615
H12   H     H_    0.766009 0.294371 0.990562 0.142948
C17   C     C_R   0.642059 0.722993 0.867248 -0.094847
C18   C     C_R   0.651346 0.261801 0.876817 -0.141846
C19   C     C_R   0.142024 0.222965 0.867235 -0.094853
C20   C     C_R   0.151404 0.761738 0.876850 -0.141839
H13   H     H_    0.594395 0.722344 0.956009 0.143932
H14   H     H_    0.607079 0.257528 0.969337 0.142302
H15   H     H_    0.094354 0.222313 0.955989 0.143932
H16   H     H_    0.107151 0.757449 0.969383 0.142292
C21   C     C_R   0.615371 0.747993 0.737002 0.181858
C22   C     C_R   0.619089 0.245054 0.746218 0.180467
C23   C     C_R   0.115346 0.247978 0.736991 0.181857
C24   C     C_R   0.119127 0.745013 0.746256 0.180540
C25   C     C_R   0.679870 0.752738 0.622442 0.071216
C26   C     C_R   0.679552 0.246095 0.626235 0.068171
C27   C     C_R   0.179852 0.252727 0.622440 0.071226
C28   C     C_R   0.179572 0.746075 0.626252 0.068143
C29   C     C_R   0.262093 0.209785 0.633571 0.081086
C30   C     C_R   0.262470 0.788813 0.635004 0.086090
C31   C     C_R   0.762113 0.709801 0.633569 0.081081
C32   C     C_R   0.762450 0.288831 0.634998 0.086113
C33   C     C_R   0.312276 0.186754 0.509001 -0.102753
C34   C     C_R   0.308981 0.815683 0.508917 -0.107177
C35   C     C_R   0.812290 0.686764 0.508998 -0.102769
C36   C     C_R   0.808976 0.315687 0.508917 -0.107188
C37   C     C_R   0.287487 0.220823 0.382161 -0.208020
C38   C     C_R   0.278161 0.787613 0.381326 -0.199586
C39   C     C_R   0.787500 0.720835 0.382159 -0.208004
C40   C     C_R   0.778167 0.287609 0.381324 -0.199584
H17   H     H_    0.704830 0.807535 0.281040 0.168400
H18   H     H_    0.689636 0.207252 0.277313 0.151197
H19   H     H_    0.204811 0.307517 0.281041 0.168410
H20   H     H_    0.189624 0.707257 0.277319 0.151209
C41   C     C_R   0.718240 0.778453 0.378370 -0.219058
C42   C     C_R   0.707831 0.230732 0.377137 -0.211919
C43   C     C_R   0.218225 0.278440 0.378371 -0.219070
C44   C     C_R   0.207826 0.730735 0.377142 -0.211921
C45   C     C_R   0.667063 0.798823 0.498738 -0.124516
C46   C     C_R   0.662544 0.204297 0.499834 -0.126366
C47   C     C_R   0.167052 0.298815 0.498739 -0.124484
C48   C     C_R   0.162549 0.704293 0.499843 -0.126333
H21   H     H_    0.361932 0.016223 0.144092 0.149856
H22   H     H_    0.861933 0.516229 0.144091 0.149858
C49   C     C_R   0.660321 0.956792 0.126784 0.242492
C50   C     C_R   0.160319 0.456791 0.126804 0.242536
C51   C     C_R   0.713223 0.899078 0.049234 -0.286678
C52   C     C_R   0.213212 0.399060 0.049280 -0.286662
H23   H     H_    0.770941 0.870294 0.093506 0.158336
H24   H     H_    0.270926 0.370275 0.093561 0.158306
C53   C     C_R   0.714840 0.904163 0.905985 -0.216123
C54   C     C_R   0.214829 0.404119 0.906036 -0.216144
H25   H     H_    0.772529 0.878297 0.847797 0.178125
H26   H     H_    0.272510 0.378225 0.847862 0.178125
C55   C     C_R   0.662711 0.965476 0.846055 0.257039
C56   C     C_R   0.162708 0.465421 0.846064 0.256944
C57   C     C_R   0.580447 0.988051 0.918870 0.097387
C58   C     C_R   0.080451 0.488044 0.918872 0.097365
C59   C     C_R   0.579690 0.984822 0.067988 0.126526
C60   C     C_R   0.079694 0.484828 0.067993 0.126515
N1    N     N_R   0.501200 0.000000 0.147910 -0.206777
N2    N     N_R   0.001200 0.500000 0.147910 -0.206769
C61   C     C_R   0.424138 0.009855 0.081890 -0.067667
C62   C     C_R   0.924140 0.509858 0.081889 -0.067665
C63   C     C_R   0.422753 0.006222 0.935120 0.215138
C64   C     C_R   0.922755 0.506229 0.935120 0.215141
N3    N     N_R   0.501270 0.000000 0.852040 -0.207109
N4    N     N_R   0.001270 0.500000 0.852040 -0.207089
C65   C     C_3   0.720178 0.029331 0.766681 -0.759930
H27   H     H_    0.790632 0.029346 0.799696 0.199970
H28   H     H_    0.724153 0.014356 0.654048 0.235117
H29   H     H_    0.696533 0.093901 0.790299 0.238488
C66   C     C_3   0.220176 0.529198 0.766497 -0.759605
H30   H     H_    0.224003 0.514187 0.653869 0.235159
H31   H     H_    0.196646 0.593806 0.790160 0.238441
H32   H     H_    0.290697 0.529127 0.799273 0.199851
C67   C     C_3   0.330801 0.000572 0.880107 -0.823611
H33   H     H_    0.328406 0.000618 0.766896 0.294699
H34   H     H_    0.297860 0.942592 0.920566 0.210094
H35   H     H_    0.289092 0.052303 0.922852 0.206951
C68   C     C_3   0.830802 0.500591 0.880107 -0.823608
H36   H     H_    0.828407 0.500620 0.766896 0.294701
H37   H     H_    0.797845 0.442623 0.920587 0.210073
H38   H     H_    0.789106 0.552336 0.922832 0.206970
N5    N     N_3   0.521343 0.759539 0.723132 -0.605294
H39   H     H_    0.504618 0.815789 0.774045 0.247390
H40   H     H_    0.505408 0.762481 0.619018 0.211286
N6    N     N_3   0.523907 0.236325 0.738248 -0.602700
H41   H     H_    0.505004 0.236250 0.635400 0.212276
H42   H     H_    0.505220 0.179571 0.786423 0.247487
N7    N     N_3   0.021320 0.259533 0.723109 -0.605291
H43   H     H_    0.004597 0.315783 0.774027 0.247400
H44   H     H_    0.005390 0.262481 0.618995 0.211291
N8    N     N_3   0.023941 0.736299 0.738315 -0.602698
H45   H     H_    0.005025 0.736241 0.635471 0.212280
H46   H     H_    0.005251 0.679542 0.786477 0.247496
C69   C     C_3   0.716632 0.016856 0.207090 -0.757846
H47   H     H_    0.715731 0.001045 0.318938 0.243011
H48   H     H_    0.788564 0.015481 0.170018 0.195517
H49   H     H_    0.695408 0.082020 0.187122 0.218085
C70   C     C_3   0.216637 0.516834 0.207150 -0.757725
H50   H     H_    0.215642 0.501061 0.319019 0.243051
H51   H     H_    0.288600 0.515356 0.170238 0.195473
H52   H     H_    0.195506 0.582018 0.187078 0.218012

loop_
_geom_bond_atom_site_label_1
_geom_bond_atom_site_label_2
_geom_bond_distance
_ccdc_geom_bond_type
C22   C26   1.428680 A    
C69   H49   1.102532 S    
C43   C47   1.393095 A    
C27   C29   1.414974 A    
C49   C59   1.428659 A    
C70   H50   1.105781 S    
O10   C6    1.299817 A    
H20   C44   1.077690 S    
C10   C30   1.414953 A    
C58   C60   1.436607 A    
C9    C29   1.413513 A    
C67   H33   1.092740 S    
C22   N6    1.431720 S    
O7    C3    1.313603 A    
C59   N1    1.389296 A    
C18   H14   1.083275 S    
Cu1   O10   1.971778 S    
C70   H51   1.113481 S    
N8    H46   1.043437 S    
C61   C63   1.415803 A    
H2    C38   1.083300 S    
C17   H13   1.083273 S    
C67   H34   1.102652 S    
H1    C37   1.083394 S    
C52   C54   1.380978 A    
C65   H27   1.113508 S    
H21   C61   1.083189 S    
C17   C21   1.394219 A    
C14   H10   1.083100 S    
Cu3   N1    2.035399 S    
O2    Cu1   1.986900 S    
H18   C42   1.077678 S    
C64   C68   1.497808 S    
C20   C24   1.394339 A    
C62   C64   1.415793 A    
O6    Cu3   1.971675 S    
Cu3   O14   1.987119 S    
Cu1   N3    2.036831 S    
N2    C62   1.351814 A    
C65   H28   1.108719 S    
C10   C14   1.392664 A    
Cu4   O16   1.987119 S    
C34   C38   1.404998 A    
C33   C37   1.404167 A    
C57   N3    1.387789 A    
C11   C31   1.413509 A    
O4    C4    1.303108 A    
O11   C7    1.300673 A    
C31   C35   1.428816 A    
C36   C40   1.404993 A    
C52   H24   1.083410 S    
O8    Cu4   1.971675 S    
C51   H23   1.083409 S    
C50   C70   1.506028 S    
N1    C61   1.351818 A    
C64   N4    1.387640 A    
C53   H25   1.084311 S    
C49   C69   1.505977 S    
C66   H31   1.104430 S    
C63   C67   1.497814 S    
C18   C22   1.394337 A    
Cu2   O12   1.971778 S    
C12   H8    1.064163 S    
C70   H52   1.102619 S    
O1    C1    1.301906 A    
C1    C34   1.480168 S    
C63   N3    1.387646 A    
C40   C42   1.382342 A    
C3    C36   1.480171 S    
C15   C17   1.382358 A    
C67   H35   1.098738 S    
N6    H42   1.043433 S    
O12   C8    1.299819 A    
Cu2   N4    2.036831 S    
C9    H5    1.068432 S    
C32   C36   1.431498 A    
C28   C30   1.413393 A    
C11   H7    1.068431 S    
C68   H37   1.102650 S    
O5    C1    1.313603 A    
C54   C56   1.392474 A    
C49   C51   1.400888 A    
C26   C46   1.418931 A    
C25   C31   1.414964 A    
H3    C39   1.083392 S    
H17   C41   1.073823 S    
O8    C4    1.313591 A    
C65   H29   1.104306 S    
C8    C47   1.475263 S    
C50   C52   1.400857 A    
C57   C59   1.436573 A    
N8    H45   1.043788 S    
C56   C58   1.428428 A    
N7    H44   1.043521 S    
O3    Cu2   1.976786 S    
C25   C45   1.420499 A    
C24   N8    1.431732 S    
C58   N4    1.387860 A    
C50   C60   1.428682 A    
O7    Cu4   1.962475 S    
C4    C35   1.482346 S    
Cu4   O15   1.977001 S    
O15   C7    1.312495 A    
Cu1   Cu3   2.709316 S    
C55   C65   1.507005 S    
Cu2   Cu4   2.709316 S    
C12   C16   1.392666 A    
O1    Cu1   1.976786 S    
H22   C62   1.083189 S    
C68   H36   1.092740 S    
O2    C2    1.303105 A    
C51   C53   1.381043 A    
C11   C15   1.392459 A    
C66   H32   1.113702 S    
C16   C18   1.382637 A    
C69   H48   1.113410 S    
O13   C5    1.312486 A    
C13   H9    1.082964 S    
C27   C47   1.420493 A    
C10   H6    1.064147 S    
Cu2   O11   1.962575 S    
C21   N5    1.428376 S    
C39   C41   1.384578 A    
O16   C8    1.313259 A    
C38   C44   1.382346 A    
N5    H40   1.043521 S    
H4    C40   1.083300 S    
C66   H30   1.108788 S    
C12   C32   1.414951 A    
C21   C25   1.427729 A    
N6    H41   1.043758 S    
Cu1   O9    1.962575 S    
N7    H43   1.042499 S    
C23   C27   1.427728 A    
C26   C32   1.413400 A    
C24   C28   1.428682 A    
C9    C13   1.392455 A    
C68   H38   1.098729 S    
O9    C5    1.300686 A    
C16   H12   1.083098 S    
C42   C46   1.394553 A    
N5    H39   1.042500 S    
C35   C39   1.404168 A    
C30   C34   1.431499 A    
C44   C48   1.394550 A    
C60   N2    1.389297 A    
C6    C45   1.475255 S    
C29   C33   1.428836 A    
C5    C46   1.473114 S    
C13   C19   1.382346 A    
C19   H15   1.083268 S    
O4    Cu2   1.986900 S    
C7    C48   1.473097 S    
C54   H26   1.084317 S    
C53   C55   1.392485 A    
O5    Cu3   1.962475 S    
O3    C3    1.301906 A    
O6    C2    1.313599 A    
Cu4   N2    2.035399 S    
H19   C43   1.073808 S    
C2    C33   1.482355 S    
C20   H16   1.083272 S    
Cu3   O13   1.977001 S    
C19   C23   1.394217 A    
C55   C57   1.428358 A    
O14   C6    1.313255 A    
C23   N7    1.428381 S    
C28   C48   1.418941 A    
C15   H11   1.082965 S    
C37   C43   1.384573 A    
C41   C45   1.393104 A    
C56   C66   1.507074 S    
C69   H47   1.105784 S    
C14   C20   1.382616 A    
