data_mof_unit_43679.cif
_audit_creation_date              2012-12-10T17:35:02-0500
_audit_creation_method            fapswitch 2.2
_symmetry_space_group_name_H-M    P1
_symmetry_Int_Tables_number       1
_space_group_crystal_system       triclinic
_cell_length_a                    12.106578
_cell_length_b                    12.892065
_cell_length_c                    15.722474
_cell_angle_alpha                 91.940676
_cell_angle_beta                  87.789519
_cell_angle_gamma                 93.697571
_cell_volume                      2445.80252716

loop_
_atom_site_label
_atom_site_type_symbol
_atom_type_description
_atom_site_fract_x
_atom_site_fract_y
_atom_site_fract_z
_atom_type_partial_charge
C1    C     C_R   0.522064 0.699484 0.498736 0.949592
C2    C     C_R   0.535121 0.809677 0.491495 -0.259990
C3    C     C_R   0.601539 0.957500 0.410024 0.383652
C4    C     C_R   0.501310 0.500283 0.661365 0.860204
C5    C     C_R   0.597541 0.850021 0.421975 0.285841
C6    C     C_R   0.466367 0.871147 0.543197 0.376514
C7    C     C_R   0.452916 0.972620 0.520003 -0.221042
C8    C     C_R   0.531882 0.019112 0.461947 -0.187025
C9    C     C_R   0.546032 0.127355 0.462662 0.472107
C10   C     C_R   0.371862 0.138362 0.545999 0.399853
C11   C     C_R   0.368268 0.031549 0.557841 0.430818
C12   C     C_3   0.375845 0.518080 0.052911 0.749954
C13   C     C_R   0.948857 0.398128 0.420944 0.305571
C14   C     C_R   0.835081 0.415718 0.423556 0.486447
C15   C     C_R   0.860934 0.539841 0.537779 0.476363
C16   C     C_R   0.477979 0.299404 0.501181 0.978448
C17   C     C_R   0.977063 0.528582 0.534996 -0.249809
C18   C     C_R   0.022218 0.460392 0.473131 -0.265982
C19   C     C_R   0.139181 0.458557 0.463392 0.454099
C20   C     C_R   0.165663 0.581997 0.578585 0.448018
C21   C     C_R   0.049487 0.585110 0.591697 0.433191
C22   C     C_R   0.498564 0.499503 0.338687 0.905285
C23   C     C_3   0.496066 0.494099 0.082710 -0.239733
C24   C     C_3   0.386125 0.541630 0.955120 0.684392
C25   C     C_3   0.600899 0.572605 0.950305 0.765617
C26   C     C_3   0.585433 0.582001 0.051255 0.546032
C27   C     C_1   0.495129 0.497363 0.250059 -0.185633
C28   C     C_3   0.500572 0.496599 0.917211 -0.306591
C29   C     C_3   0.225314 0.619897 0.097422 -0.089237
C30   C     C_3   0.257118 0.414976 0.881459 -0.177969
C31   C     C_3   0.729307 0.167015 0.483856 -0.094773
C32   C     C_3   0.197048 0.190217 0.535745 -0.215848
C33   C     C_3   0.239907 0.631737 0.708213 -0.099013
C34   C     C_3   0.528774 0.383162 0.047259 0.637743
C35   C     C_3   0.976038 0.581603 0.727317 -0.254299
C36   C     C_3   0.784769 0.396091 0.285278 -0.095367
C37   C     C_3   0.795887 0.599345 0.918735 -0.201985
C38   C     C_3   0.636076 0.241946 0.904573 -0.222600
C39   C     C_3   0.490193 0.242275 0.143134 -0.123508
C40   C     C_3   0.520523 0.380886 0.945930 0.690923
C41   C     C_1   0.494182 0.495156 0.174768 0.176571
C42   C     C_1   0.502870 0.498261 0.825370 0.225837
C43   C     C_1   0.503616 0.499430 0.750073 -0.171624
C44   C     C_R   0.464139 0.186845 0.502644 -0.410796
H1    H     H_    0.176359 0.562589 0.137126 0.150932
H2    H     H_    0.740071 0.085531 0.501413 0.116030
H3    H     H_    0.716523 0.215569 0.542773 0.124888
H4    H     H_    0.152257 0.112506 0.540024 0.185356
H5    H     H_    0.217888 0.207469 0.467848 0.147605
H6    H     H_    0.139826 0.248845 0.560639 0.162058
H7    H     H_    0.736137 0.963082 0.338456 0.337974
H8    H     H_    0.257686 0.919520 0.577378 0.377429
H9    H     H_    0.656635 0.812718 0.308919 0.342842
H10   H     H_    0.455621 0.776663 0.638176 0.327766
H11   H     H_    0.259118 0.387920 0.408791 0.372268
H12   H     H_    0.196370 0.615715 0.031289 0.198512
H13   H     H_    0.390512 0.669553 0.890509 0.359725
H14   H     H_    0.323086 0.657117 0.731213 0.165736
H15   H     H_    0.225588 0.547691 0.722191 0.113553
H16   H     H_    0.180467 0.679217 0.744987 0.192351
H17   H     H_    0.031069 0.276202 0.404654 0.349519
H18   H     H_    0.976163 0.630634 0.786572 0.167038
H19   H     H_    0.032834 0.518551 0.736301 0.094771
H20   H     H_    0.890905 0.546084 0.720014 0.214854
H21   H     H_    0.789866 0.482591 0.282830 0.128981
H22   H     H_    0.861067 0.364708 0.256018 0.198615
H23   H     H_    0.208744 0.698319 0.124155 0.163899
H24   H     H_    0.714923 0.366645 0.245706 0.192890
H25   H     H_    0.739418 0.612461 0.589022 0.378380
H26   H     H_    0.803684 0.653422 0.974961 0.171551
H27   H     H_    0.792880 0.643476 0.859495 0.179493
H28   H     H_    0.871614 0.555161 0.914084 0.168541
H29   H     H_    0.643173 0.723987 0.941465 0.332987
H30   H     H_    0.611726 0.731172 0.081633 0.333554
H31   H     H_    0.683504 0.596741 0.149035 0.348867
H32   H     H_    0.434702 0.243574 0.942311 0.365333
H33   H     H_    0.586985 0.199165 0.854810 0.183403
H34   H     H_    0.246939 0.358060 0.932646 0.266465
H35   H     H_    0.616092 0.208752 0.967913 0.166983
H36   H     H_    0.724650 0.230241 0.889126 0.184109
H37   H     H_    0.526351 0.288957 0.197015 0.172334
H38   H     H_    0.551469 0.189904 0.114023 0.179512
H39   H     H_    0.419781 0.192581 0.169550 0.165935
H40   H     H_    0.312723 0.392435 0.827442 0.199500
H41   H     H_    0.174131 0.414852 0.853926 0.141979
H42   H     H_    0.291839 0.422435 0.129123 0.359780
H43   H     H_    0.694366 0.397625 0.034006 0.406772
H44   H     H_    0.808281 0.195186 0.452075 0.197298
N1    N     N_R   0.207800 0.519340 0.515510 -0.212610
N2    N     N_R   0.792190 0.480660 0.484490 -0.231381
O1    O     O_R   0.421690 0.658830 0.504140 -0.564680
O2    O     O_3   0.283925 0.516436 0.912575 -0.655673
O3    O     O_3   0.300403 0.431650 0.066720 -0.770924
O4    O     O_3   0.637338 0.364506 0.072476 -0.793292
O5    O     O_3   0.642085 0.175191 0.427220 -0.496144
O6    O     O_3   0.291778 0.196974 0.585769 -0.550659
O7    O     O_3   0.669194 0.003082 0.347040 -0.712601
O8    O     O_3   0.279925 0.987555 0.604958 -0.679975
O9    O     O_3   0.650378 0.782508 0.366119 -0.748538
O10   O     O_3   0.415314 0.834971 0.617788 -0.690583
O11   O     O_3   0.182597 0.400728 0.396589 -0.742368
O12   O     O_R   0.609320 0.646410 0.494190 -0.597895
O13   O     O_3   0.397446 0.650986 0.950855 -0.672572
O14   O     O_3   0.238093 0.652079 0.620612 -0.545300
O15   O     O_3   0.983668 0.316710 0.369912 -0.713403
O16   O     O_3   0.008895 0.646063 0.658410 -0.527200
O17   O     O_3   0.764029 0.361085 0.368939 -0.541858
O18   O     O_3   0.820069 0.616409 0.590912 -0.709069
O19   O     O_3   0.702981 0.527542 0.926066 -0.573018
O20   O     O_3   0.596672 0.669975 0.910926 -0.753893
O21   O     O_3   0.547016 0.680316 0.076263 -0.687999
O22   O     O_3   0.688192 0.570569 0.088976 -0.800837
O23   O     O_R   0.406150 0.506210 0.627840 -0.604351
O24   O     O_3   0.431376 0.313634 0.918962 -0.798834
O25   O     O_3   0.620263 0.349572 0.902940 -0.570307
O26   O     O_3   0.449862 0.305816 0.081146 -0.610949
O27   O     O_R   0.593770 0.493790 0.617880 -0.645647
O28   O     O_R   0.390680 0.353590 0.505810 -0.626983
O29   O     O_R   0.578310 0.341170 0.495860 -0.561862
O30   O     O_R   0.406230 0.506210 0.382120 -0.623398
O31   O     O_R   0.593850 0.493790 0.372160 -0.576714
O32   O     O_3   0.340144 0.606805 0.101597 -0.549140
Zn1   Zn    Zn3+2 0.374720 0.508290 0.506640 0.997737
Zn2   Zn    Zn3+2 0.625280 0.491710 0.493360 1.004310

loop_
_geom_bond_atom_site_label_1
_geom_bond_atom_site_label_2
_ccdc_geom_bond_type
H7    O7    S    
C33   H14   S    
C33   O14   S    
C7    C8    A    
O29   Zn2   S    
H9    O9    S    
C25   C28   S    
C7    C11   A    
C12   C23   S    
H31   O22   S    
C13   C18   A    
C11   O8    S    
C34   C40   S    
O27   Zn2   S    
C1    C2    S    
C36   H22   S    
C40   O25   S    
C38   H35   S    
C28   C40   S    
C34   O26   S    
H43   O4    S    
C18   C19   A    
C23   C26   S    
H8    O8    S    
C27   C41   T    
C14   N2    A    
O31   Zn2   S    
C29   H23   S    
C40   O24   S    
C5    O9    S    
C8    C9    A    
C31   H2    S    
H32   O24   S    
C35   H20   S    
H17   O15   S    
C16   C44   S    
C37   O19   S    
C21   O16   S    
O30   Zn1   S    
C25   O19   S    
C1    O1    A    
C31   H3    S    
C37   H26   S    
O1    Zn1   S    
C36   O17   S    
C32   H4    S    
H10   O10   S    
C2    C6    A    
O12   Zn2   S    
C24   O2    S    
H25   O18   S    
H13   O13   S    
C10   C44   A    
C24   C28   S    
C4    O23   A    
H29   O20   S    
C39   H37   S    
C30   O2    S    
C3    C8    A    
C16   O29   A    
H30   O21   S    
C36   H21   S    
N1    Zn1   S    
C25   C26   S    
C17   C21   A    
C29   H1    S    
C6    O10   S    
C15   O18   S    
C22   O30   A    
C19   N1    A    
H42   O3    S    
C16   O28   A    
C3    O7    S    
O23   Zn1   S    
C10   O6    S    
C23   C34   S    
C29   O32   S    
C17   C18   A    
C30   H41   S    
C32   H6    S    
C25   O20   S    
C13   O15   S    
C14   O17   S    
C29   H12   S    
C33   H16   S    
C22   C27   S    
C37   H27   S    
C4    O27   A    
C2    C5    A    
C42   C43   T    
C26   O22   S    
C22   O31   A    
C15   C17   A    
H11   O11   S    
C9    C44   A    
C31   H44   S    
C32   O6    S    
N2    Zn2   S    
C34   O4    S    
C39   H38   S    
C3    C5    A    
C36   H24   S    
C6    C7    A    
C20   O14   S    
C38   H33   S    
C20   N1    A    
C12   C24   S    
C23   C41   S    
C24   O13   S    
C9    O5    S    
C39   H39   S    
C35   O16   S    
C15   N2    A    
C38   O25   S    
C19   O11   S    
C38   H36   S    
C31   O5    S    
C1    O12   A    
C28   C42   S    
C4    C43   S    
C35   H18   S    
O28   Zn1   S    
C30   H40   S    
C12   O3    S    
C32   H5    S    
C10   C11   A    
C30   H34   S    
C12   O32   S    
C20   C21   A    
C33   H15   S    
C39   O26   S    
C37   H28   S    
C35   H19   S    
C13   C14   A    
C26   O21   S    
