data_mof_unit_47717.cif
_audit_creation_date              2012-12-10T17:43:19-0500
_audit_creation_method            fapswitch 2.2
_symmetry_space_group_name_H-M    P1
_symmetry_Int_Tables_number       1
_space_group_crystal_system       triclinic
_cell_length_a                    15.160109
_cell_length_b                    13.674548
_cell_length_c                    10.713063
_cell_angle_alpha                 89.990164
_cell_angle_beta                  90.297552
_cell_angle_gamma                 90.229186
_cell_volume                      2220.85204708

loop_
_atom_site_label
_atom_site_type_symbol
_atom_type_description
_atom_site_fract_x
_atom_site_fract_y
_atom_site_fract_z
_atom_type_partial_charge
C1    C     C_R   0.328629 0.499537 0.500417 0.844273
C2    C     C_R   0.671514 0.500052 0.497214 0.824681
C3    C     C_R   0.953669 0.509823 0.497581 -0.004957
C4    C     C_R   0.046984 0.509149 0.500197 -0.010252
C5    C     C_R   0.907916 0.537105 0.388114 0.059690
C6    C     C_R   0.091823 0.488819 0.613517 0.060552
C7    C     C_R   0.950276 0.470567 0.718568 0.191884
C8    C     C_R   0.048385 0.554156 0.280035 0.205015
C9    C     C_R   0.041755 0.475715 0.722764 -0.207332
C10   C     C_R   0.956959 0.559805 0.281113 -0.215376
C11   C     C_R   0.451299 0.793042 0.586555 0.007608
C12   C     C_R   0.549229 0.206986 0.414005 0.032930
C13   C     C_R   0.547575 0.793467 0.412357 0.003031
C14   C     C_R   0.450923 0.206499 0.585967 0.023864
C15   C     C_R   0.549282 0.896554 0.410742 -0.000872
C16   C     C_R   0.449598 0.103423 0.587854 -0.000731
C17   C     C_R   0.449967 0.896139 0.588468 -0.002911
C18   C     C_R   0.549938 0.103875 0.411302 -0.002862
C19   C     C_R   0.499773 0.948162 0.499717 0.091760
C20   C     C_R   0.499821 0.051837 0.499672 0.088859
C21   C     C_R   0.599048 0.948992 0.322702 -0.209346
C22   C     C_R   0.399262 0.050980 0.675188 -0.205771
C23   C     C_R   0.399888 0.948212 0.676111 -0.204564
C24   C     C_R   0.599361 0.051789 0.322894 -0.197579
C25   C     C_R   0.499120 0.500172 0.259258 0.805498
C26   C     C_R   0.504140 0.500296 0.740847 0.791898
C27   C     C_3   0.444346 0.567820 0.038207 0.117672
C28   C     C_3   0.563139 0.436361 0.962998 0.097441
C29   C     C_3   0.527184 0.591303 0.960966 0.121089
C30   C     C_3   0.480190 0.412127 0.039271 0.131176
C31   C     C_3   0.423451 0.478648 0.954221 -0.259063
C32   C     C_3   0.583382 0.525517 0.047222 -0.271357
C33   C     C_3   0.506968 0.501911 0.877661 -0.104490
C34   C     C_3   0.499921 0.501070 0.123020 -0.091623
C35   C     C_R   0.814371 0.543690 0.389932 0.033772
C36   C     C_R   0.185217 0.483503 0.615411 0.024927
C37   C     C_R   0.768499 0.500706 0.491503 -0.132559
C38   C     C_R   0.231749 0.498253 0.502731 -0.122495
C39   C     C_R   0.816435 0.457696 0.589569 0.096260
C40   C     C_R   0.185802 0.505650 0.389089 0.089146
C41   C     C_R   0.906091 0.479889 0.603550 0.031144
C42   C     C_R   0.094622 0.523970 0.388430 0.033536
Cu1   Cu    Cu3+1 0.500000 0.597420 0.500000 0.935658
Cu2   Cu    Cu3+1 0.500000 0.402580 0.500000 0.958745
H1    H     H_    0.357033 0.461753 0.918849 0.155008
H2    H     H_    0.649250 0.544919 0.084081 0.141663
H3    H     H_    0.072368 0.469415 0.813373 0.196412
H4    H     H_    0.925308 0.582473 0.195772 0.201218
H5    H     H_    0.412997 0.751909 0.653642 0.119865
H6    H     H_    0.588119 0.248154 0.347633 0.119378
H7    H     H_    0.583607 0.752554 0.343244 0.119236
H8    H     H_    0.413107 0.247303 0.653335 0.113396
H9    H     H_    0.638125 0.910452 0.254328 0.143284
H10   H     H_    0.359100 0.089530 0.742256 0.143018
H11   H     H_    0.360915 0.909508 0.744903 0.143482
H12   H     H_    0.638229 0.090508 0.253993 0.141431
N1    N     N_R   0.500000 0.743810 0.500000 -0.181838
N2    N     N_R   0.500000 0.256190 0.500000 -0.178631
O1    O     O_R   0.370260 0.582280 0.500030 -0.578327
O2    O     O_R   0.629740 0.417720 0.499970 -0.553484
O3    O     O_R   0.629740 0.582280 0.499970 -0.584613
O4    O     O_R   0.370260 0.417720 0.500030 -0.563652
O5    O     O_R   0.499980 0.582260 0.316850 -0.598322
O6    O     O_R   0.500020 0.417740 0.683150 -0.587495
O7    O     O_R   0.500020 0.582260 0.683150 -0.604368
O8    O     O_R   0.499980 0.417740 0.316850 -0.594078
C43   C     C_3   0.377322 0.643294 0.083467 -0.364504
C44   C     C_3   0.329013 0.692605 0.974019 -0.354258
C45   C     C_3   0.287191 0.789056 0.013629 -0.791682
H13   H     H_    0.244711 0.778408 0.096559 0.288886
H14   H     H_    0.339151 0.843665 0.036796 0.233729
H15   H     H_    0.246407 0.818272 0.935841 0.245343
H16   H     H_    0.374715 0.708005 0.896007 0.207868
H17   H     H_    0.276987 0.642453 0.937977 0.240416
H18   H     H_    0.328334 0.607302 0.144158 0.235623
H19   H     H_    0.412052 0.697922 0.142532 0.201205
C46   C     C_3   0.636740 0.367846 0.922471 -0.361302
C47   C     C_3   0.681734 0.318680 0.035068 -0.362342
C48   C     C_3   0.743801 0.237102 0.995246 -0.750667
H20   H     H_    0.707564 0.181404 0.939323 0.250748
H21   H     H_    0.799121 0.267040 0.939695 0.301750
H22   H     H_    0.771659 0.200987 0.079428 0.232298
H23   H     H_    0.719687 0.374145 0.089190 0.231398
H24   H     H_    0.632100 0.286223 0.098093 0.207087
H25   H     H_    0.609758 0.312798 0.856425 0.215826
H26   H     H_    0.686061 0.412855 0.872485 0.237135
C49   C     C_3   0.561678 0.689733 0.910486 -0.377108
C50   C     C_3   0.563032 0.771973 0.007753 -0.386528
C51   C     C_3   0.613713 0.860813 0.959213 -0.839987
H27   H     H_    0.683373 0.841526 0.939916 0.262387
H28   H     H_    0.582588 0.888398 0.871957 0.264118
H29   H     H_    0.612543 0.920197 0.029744 0.241164
H30   H     H_    0.494918 0.796332 0.026477 0.231349
H31   H     H_    0.592503 0.746355 0.096898 0.224039
H32   H     H_    0.629359 0.677566 0.874350 0.211253
H33   H     H_    0.520062 0.714261 0.831406 0.205956
C52   C     C_3   0.448770 0.311063 0.084635 -0.372568
C53   C     C_3   0.445735 0.233611 0.981255 -0.384266
C54   C     C_3   0.400535 0.140493 0.027513 -0.836943
H34   H     H_    0.433668 0.113191 0.113418 0.262622
H35   H     H_    0.330015 0.154897 0.047869 0.265073
H36   H     H_    0.404528 0.082671 0.955243 0.240666
H37   H     H_    0.410053 0.261863 0.898027 0.224414
H38   H     H_    0.513600 0.214013 0.953328 0.231097
H39   H     H_    0.492206 0.284533 0.160602 0.197802
H40   H     H_    0.382128 0.319115 0.124217 0.237638
C55   C     C_3   0.765415 0.589967 0.280547 -0.414656
C56   C     C_3   0.785219 0.700545 0.270543 -0.327134
C57   C     C_3   0.790627 0.734380 0.134887 -0.839581
H41   H     H_    0.854156 0.711634 0.093134 0.276524
H42   H     H_    0.736458 0.702209 0.078478 0.262280
H43   H     H_    0.786516 0.815365 0.130732 0.245683
H44   H     H_    0.732770 0.741918 0.318849 0.207765
H45   H     H_    0.848246 0.720554 0.317620 0.236347
H46   H     H_    0.783774 0.550417 0.194004 0.206173
H47   H     H_    0.693096 0.580459 0.286840 0.178254
C58   C     C_3   0.233409 0.449196 0.732632 -0.410165
C59   C     C_3   0.215891 0.339223 0.756553 -0.336601
C60   C     C_3   0.207709 0.314617 0.895108 -0.801729
H48   H     H_    0.269394 0.331880 0.945906 0.262416
H49   H     H_    0.152638 0.355781 0.937864 0.284874
H50   H     H_    0.194211 0.235210 0.905950 0.243940
H51   H     H_    0.154203 0.314281 0.709707 0.241552
H52   H     H_    0.270319 0.295709 0.716008 0.206535
H53   H     H_    0.305480 0.460027 0.724699 0.166756
H54   H     H_    0.214178 0.495425 0.813128 0.204415
I1    I     I_    0.772707 0.320217 0.661217 -0.393769
I2    I     I_    0.243823 0.432140 0.234645 -0.437998
I3    I     I_    0.885153 0.473379 0.893997 -0.448964
I4    I     I_    0.105506 0.615346 0.116434 -0.430205

loop_
_geom_bond_atom_site_label_1
_geom_bond_atom_site_label_2
_ccdc_geom_bond_type
C38   C40   A    
C49   C50   S    
C27   C29   S    
Cu2   O8    S    
C19   C20   A    
C1    O4    A    
C6    C9    A    
C52   C53   S    
Cu1   O5    S    
C39   C41   A    
C46   C47   S    
Cu2   O6    S    
C29   C49   S    
C15   C19   A    
C30   C52   S    
C17   C23   A    
C18   C24   A    
C35   C37   A    
C8    C42   A    
C29   C32   S    
C57   H42   S    
C3    C41   A    
C30   C31   S    
C2    O2    A    
C13   N1    A    
C44   H17   S    
C53   H37   S    
C40   I2    S    
C29   C33   S    
C56   C57   S    
C25   O5    A    
C56   H45   S    
C45   H14   S    
C26   O6    A    
C59   C60   S    
C13   H7    S    
C47   H23   S    
C36   C58   S    
Cu2   N2    S    
C44   C45   S    
C49   H32   S    
C55   C56   S    
C31   C33   S    
C51   H28   S    
C58   H54   S    
C2    O3    A    
Cu1   O1    S    
C25   C34   S    
C12   N2    A    
C40   C42   A    
C46   H25   S    
C22   H10   S    
C60   H49   S    
C27   C34   S    
C14   N2    A    
C50   H31   S    
C39   I1    S    
C30   C34   S    
C27   C31   S    
C43   C44   S    
Cu1   O7    S    
C28   C32   S    
C35   C55   S    
C4    C6    A    
C57   H43   S    
C48   H21   S    
C47   C48   S    
Cu2   O4    S    
C44   H16   S    
C32   C34   S    
C56   H44   S    
C45   H15   S    
Cu1   Cu2   S    
C11   H5    S    
C26   C33   S    
C54   H34   S    
C15   C21   A    
C16   C20   A    
C49   H33   S    
C59   H52   S    
C51   H29   S    
C28   C46   S    
C55   H46   S    
C1    C38   S    
C52   H40   S    
C54   H35   S    
C28   C33   S    
C9    H3    S    
C8    I4    S    
C13   C15   A    
C10   H4    S    
C14   C16   A    
C43   H18   S    
C3    C4    A    
Cu1   O3    S    
C60   H50   S    
C7    C9    A    
C50   H30   S    
C11   C17   A    
C16   C22   A    
C26   O7    A    
C32   H2    S    
C25   O8    A    
C3    C5    A    
C46   H26   S    
C48   H22   S    
C12   H6    S    
C60   H48   S    
C23   H11   S    
C24   H12   S    
C58   C59   S    
C1    O1    A    
C52   H39   S    
C28   C30   S    
C37   C39   A    
C57   H41   S    
C36   C38   A    
C21   H9    S    
C2    C37   S    
C4    C42   A    
Cu2   O2    S    
C53   H38   S    
C5    C35   A    
C14   H8    S    
C17   C19   A    
C6    C36   A    
C18   C20   A    
C59   H51   S    
C7    C41   A    
C45   H13   S    
C55   H47   S    
C7    I3    S    
C27   C43   S    
Cu1   N1    S    
C48   H20   S    
C47   H24   S    
C5    C10   A    
C54   H36   S    
C50   C51   S    
C8    C10   A    
C53   C54   S    
C31   H1    S    
C21   C24   A    
C12   C18   A    
C22   C23   A    
C43   H19   S    
C51   H27   S    
C11   N1    A    
C58   H53   S    
